# MOL2 file generated by ConQuest
# Please check atom types

@<TRIPOS>MOLECULE
GICTIV01
    20    21     1
SMALL
NO_CHARGES
****
Generated from CSD

@<TRIPOS>ATOM
      1 C1         4.1289    1.1419    8.5946 C.2       1 RES1    0.0000
      2 C2         5.0415    1.6668    6.8071 C.2       1 RES1    0.0000
      3 N1         4.4525    0.5421    6.4667 N.2       1 RES1    0.0000
      4 N2         3.8624    0.2301    7.6371 N.pl3     1 RES1    0.0000
      5 N3         4.8761    2.0875    8.0990 N.2       1 RES1    0.0000
      6 N4         5.7675    2.3354    5.8051 N.2       1 RES1    0.0000
      7 N5         3.0856   -0.9811    7.7730 N.pl3     1 RES1    0.0000
      8 O1         2.6736   -1.1625    8.8990 O.2       1 RES1    0.0000
      9 O2         2.9633   -1.6336    6.7783 O.2       1 RES1    0.0000
     10 H1         3.7702    1.0532    9.4908 H         1 RES1    0.0000
     11 N4B        6.3103    3.3886    6.2237 N.2       1 RES1    0.0000
     12 C2B        7.0363    4.0572    5.2217 C.2       1 RES1    0.0000
     13 N1B        7.6254    5.1819    5.5621 N.2       1 RES1    0.0000
     14 N3B        7.2017    3.6365    3.9298 N.2       1 RES1    0.0000
     15 N2B        8.2154    5.4939    4.3917 N.pl3     1 RES1    0.0000
     16 C1B        7.9489    4.5821    3.4342 C.2       1 RES1    0.0000
     17 N5B        8.9922    6.7051    4.2558 N.pl3     1 RES1    0.0000
     18 H1B        8.3076    4.6708    2.5381 H         1 RES1    0.0000
     19 O1B        9.4042    6.8865    3.1299 O.2       1 RES1    0.0000
     20 O2B        9.1146    7.3576    5.2506 O.2       1 RES1    0.0000
@<TRIPOS>BOND
     1    1    4 1
     2    2    3 2
     3    3    4 1
     4    4    7 1
     5    5    1 2
     6    6    2 1
     7    7    8 2
     8    9    7 2
     9   10    1 1
    10   11    6 2
    11   12   11 1
    12   13   12 2
    13   14   12 1
    14   15   13 1
    15   16   14 2
    16   17   15 1
    17   18   16 1
    18   19   17 2
    19   20   17 2
    20    2    5 1
    21   15   16 1
@<TRIPOS>SUBSTRUCTURE
     1 RES1 1

@<TRIPOS>CRYSIN
   7.2080    5.7240   12.2540  90.0000 101.0000  90.0000  14 1

