# MOL2 file generated by ConQuest
# Please check atom types

@<TRIPOS>MOLECULE
GIDFAD
    15    15     1
SMALL
NO_CHARGES
****
Generated from CSD

@<TRIPOS>ATOM
      1 O1         5.0334    0.6099    9.9161 O.2       1 RES1    0.0000
      2 N1         6.1512    2.5574    9.5990 N.am      1 RES1    0.0000
      3 O2         1.7708    0.5638   12.3192 O.3       1 RES1    0.0000
      4 N2         4.3727    2.5018   11.0303 N.am      1 RES1    0.0000
      5 C1         5.2009    1.8071   10.1437 C.2       1 RES1    0.0000
      6 N3         2.4200    3.9108   13.0833 N.pl3     1 RES1    0.0000
      7 O3         3.3351    4.6124   12.6688 O.2       1 RES1    0.0000
      8 N4         2.8962    0.6844   11.4948 N.2       1 RES1    0.0000
      9 N5         1.4929    1.7279   12.9685 N.2       1 RES1    0.0000
     10 C2         2.4003    2.5566   12.5658 C.2       1 RES1    0.0000
     11 C3         3.3000    1.9294   11.6452 C.2       1 RES1    0.0000
     12 O4         1.5648    4.2415   13.8750 O.2       1 RES1    0.0000
     13 H1         4.5534    3.3351   11.1574 H         1 RES1    0.0000
     14 H2         6.6076    2.1887    9.0069 H         1 RES1    0.0000
     15 H3         6.2451    3.4480    9.8433 H         1 RES1    0.0000
@<TRIPOS>BOND
     1    1    5 2
     2    2    5 1
     3    3    8 1
     4    4    5 1
     5    6    7 2
     6    8   11 2
     7    9    3 1
     8   10    6 1
     9   11    4 1
    10   12    6 2
    11   13    4 1
    12   14    2 1
    13   15    2 1
    14    9   10 2
    15   10   11 1
@<TRIPOS>SUBSTRUCTURE
     1 RES1 1

@<TRIPOS>CRYSIN
   5.4926    8.6852   14.0098  90.0000  90.0000  90.0000  19 1

