# MOL2 file generated by ConQuest
# Please check atom types

@<TRIPOS>MOLECULE
GIFSOE
   196   200     4
SMALL
NO_CHARGES
****
Generated from CSD

@<TRIPOS>ATOM
      1 O1         3.2647    0.2605    2.7082 O.2       1 RES1    0.0000
      2 O2         1.4263    1.3433    7.7069 O.3       1 RES1    0.0000
      3 O3        -0.2531   -0.1239    7.1708 O.2       1 RES1    0.0000
      4 O4        -0.0261    0.8442    9.2110 O.3       1 RES1    0.0000
      5 N1         1.9188    1.0921    6.4234 N.pl3     1 RES1    0.0000
      6 C1         2.8391    0.0952    6.2734 C.2       1 RES1    0.0000
      7 C2         3.2917   -0.1908    5.0230 C.2       1 RES1    0.0000
      8 H1         3.9149   -0.8992    4.9172 H         1 RES1    0.0000
      9 C3         2.8688    0.5323    3.8526 C.2       1 RES1    0.0000
     10 C4         1.9412    1.6510    4.1124 C.ar      1 RES1    0.0000
     11 C5         1.5223    2.4921    3.0690 C.ar      1 RES1    0.0000
     12 H2         1.8430    2.3423    2.1874 H         1 RES1    0.0000
     13 C6         0.6543    3.5308    3.3086 C.ar      1 RES1    0.0000
     14 H3         0.3882    4.1010    2.5964 H         1 RES1    0.0000
     15 C7         0.1608    3.7475    4.6033 C.ar      1 RES1    0.0000
     16 H4        -0.4494    4.4590    4.7615 H         1 RES1    0.0000
     17 C8         0.5520    2.9406    5.6483 C.ar      1 RES1    0.0000
     18 H5         0.2105    3.0868    6.5221 H         1 RES1    0.0000
     19 C9         1.4569    1.9032    5.4066 C.ar      1 RES1    0.0000
     20 C10        3.3092   -0.5671    7.5347 C.3       1 RES1    0.0000
     21 H6         2.5377   -1.0205    7.9581 H         1 RES1    0.0000
     22 H7         3.6224    0.1340    8.1604 H         1 RES1    0.0000
     23 C11        4.4245   -1.5834    7.3513 C.3       1 RES1    0.0000
     24 H8         5.2029   -1.1494    6.9200 H         1 RES1    0.0000
     25 H9         4.1137   -2.3149    6.7622 H         1 RES1    0.0000
     26 C12        4.8416   -2.1554    8.7035 C.3       1 RES1    0.0000
     27 H10        5.1779   -1.4189    9.2741 H         1 RES1    0.0000
     28 H11        4.0456   -2.5414    9.1474 H         1 RES1    0.0000
     29 C13        5.9122   -3.2243    8.5992 C.3       1 RES1    0.0000
     30 H12        6.6938   -2.8557    8.1160 H         1 RES1    0.0000
     31 H13        5.5611   -3.9862    8.0760 H         1 RES1    0.0000
     32 C14        6.3605   -3.7217    9.9690 C.3       1 RES1    0.0000
     33 H14        6.8371   -2.9896   10.4345 H         1 RES1    0.0000
     34 H15        5.5595   -3.9493   10.5056 H         1 RES1    0.0000
     35 C15        7.2667   -4.9320    9.9052 C.3       1 RES1    0.0000
     36 H16        8.0432   -4.7255    9.3275 H         1 RES1    0.0000
     37 H17        6.7736   -5.6839    9.4920 H         1 RES1    0.0000
     38 C16        7.7658   -5.3567   11.2734 C.3       1 RES1    0.0000
     39 H18        8.3458   -6.1406   11.1814 H         1 RES1    0.0000
     40 H19        7.0014   -5.5799   11.8438 H         1 RES1    0.0000
     41 H20        8.2729   -4.6215   11.6793 H         1 RES1    0.0000
     42 C17        0.2826    0.5901    7.9590 C.2       1 RES1    0.0000
     43 C18       -1.2373    0.1592    9.6867 C.3       1 RES1    0.0000
     44 H21       -1.1410   -0.8213    9.5853 H         1 RES1    0.0000
     45 H22       -2.0262    0.4536    9.1674 H         1 RES1    0.0000
     46 C19       -1.4028    0.5182   11.1312 C.3       1 RES1    0.0000
     47 H23       -2.2030    0.0791   11.4882 H         1 RES1    0.0000
     48 H24       -1.4982    1.4902   11.2170 H         1 RES1    0.0000
     49 H25       -0.6159    0.2204   11.6327 H         1 RES1    0.0000
     50 O5         5.2620    2.1274    8.2989 O.2       2 RES2    0.0000
     51 O6         4.6788    4.1027    3.2675 O.3       2 RES2    0.0000
     52 O7         6.3755    5.5509    3.8001 O.2       2 RES2    0.0000
     53 O8         5.2752    5.5644    1.8153 O.3       2 RES2    0.0000
     54 N2         4.8338    3.5988    4.5628 N.pl3     2 RES2    0.0000
     55 C20        5.6523    2.5198    4.7444 C.2       2 RES2    0.0000
     56 C21        5.8139    2.0316    6.0082 C.2       2 RES2    0.0000
     57 H26        6.4118    1.3054    6.1420 H         2 RES2    0.0000
     58 C22        5.1182    2.5684    7.1497 C.2       2 RES2    0.0000
     59 C23        4.1916    3.6760    6.8556 C.ar      2 RES2    0.0000
     60 C24        3.4024    4.2449    7.8674 C.ar      2 RES2    0.0000
     61 H27        3.4593    3.9044    8.7517 H         2 RES2    0.0000
     62 C25        2.5485    5.2856    7.5974 C.ar      2 RES2    0.0000
     63 H28        2.0180    5.6578    8.2916 H         2 RES2    0.0000
     64 C26        2.4615    5.7972    6.2967 C.ar      2 RES2    0.0000
     65 H29        1.8754    6.5225    6.1175 H         2 RES2    0.0000
     66 C27        3.2148    5.2626    5.2762 C.ar      2 RES2    0.0000
     67 H30        3.1524    5.6138    4.3970 H         2 RES2    0.0000
     68 C28        4.0769    4.1901    5.5538 C.ar      2 RES2    0.0000
     69 C29        6.2726    1.9409    3.5080 C.3       2 RES2    0.0000
     70 H31        6.8671    2.6219    3.1055 H         2 RES2    0.0000
     71 H32        5.5533    1.7490    2.8543 H         2 RES2    0.0000
     72 C30        7.0772    0.6692    3.7319 C.3       2 RES2    0.0000
     73 H33        6.4933   -0.0261    4.1280 H         2 RES2    0.0000
     74 H34        7.8123    0.8514    4.3681 H         2 RES2    0.0000
     75 C31        7.6564    0.1600    2.4183 C.3       2 RES2    0.0000
     76 H35        6.9134   -0.0314    1.7939 H         2 RES2    0.0000
     77 H36        8.2130    0.8731    2.0162 H         2 RES2    0.0000
     78 C32        8.5007   -1.0928    2.5748 C.3       2 RES2    0.0000
     79 H37        7.9624   -1.7918    3.0254 H         2 RES2    0.0000
     80 H38        9.2781   -0.8888    3.1521 H         2 RES2    0.0000
     81 C33        9.0007   -1.6322    1.2397 C.3       2 RES2    0.0000
     82 H39        8.2225   -1.9101    0.6958 H         2 RES2    0.0000
     83 H40        9.4648   -0.9040    0.7536 H         2 RES2    0.0000
     84 C34        9.9457   -2.8087    1.3784 C.3       2 RES2    0.0000
     85 H41        9.5312   -3.4869    1.9695 H         2 RES2    0.0000
     86 H42       10.7818   -2.5015    1.8117 H         2 RES2    0.0000
     87 C35       10.2880   -3.4556    0.0445 C.3       2 RES2    0.0000
     88 H43       10.9005   -4.2066    0.1934 H         2 RES2    0.0000
     89 H44       10.7166   -2.7947   -0.5380 H         2 RES2    0.0000
     90 H45        9.4673   -3.7837   -0.3801 H         2 RES2    0.0000
     91 C36        5.5587    5.1531    3.0283 C.2       2 RES2    0.0000
     92 C37        6.0951    6.6915    1.3395 C.3       2 RES2    0.0000
     93 H46        7.0565    6.4572    1.3782 H         2 RES2    0.0000
     94 H47        5.9418    7.4896    1.9051 H         2 RES2    0.0000
     95 C38        5.6812    6.9670   -0.0776 C.3       2 RES2    0.0000
     96 H48        6.2059    7.7143   -0.4313 H         2 RES2    0.0000
     97 H49        4.7283    7.1962   -0.1000 H         2 RES2    0.0000
     98 H50        5.8387    6.1692   -0.6246 H         2 RES2    0.0000
     99 O9         4.6817    9.4196    2.8331 O.2       3 RES3    0.0000
    100 O10        3.0122    9.9606    7.9724 O.3       3 RES3    0.0000
    101 O11        1.2612    8.6783    7.2297 O.2       3 RES3    0.0000
    102 O12        1.4187    9.4885    9.3397 O.3       3 RES3    0.0000
    103 N3         3.4978    9.8703    6.6639 N.pl3     3 RES3    0.0000
    104 C39        4.4047    8.8895    6.3781 C.2       3 RES3    0.0000
    105 C40        4.8050    8.7366    5.0850 C.2       3 RES3    0.0000
    106 H51        5.4306    8.0508    4.8838 H         3 RES3    0.0000
    107 C41        4.3239    9.5654    4.0093 C.2       3 RES3    0.0000
    108 C42        3.3775   10.6223    4.4048 C.ar      3 RES3    0.0000
    109 C43        2.8652   11.5248    3.4613 C.ar      3 RES3    0.0000
    110 H52        3.1436   11.4624    2.5542 H         3 RES3    0.0000
    111 C44        1.9657   12.4978    3.8292 C.ar      3 RES3    0.0000
    112 H53        1.6234   13.0985    3.1788 H         3 RES3    0.0000
    113 C45        1.5530   12.6033    5.1668 C.ar      3 RES3    0.0000
    114 H54        0.9276   13.2739    5.4151 H         3 RES3    0.0000
    115 C46        2.0470   11.7437    6.1238 C.ar      3 RES3    0.0000
    116 H55        1.7703   11.8204    7.0289 H         3 RES3    0.0000
    117 C47        2.9645   10.7531    5.7421 C.ar      3 RES3    0.0000
    118 C48        4.9241    8.0948    7.5442 C.3       3 RES3    0.0000
    119 H56        4.1678    7.6040    7.9537 H         3 RES3    0.0000
    120 H57        5.2762    8.7226    8.2227 H         3 RES3    0.0000
    121 C49        6.0206    7.0942    7.1910 C.3       3 RES3    0.0000
    122 H58        5.6883    6.4867    6.4843 H         3 RES3    0.0000
    123 H59        6.8000    7.5839    6.8267 H         3 RES3    0.0000
    124 C50        6.4693    6.2642    8.3892 C.3       3 RES3    0.0000
    125 H60        5.6913    5.7799    8.7628 H         3 RES3    0.0000
    126 H61        6.8215    6.8655    9.0918 H         3 RES3    0.0000
    127 C51        7.5504    5.2588    7.9941 C.3       3 RES3    0.0000
    128 H62        7.2087    4.7120    7.2424 H         3 RES3    0.0000
    129 H63        8.3365    5.7599    7.6625 H         3 RES3    0.0000
    130 C52        8.0118    4.3180    9.1014 C.3       3 RES3    0.0000
    131 H64        7.2267    3.8151    9.4364 H         3 RES3    0.0000
    132 H65        8.6441    3.6611    8.7162 H         3 RES3    0.0000
    133 C53        8.6864    5.0100   10.2778 C.3       3 RES3    0.0000
    134 H66        7.9935    5.4176   10.8569 H         3 RES3    0.0000
    135 H67        9.2646    5.7380    9.9388 H         3 RES3    0.0000
    136 C54        9.5309    4.0451   11.1100 C.3       3 RES3    0.0000
    137 H68        9.9468    4.5309   11.8527 H         3 RES3    0.0000
    138 H69       10.2283    3.6517   10.5456 H         3 RES3    0.0000
    139 H70        8.9587    3.3331   11.4659 H         3 RES3    0.0000
    140 C55        1.7955    9.2879    8.0997 C.2       3 RES3    0.0000
    141 C56        0.1067    8.9100    9.6769 C.3       3 RES3    0.0000
    142 H71        0.0907    7.9447    9.4542 H         3 RES3    0.0000
    143 H72       -0.6082    9.3614    9.1630 H         3 RES3    0.0000
    144 C57       -0.1083    9.1045   11.1387 C.3       3 RES3    0.0000
    145 H73       -0.9762    8.7274   11.3948 H         3 RES3    0.0000
    146 H74       -0.0949   10.0623   11.3459 H         3 RES3    0.0000
    147 H75        0.6043    8.6527   11.6371 H         3 RES3    0.0000
    148 O13        6.7711   11.1105    8.3785 O.2       4 RES4    0.0000
    149 O14        6.3658   12.8570    3.2533 O.3       4 RES4    0.0000
    150 O15        8.0052   14.3073    3.9371 O.2       4 RES4    0.0000
    151 O16        7.1991   14.2244    1.8213 O.3       4 RES4    0.0000
    152 N4         6.4022   12.3639    4.5604 N.pl3     4 RES4    0.0000
    153 C58        7.2193   11.2947    4.8169 C.2       4 RES4    0.0000
    154 C59        7.3402   10.8678    6.1024 C.2       4 RES4    0.0000
    155 H76        7.9080   10.1279    6.2820 H         4 RES4    0.0000
    156 C60        6.6459   11.4870    7.2043 C.2       4 RES4    0.0000
    157 C61        5.7505   12.5983    6.8402 C.ar      4 RES4    0.0000
    158 C62        4.9640   13.2481    7.8081 C.ar      4 RES4    0.0000
    159 H77        5.0076   12.9656    8.7139 H         4 RES4    0.0000
    160 C63        4.1316   14.2893    7.4615 C.ar      4 RES4    0.0000
    161 H78        3.5998   14.7151    8.1249 H         4 RES4    0.0000
    162 C64        4.0703   14.7208    6.1293 C.ar      4 RES4    0.0000
    163 H79        3.5031   15.4468    5.8975 H         4 RES4    0.0000
    164 C65        4.8211   14.1064    5.1543 C.ar      4 RES4    0.0000
    165 H80        4.7754   14.4036    4.2525 H         4 RES4    0.0000
    166 C66        5.6563   13.0343    5.5067 C.ar      4 RES4    0.0000
    167 C67        7.8646   10.6508    3.6218 C.3       4 RES4    0.0000
    168 H81        8.4475   11.3176    3.1788 H         4 RES4    0.0000
    169 H82        7.1571   10.3987    2.9787 H         4 RES4    0.0000
    170 C68        8.6950    9.4149    3.9422 C.3       4 RES4    0.0000
    171 H83        8.1099    8.7278    4.3481 H         4 RES4    0.0000
    172 H84        9.3893    9.6543    4.6059 H         4 RES4    0.0000
    173 C69        9.3675    8.8325    2.7038 C.3       4 RES4    0.0000
    174 H85        8.6745    8.5829    2.0429 H         4 RES4    0.0000
    175 H86        9.9480    9.5212    2.2919 H         4 RES4    0.0000
    176 C70       10.2061    7.6041    3.0412 C.3       4 RES4    0.0000
    177 H87        9.6050    6.9001    3.3944 H         4 RES4    0.0000
    178 H88       10.8394    7.8452    3.7634 H         4 RES4    0.0000
    179 C71       10.9995    7.0229    1.8759 C.3       4 RES4    0.0000
    180 H89       11.6030    7.7244    1.5227 H         4 RES4    0.0000
    181 H90       11.5651    6.2849    2.2141 H         4 RES4    0.0000
    182 C72       10.1423    6.4968    0.7351 C.3       4 RES4    0.0000
    183 H91        9.8046    7.2604    0.2045 H         4 RES4    0.0000
    184 H92        9.3605    6.0204    1.1115 H         4 RES4    0.0000
    185 C73       10.9097    5.5523   -0.1823 C.3       4 RES4    0.0000
    186 H93       10.3186    5.2415   -0.8981 H         4 RES4    0.0000
    187 H94       11.2302    4.7841    0.3334 H         4 RES4    0.0000
    188 H95       11.6748    6.0261   -0.5713 H         4 RES4    0.0000
    189 C74        7.2959   13.8759    3.0812 C.2       4 RES4    0.0000
    190 C75        8.0463   15.3604    1.4307 C.3       4 RES4    0.0000
    191 H96        9.0024   15.1133    1.4938 H         4 RES4    0.0000
    192 H97        7.8810   16.1339    2.0273 H         4 RES4    0.0000
    193 C76        7.6934   15.7077    0.0209 C.3       4 RES4    0.0000
    194 H98        8.2406   16.4636   -0.2756 H         4 RES4    0.0000
    195 H99        6.7454   15.9518   -0.0289 H         4 RES4    0.0000
    196 H100       7.8625   14.9352   -0.5580 H         4 RES4    0.0000
@<TRIPOS>BOND
     1    1    9 2
     2    2    5 1
     3    3   42 2
     4    4   42 1
     5    5    6 1
     6    6    7 2
     7    7    8 1
     8    9    7 1
     9   10    9 1
    10   11   10 ar
    11   12   11 1
    12   13   11 ar
    13   14   13 1
    14   15   13 ar
    15   16   15 1
    16   17   15 ar
    17   18   17 1
    18   19    5 1
    19   20    6 1
    20   21   20 1
    21   22   20 1
    22   23   20 1
    23   24   23 1
    24   25   23 1
    25   26   23 1
    26   27   26 1
    27   28   26 1
    28   29   26 1
    29   30   29 1
    30   31   29 1
    31   32   29 1
    32   33   32 1
    33   34   32 1
    34   35   32 1
    35   36   35 1
    36   37   35 1
    37   38   35 1
    38   39   38 1
    39   40   38 1
    40   41   38 1
    41   42    2 1
    42   43    4 1
    43   44   43 1
    44   45   43 1
    45   46   43 1
    46   47   46 1
    47   48   46 1
    48   49   46 1
    49   50   58 2
    50   51   54 1
    51   52   91 2
    52   53   91 1
    53   54   55 1
    54   55   56 2
    55   56   57 1
    56   58   56 1
    57   59   58 1
    58   60   59 ar
    59   61   60 1
    60   62   60 ar
    61   63   62 1
    62   64   62 ar
    63   65   64 1
    64   66   64 ar
    65   67   66 1
    66   68   54 1
    67   69   55 1
    68   70   69 1
    69   71   69 1
    70   72   69 1
    71   73   72 1
    72   74   72 1
    73   75   72 1
    74   76   75 1
    75   77   75 1
    76   78   75 1
    77   79   78 1
    78   80   78 1
    79   81   78 1
    80   82   81 1
    81   83   81 1
    82   84   81 1
    83   85   84 1
    84   86   84 1
    85   87   84 1
    86   88   87 1
    87   89   87 1
    88   90   87 1
    89   91   51 1
    90   92   53 1
    91   93   92 1
    92   94   92 1
    93   95   92 1
    94   96   95 1
    95   97   95 1
    96   98   95 1
    97   99  107 2
    98  100  103 1
    99  101  140 2
   100  102  140 1
   101  103  104 1
   102  104  105 2
   103  105  106 1
   104  107  105 1
   105  108  107 1
   106  109  108 ar
   107  110  109 1
   108  111  109 ar
   109  112  111 1
   110  113  111 ar
   111  114  113 1
   112  115  113 ar
   113  116  115 1
   114  117  103 1
   115  118  104 1
   116  119  118 1
   117  120  118 1
   118  121  118 1
   119  122  121 1
   120  123  121 1
   121  124  121 1
   122  125  124 1
   123  126  124 1
   124  127  124 1
   125  128  127 1
   126  129  127 1
   127  130  127 1
   128  131  130 1
   129  132  130 1
   130  133  130 1
   131  134  133 1
   132  135  133 1
   133  136  133 1
   134  137  136 1
   135  138  136 1
   136  139  136 1
   137  140  100 1
   138  141  102 1
   139  142  141 1
   140  143  141 1
   141  144  141 1
   142  145  144 1
   143  146  144 1
   144  147  144 1
   145  148  156 2
   146  149  152 1
   147  150  189 2
   148  151  189 1
   149  152  153 1
   150  153  154 2
   151  154  155 1
   152  156  154 1
   153  157  156 1
   154  158  157 ar
   155  159  158 1
   156  160  158 ar
   157  161  160 1
   158  162  160 ar
   159  163  162 1
   160  164  162 ar
   161  165  164 1
   162  166  152 1
   163  167  153 1
   164  168  167 1
   165  169  167 1
   166  170  167 1
   167  171  170 1
   168  172  170 1
   169  173  170 1
   170  174  173 1
   171  175  173 1
   172  176  173 1
   173  177  176 1
   174  178  176 1
   175  179  176 1
   176  180  179 1
   177  181  179 1
   178  182  179 1
   179  183  182 1
   180  184  182 1
   181  185  182 1
   182  186  185 1
   183  187  185 1
   184  188  185 1
   185  189  149 1
   186  190  151 1
   187  191  190 1
   188  192  190 1
   189  193  190 1
   190  194  193 1
   191  195  193 1
   192  196  193 1
   193   10   19 ar
   194   17   19 ar
   195   59   68 ar
   196   66   68 ar
   197  108  117 ar
   198  115  117 ar
   199  157  166 ar
   200  164  166 ar
@<TRIPOS>SUBSTRUCTURE
     1 RES1 1
     2 RES2 50
     3 RES3 99
     4 RES4 148

@<TRIPOS>CRYSIN
   8.9481   17.9486   22.3840  85.1090  84.6330  80.5100   2 1

