# MOL2 file generated by ConQuest
# Please check atom types

@<TRIPOS>MOLECULE
GIFSOE01
    62    50     2
SMALL
NO_CHARGES
****
Generated from CSD

@<TRIPOS>ATOM
      1 O1         0.5850    4.6349    2.8297 O.2       1 RES1    0.0000
      2 N1         1.1665    3.3472    6.6023 N.3       1 RES1    0.0000
      3 C1         1.1003    4.6946    6.3810 C.2       1 RES1    0.0000
      4 C2         0.9119    5.1289    5.1076 C.2       1 RES1    0.0000
      5 H1         0.8856    6.0650    4.9472 H         1 RES1    0.0000
      6 C3         0.7510    4.2380    3.9905 C.2       1 RES1    0.0000
      7 C4         0.7751    2.8043    4.3211 C.ar      1 RES1    0.0000
      8 C5         0.5710    1.8261    3.3321 C.ar      1 RES1    0.0000
      9 H2         0.4066    2.0929    2.4355 H         1 RES1    0.0000
     10 C6         0.6067    0.4877    3.6481 C.ar      1 RES1    0.0000
     11 H3         0.4636   -0.1629    2.9715 H         1 RES1    0.0000
     12 C7         0.8523    0.0856    4.9560 C.ar      1 RES1    0.0000
     13 H4         0.8868   -0.8413    5.1625 H         1 RES1    0.0000
     14 C8         1.0461    1.0110    5.9517 C.ar      1 RES1    0.0000
     15 H5         1.2093    0.7292    6.8445 H         1 RES1    0.0000
     16 C9         1.0001    2.3752    5.6366 C.ar      1 RES1    0.0000
     17 C10        1.1898    5.5782    7.5909 C.3       1 RES1    0.0000
     18 H6         2.0746    5.4444    8.0152 H         1 RES1    0.0000
     19 H7         0.5006    5.2918    8.2417 H         1 RES1    0.0000
     20 C11        1.0053    7.0617    7.3110 C.3       1 RES1    0.0000
     21 H8         1.6840    7.3547    6.6516 H         1 RES1    0.0000
     22 H9         0.1110    7.2079    6.9118 H         1 RES1    0.0000
     23 C12        1.1325    7.9082    8.5677 C.3       1 RES1    0.0000
     24 H10        1.9955    7.7233    9.0154 H         1 RES1    0.0000
     25 H11        0.4010    7.6921    9.1993 H         1 RES1    0.0000
     26 C13        1.0521    9.4788    8.1347 C.3       1 RES1    0.0000
     27 H12        1.7163    9.6487    7.4209 H         1 RES1    0.0000
     28 H13        0.1547    9.6626    7.7595 H         1 RES1    0.0000
     29 C14        1.3124   10.4486    9.2923 C.3       1 RES1    0.0000
     30 H14        2.2145   10.2693    9.6590 H         1 RES1    0.0000
     31 H15        1.3118   11.3729    8.9369 H         1 RES1    0.0000
     32 C15        0.3112   10.3644   10.4170 C.3       1 RES1    0.0000
     33 H16        0.4749    9.5354   10.9328 H         1 RES1    0.0000
     34 H17       -0.5998   10.3074   10.0335 H         1 RES1    0.0000
     35 C16        0.3809   11.5613   11.3612 C.3       1 RES1    0.0000
     36 H18        1.1915   11.5001   11.9084 H         1 RES1    0.0000
     37 H19       -0.4067   11.5625   11.9465 H         1 RES1    0.0000
     38 H20        0.4008   12.3899   10.8386 H         1 RES1    0.0000
     39 O2         1.4078    2.9050    7.9057 O.3       1 RES1    0.0000
     40 O3         3.6151    2.8618    7.3074 O.2       1 RES1    0.0000
     41 O4         2.8576    2.2725    9.3551 O.3       1 RES1    0.0000
     42 C17        2.7653    2.6904    8.1172 C.2       1 RES1    0.0000
     43 C18        4.2191    1.9408    9.7963 C.3       1 RES1    0.0000
     44 H21        4.8140    2.7239    9.6882 H         1 RES1    0.0000
     45 H22        4.5811    1.1938    9.2576 H         1 RES1    0.0000
     46 C19        4.1383    1.5491   11.2318 C.3       1 RES1    0.0000
     47 H23        5.0347    1.3256   11.5608 H         1 RES1    0.0000
     48 H24        3.5523    0.7685   11.3253 H         1 RES1    0.0000
     49 H25        3.7758    2.2952   11.7536 H         1 RES1    0.0000
     50 C20        0.8574    9.1841    8.6337 Du        2 SUP2    0.0000
     51 H26       -0.0283    9.3193    8.2125 Du        2 SUP2    0.0000
     52 H27        1.5190    9.6602    8.0712 Du        2 SUP2    0.0000
     53 C21        0.8286    9.8775    9.9846 Du        2 SUP2    0.0000
     54 H28        0.0159    9.5874   10.4708 Du        2 SUP2    0.0000
     55 H29        1.6119    9.5782   10.5090 Du        2 SUP2    0.0000
     56 C22        0.8375   11.3625    9.9194 Du        2 SUP2    0.0000
     57 H30        0.1119   11.6584    9.3159 Du        2 SUP2    0.0000
     58 H31        1.6961   11.6572    9.5222 Du        2 SUP2    0.0000
     59 C23        0.6647   12.0432   11.2535 Du        2 SUP2    0.0000
     60 H32        1.5368   12.1264   11.6931 Du        2 SUP2    0.0000
     61 H33        0.0651   11.5105   11.8164 Du        2 SUP2    0.0000
     62 H34        0.2816   12.9343   11.1167 Du        2 SUP2    0.0000
@<TRIPOS>BOND
     1    1    6 2
     2    2    3 1
     3    3    4 2
     4    4    5 1
     5    6    4 1
     6    7    6 1
     7    8    7 ar
     8    9    8 1
     9   10    8 ar
    10   11   10 1
    11   12   10 ar
    12   13   12 1
    13   14   12 ar
    14   15   14 1
    15   16    2 1
    16   17    3 1
    17   18   17 1
    18   19   17 1
    19   20   17 1
    20   21   20 1
    21   22   20 1
    22   23   20 1
    23   24   23 1
    24   25   23 1
    25   26   23 1
    26   27   26 1
    27   28   26 1
    28   29   26 1
    29   30   29 1
    30   31   29 1
    31   32   29 1
    32   33   32 1
    33   34   32 1
    34   35   32 1
    35   36   35 1
    36   37   35 1
    37   38   35 1
    38   39    2 1
    39   40   42 2
    40   41   42 1
    41   42   39 1
    42   43   41 1
    43   44   43 1
    44   45   43 1
    45   46   43 1
    46   47   46 1
    47   48   46 1
    48   49   46 1
    49    7   16 ar
    50   14   16 ar
@<TRIPOS>SUBSTRUCTURE
     1 RES1 1
     2 SUP2 50

@<TRIPOS>CRYSIN
  13.8037   11.5567   22.6319  90.0000  97.7290  90.0000  15 1

