# MOL2 file generated by ConQuest
# Please check atom types

@<TRIPOS>MOLECULE
GIFYEC
    28    30     1
SMALL
NO_CHARGES
****
Generated from CSD

@<TRIPOS>ATOM
      1 O1        10.0445    3.9800    5.3028 O.3       1 RES1    0.0000
      2 O2         8.2092    2.7604    5.1325 O.3       1 RES1    0.0000
      3 N1        10.5350    5.0640    6.0997 N.2       1 RES1    0.0000
      4 N2         8.4106    4.5503    6.6747 N.2       1 RES1    0.0000
      5 C1         8.7020    6.4004    8.9469 C.ar      1 RES1    0.0000
      6 H1         8.0460    5.7431    9.0020 H         1 RES1    0.0000
      7 C2         8.7861    7.3746    9.9241 C.ar      1 RES1    0.0000
      8 H2         8.1894    7.3677   10.6377 H         1 RES1    0.0000
      9 C3         9.7498    8.3545    9.8436 C.ar      1 RES1    0.0000
     10 H3         9.8018    9.0100   10.5012 H         1 RES1    0.0000
     11 C4        10.6347    8.3625    8.7910 C.ar      1 RES1    0.0000
     12 H4        11.2824    9.0273    8.7372 H         1 RES1    0.0000
     13 C5        10.5683    7.3901    7.8131 C.ar      1 RES1    0.0000
     14 H5        11.1736    7.3976    7.1070 H         1 RES1    0.0000
     15 C6         9.5937    6.3998    7.8843 C.ar      1 RES1    0.0000
     16 C7         6.2087    1.5837    5.6991 C.ar      1 RES1    0.0000
     17 H6         6.7267    0.9051    6.0684 H         1 RES1    0.0000
     18 C8         4.8365    1.4785    5.6497 C.ar      1 RES1    0.0000
     19 H7         4.4200    0.7206    5.9912 H         1 RES1    0.0000
     20 C9         4.0749    2.4843    5.1008 C.ar      1 RES1    0.0000
     21 H8         3.1487    2.4049    5.0727 H         1 RES1    0.0000
     22 C10        4.6890    3.6125    4.5908 C.ar      1 RES1    0.0000
     23 H9         4.1737    4.2911    4.2189 H         1 RES1    0.0000
     24 C11        6.0615    3.7385    4.6287 C.ar      1 RES1    0.0000
     25 H10        6.4808    4.4941    4.2865 H         1 RES1    0.0000
     26 C12        6.7918    2.7172    5.1871 C.ar      1 RES1    0.0000
     27 C13        9.5254    5.3435    6.8682 C.2       1 RES1    0.0000
     28 C14        8.8109    3.7730    5.7367 C.2       1 RES1    0.0000
@<TRIPOS>BOND
     1    1    3 1
     2    2   26 1
     3    3   27 2
     4    4   27 1
     5    5    6 1
     6    7    5 ar
     7    8    7 1
     8    9    7 ar
     9   10    9 1
    10   11    9 ar
    11   12   11 1
    12   13   11 ar
    13   14   13 1
    14   15    5 ar
    15   16   17 1
    16   18   16 ar
    17   19   18 1
    18   20   18 ar
    19   21   20 1
    20   22   20 ar
    21   23   22 1
    22   24   22 ar
    23   25   24 1
    24   26   16 ar
    25   27   15 1
    26   28    1 1
    27    2   28 1
    28    4   28 2
    29   13   15 ar
    30   24   26 ar
@<TRIPOS>SUBSTRUCTURE
     1 RES1 1

@<TRIPOS>CRYSIN
  14.6600    5.7506   14.6230  90.0000 109.4100  90.0000  14 1

