# MOL2 file generated by ConQuest
# Please check atom types

@<TRIPOS>MOLECULE
GIGLEN
    62    67     1
SMALL
NO_CHARGES
****
Generated from CSD

@<TRIPOS>ATOM
      1 O1         6.0140    2.8752    4.7499 O.3       1 RES1    0.0000
      2 O2         7.4364    4.6689    4.7686 O.3       1 RES1    0.0000
      3 O3        -2.1430    3.7633    9.3070 O.2       1 RES1    0.0000
      4 O4        -1.4585    5.8374    9.4936 O.2       1 RES1    0.0000
      5 O5         3.8511    1.9882    6.5889 O.2       1 RES1    0.0000
      6 O6         2.2614    5.2878    3.8957 O.2       1 RES1    0.0000
      7 O7         9.5026    2.7748    3.7444 O.2       1 RES1    0.0000
      8 O8         5.7019    2.5989    1.2398 O.2       1 RES1    0.0000
      9 O9         8.3281   -3.6277    0.9060 O.2       1 RES1    0.0000
     10 O10       10.3560   -3.0015    0.5204 O.2       1 RES1    0.0000
     11 N1         6.0779    4.3698    4.8930 N.3       1 RES1    0.0000
     12 N2        -1.4019    4.6896    9.0458 N.pl3     1 RES1    0.0000
     13 N3         2.7925    3.6981    5.4299 N.am      1 RES1    0.0000
     14 N4         7.7782    2.4768    2.2557 N.am      1 RES1    0.0000
     15 N5         9.1880   -2.7945    0.8708 N.pl3     1 RES1    0.0000
     16 N6         2.1887   10.9451    3.8480 N.1       1 RES1    0.0000
     17 C1         4.6501    2.6693    4.3912 C.3       1 RES1    0.0000
     18 C2         4.2248    3.8637    3.5474 C.3       1 RES1    0.0000
     19 C3         5.4338    4.7807    3.6054 C.3       1 RES1    0.0000
     20 C4         6.5592    4.4660    2.5709 C.3       1 RES1    0.0000
     21 C5         7.8462    4.4960    3.4085 C.3       1 RES1    0.0000
     22 C6        -0.2620    4.4226    8.0672 C.ar      1 RES1    0.0000
     23 C7        -0.1469    3.1743    7.5965 C.ar      1 RES1    0.0000
     24 C8         0.8933    2.9539    6.7195 C.ar      1 RES1    0.0000
     25 C9         1.7292    3.9599    6.3401 C.ar      1 RES1    0.0000
     26 C10        1.5960    5.1853    6.8543 C.ar      1 RES1    0.0000
     27 C11        0.5658    5.4068    7.7645 C.ar      1 RES1    0.0000
     28 C12        3.7475    2.7117    5.5917 C.2       1 RES1    0.0000
     29 C13        3.0001    4.3729    4.2689 C.2       1 RES1    0.0000
     30 C14        8.5097    3.1774    3.1597 C.2       1 RES1    0.0000
     31 C15        6.5710    3.1029    1.9012 C.2       1 RES1    0.0000
     32 C16        8.1138    1.1416    1.8597 C.ar      1 RES1    0.0000
     33 C17        7.2817    0.1097    2.2081 C.ar      1 RES1    0.0000
     34 C18        7.5974   -1.1747    1.8286 C.ar      1 RES1    0.0000
     35 C19        8.8124   -1.4014    1.2315 C.ar      1 RES1    0.0000
     36 C20        9.6489   -0.3954    0.9164 C.ar      1 RES1    0.0000
     37 C21        9.3021    0.8839    1.2378 C.ar      1 RES1    0.0000
     38 C22        5.1812    6.2752    3.7485 C.3       1 RES1    0.0000
     39 C23        4.5501    6.9262    2.4838 C.3       1 RES1    0.0000
     40 C24        4.1007    8.3856    2.7492 C.3       1 RES1    0.0000
     41 C25        2.7401    8.4818    3.4189 C.3       1 RES1    0.0000
     42 C26        2.4179    9.8625    3.6656 C.1       1 RES1    0.0000
     43 H1         4.5734    1.7181    3.8978 H         1 RES1    0.0000
     44 H2         3.9603    3.7156    2.5087 H         1 RES1    0.0000
     45 H3         6.4354    5.1750    1.7623 H         1 RES1    0.0000
     46 H4         8.5341    5.2889    3.1721 H         1 RES1    0.0000
     47 H5        -0.8198    2.3909    7.8785 H         1 RES1    0.0000
     48 H6         1.0499    1.9665    6.3235 H         1 RES1    0.0000
     49 H7         2.2800    5.9823    6.5723 H         1 RES1    0.0000
     50 H8         0.4349    6.3756    8.2102 H         1 RES1    0.0000
     51 H9         6.3732    0.3002    2.7782 H         1 RES1    0.0000
     52 H10        6.8955   -1.9872    1.9904 H         1 RES1    0.0000
     53 H11       10.5826   -0.6003    0.4147 H         1 RES1    0.0000
     54 H12        9.9847    1.6974    0.9952 H         1 RES1    0.0000
     55 H13        4.5224    6.4273    4.5820 H         1 RES1    0.0000
     56 H14        6.1133    6.7585    3.9392 H         1 RES1    0.0000
     57 H15        3.6964    6.3445    2.1770 H         1 RES1    0.0000
     58 H16        5.2822    6.9242    1.6794 H         1 RES1    0.0000
     59 H17        4.0669    8.9113    1.8038 H         1 RES1    0.0000
     60 H18        4.8388    8.8596    3.3795 H         1 RES1    0.0000
     61 H19        2.7687    7.9488    4.3539 H         1 RES1    0.0000
     62 H20        1.9968    8.0523    2.7782 H         1 RES1    0.0000
@<TRIPOS>BOND
     1    1   11 1
     2    2   11 1
     3    3   12 2
     4    4   12 2
     5    5   28 2
     6    6   29 2
     7    7   30 2
     8    8   31 2
     9    9   15 2
    10   10   15 2
    11   11   19 1
    12   12   22 1
    13   13   25 1
    14   14   30 1
    15   15   35 1
    16   16   42 3
    17   17    1 1
    18   18   17 1
    19   19   18 1
    20   20   19 1
    21   21    2 1
    22   22   23 ar
    23   23   24 ar
    24   24   25 ar
    25   25   26 ar
    26   26   27 ar
    27   27   22 ar
    28   28   13 1
    29   29   13 1
    30   30   21 1
    31   31   14 1
    32   32   14 1
    33   33   32 ar
    34   34   33 ar
    35   35   34 ar
    36   36   35 ar
    37   37   32 ar
    38   38   19 1
    39   39   38 1
    40   40   39 1
    41   41   40 1
    42   42   41 1
    43   43   17 1
    44   44   18 1
    45   45   20 1
    46   46   21 1
    47   47   23 1
    48   48   24 1
    49   49   26 1
    50   50   27 1
    51   51   33 1
    52   52   34 1
    53   53   36 1
    54   54   37 1
    55   55   38 1
    56   56   38 1
    57   57   39 1
    58   58   39 1
    59   59   40 1
    60   60   40 1
    61   61   41 1
    62   62   41 1
    63   17   28 1
    64   18   29 1
    65   20   21 1
    66   20   31 1
    67   36   37 ar
@<TRIPOS>SUBSTRUCTURE
     1 RES1 1

@<TRIPOS>CRYSIN
  27.5240   10.3500   20.7450  90.0000  91.9580  90.0000  15 1

