# MOL2 file generated by ConQuest
# Please check atom types

@<TRIPOS>MOLECULE
GIGLEN10
    62    67     1
SMALL
NO_CHARGES
****
Generated from CSD

@<TRIPOS>ATOM
      1 O1         6.0083    2.8734    4.7520 O.3       1 RES1    0.0000
      2 O2         7.4389    4.6693    4.7706 O.3       1 RES1    0.0000
      3 O3        -2.1435    3.7636    9.3111 O.2       1 RES1    0.0000
      4 O4        -1.4589    5.8525    9.4936 O.2       1 RES1    0.0000
      5 O5         3.8591    1.9874    6.5868 O.2       1 RES1    0.0000
      6 O6         2.2641    5.2904    3.8936 O.2       1 RES1    0.0000
      7 O7         9.5025    2.7720    3.7444 O.2       1 RES1    0.0000
      8 O8         5.7045    2.5971    1.2419 O.2       1 RES1    0.0000
      9 O9         8.3253   -3.6229    0.9060 O.2       1 RES1    0.0000
     10 O10       10.3667   -3.0018    0.5287 O.2       1 RES1    0.0000
     11 N1         6.0666    4.3681    4.8971 N.3       1 RES1    0.0000
     12 N2        -1.4049    4.6859    9.0437 N.pl3     1 RES1    0.0000
     13 N3         2.7979    3.6974    5.4279 N.am      1 RES1    0.0000
     14 N4         7.7727    2.4791    2.2537 N.am      1 RES1    0.0000
     15 N5         9.2072   -2.7834    0.8729 N.pl3     1 RES1    0.0000
     16 N6         2.1803   10.9410    3.8480 N.1       1 RES1    0.0000
     17 C1         4.6470    2.6612    4.3954 C.3       1 RES1    0.0000
     18 C2         4.2217    3.8671    3.5536 C.3       1 RES1    0.0000
     19 C3         5.4255    4.7801    3.6034 C.3       1 RES1    0.0000
     20 C4         6.5537    4.4768    2.5667 C.3       1 RES1    0.0000
     21 C5         7.8379    4.4996    3.4043 C.3       1 RES1    0.0000
     22 C6        -0.2626    4.4240    8.0755 C.ar      1 RES1    0.0000
     23 C7        -0.1414    3.1550    7.5903 C.ar      1 RES1    0.0000
     24 C8         0.8872    2.9407    6.7299 C.ar      1 RES1    0.0000
     25 C9         1.7319    3.9634    6.3360 C.ar      1 RES1    0.0000
     26 C10        1.5792    5.1755    6.8564 C.ar      1 RES1    0.0000
     27 C11        0.5600    5.4084    7.7645 C.ar      1 RES1    0.0000
     28 C12        3.7500    2.7058    5.5937 C.2       1 RES1    0.0000
     29 C13        3.0000    4.3816    4.2647 C.2       1 RES1    0.0000
     30 C14        8.5204    3.1767    3.1659 C.2       1 RES1    0.0000
     31 C15        6.5626    3.1001    1.9054 C.2       1 RES1    0.0000
     32 C16        8.0998    1.1407    1.8639 C.ar      1 RES1    0.0000
     33 C17        7.2654    0.1004    2.1998 C.ar      1 RES1    0.0000
     34 C18        7.5920   -1.1821    1.8245 C.ar      1 RES1    0.0000
     35 C19        8.8041   -1.3901    1.2315 C.ar      1 RES1    0.0000
     36 C20        9.6574   -0.3892    0.9081 C.ar      1 RES1    0.0000
     37 C21        9.3077    0.8860    1.2336 C.ar      1 RES1    0.0000
     38 C22        5.1759    6.2727    3.7402 C.3       1 RES1    0.0000
     39 C23        4.5417    6.9290    2.4859 C.3       1 RES1    0.0000
     40 C24        4.1063    8.3781    2.7430 C.3       1 RES1    0.0000
     41 C25        2.7567    8.4713    3.4126 C.3       1 RES1    0.0000
     42 C26        2.4126    9.8614    3.6573 C.1       1 RES1    0.0000
     43 H1         4.5739    1.7183    3.8770 H         1 RES1    0.0000
     44 H2         3.9602    3.7160    2.5087 H         1 RES1    0.0000
     45 H3         6.4354    5.1962    1.7623 H         1 RES1    0.0000
     46 H4         8.5347    5.2894    3.1514 H         1 RES1    0.0000
     47 H5        -0.8201    2.3704    7.8785 H         1 RES1    0.0000
     48 H6         1.0490    1.9460    6.3443 H         1 RES1    0.0000
     49 H7         2.2522    5.9725    6.5723 H         1 RES1    0.0000
     50 H8         0.4339    6.3762    8.2309 H         1 RES1    0.0000
     51 H9         6.3738    0.2898    2.7575 H         1 RES1    0.0000
     52 H10        6.9230   -2.0081    1.9904 H         1 RES1    0.0000
     53 H11       10.5825   -0.6004    0.4147 H         1 RES1    0.0000
     54 H12        9.9572    1.7079    0.9952 H         1 RES1    0.0000
     55 H13        4.4948    6.4280    4.5820 H         1 RES1    0.0000
     56 H14        6.1131    6.7592    3.9392 H         1 RES1    0.0000
     57 H15        5.2547    6.9145    1.6794 H         1 RES1    0.0000
     58 H16        3.6681    6.3555    2.1977 H         1 RES1    0.0000
     59 H17        4.0669    8.9019    1.8038 H         1 RES1    0.0000
     60 H18        4.8387    8.8501    3.3795 H         1 RES1    0.0000
     61 H19        2.7685    7.9289    4.3539 H         1 RES1    0.0000
     62 H20        1.9975    8.0427    2.7575 H         1 RES1    0.0000
@<TRIPOS>BOND
     1    1   11 1
     2    2   11 1
     3    3   12 2
     4    4   12 2
     5    5   28 2
     6    6   29 2
     7    7   30 2
     8    8   31 2
     9    9   15 2
    10   10   15 2
    11   11   19 1
    12   12   22 1
    13   13   25 1
    14   14   30 1
    15   15   35 1
    16   16   42 3
    17   17    1 1
    18   18   17 1
    19   19   18 1
    20   20   19 1
    21   21    2 1
    22   22   23 ar
    23   23   24 ar
    24   24   25 ar
    25   25   26 ar
    26   26   27 ar
    27   27   22 ar
    28   28   13 1
    29   29   13 1
    30   30   21 1
    31   31   14 1
    32   32   14 1
    33   33   32 ar
    34   34   33 ar
    35   35   34 ar
    36   36   35 ar
    37   37   32 ar
    38   38   19 1
    39   39   38 1
    40   40   39 1
    41   41   40 1
    42   42   41 1
    43   43   17 1
    44   44   18 1
    45   45   20 1
    46   46   21 1
    47   47   23 1
    48   48   24 1
    49   49   26 1
    50   50   27 1
    51   51   33 1
    52   52   34 1
    53   53   36 1
    54   54   37 1
    55   55   38 1
    56   56   38 1
    57   57   39 1
    58   58   39 1
    59   59   40 1
    60   60   40 1
    61   61   41 1
    62   62   41 1
    63   17   28 1
    64   18   29 1
    65   20   21 1
    66   20   31 1
    67   36   37 ar
@<TRIPOS>SUBSTRUCTURE
     1 RES1 1

@<TRIPOS>CRYSIN
  27.5240   10.3510   20.7450  90.0000  91.9600  90.0000  15 1

