# MOL2 file generated by ConQuest
# Please check atom types

@<TRIPOS>MOLECULE
GIGQUI01
    30    30     1
SMALL
NO_CHARGES
****
Generated from CSD

@<TRIPOS>ATOM
      1 O1        14.5900    0.3817    2.1414 O.3       1 RES1    0.0000
      2 C1        13.3051    0.0530    2.0380 C.ar      1 RES1    0.0000
      3 C2        15.6239   -0.6160    2.0769 C.3       1 RES1    0.0000
      4 H1        16.4042   -0.2460    1.6354 H         1 RES1    0.0000
      5 H2        15.3029   -1.3824    1.5767 H         1 RES1    0.0000
      6 H3        15.8619   -0.8942    2.9756 H         1 RES1    0.0000
      7 O2        13.4208   -3.1414    3.3137 O.2       1 RES1    0.0000
      8 N1        13.4122   -1.9483    3.5279 N.pl3     1 RES1    0.0000
      9 C3        12.6835   -1.0655    2.6168 C.ar      1 RES1    0.0000
     10 O3        13.9239   -1.4231    4.4960 O.2       1 RES1    0.0000
     11 O4        10.7182   -2.3602    3.0845 O.3       1 RES1    0.0000
     12 C4        11.3162   -1.3067    2.4688 C.ar      1 RES1    0.0000
     13 C5        10.5681   -3.5531    2.2654 C.3       1 RES1    0.0000
     14 H4         9.9537   -4.1672    2.6978 H         1 RES1    0.0000
     15 H5        11.4309   -3.9827    2.1571 H         1 RES1    0.0000
     16 H6        10.2182   -3.3061    1.3948 H         1 RES1    0.0000
     17 N2         9.1045   -0.5895    1.6941 N.pl3     1 RES1    0.0000
     18 C6        10.5575   -0.3785    1.7801 C.ar      1 RES1    0.0000
     19 O5         8.4131   -0.0653    2.5076 O.2       1 RES1    0.0000
     20 O6         8.6738   -1.2831    0.8218 O.2       1 RES1    0.0000
     21 O7        10.3723    1.5661    0.4007 O.3       1 RES1    0.0000
     22 C7        11.1100    0.7513    1.1939 C.ar      1 RES1    0.0000
     23 C8         9.6227    2.6059    1.0566 C.3       1 RES1    0.0000
     24 H7         9.2324    3.1916    0.3894 H         1 RES1    0.0000
     25 H8        10.2128    3.1169    1.6304 H         1 RES1    0.0000
     26 H9         8.9179    2.2076    1.5899 H         1 RES1    0.0000
     27 N3        13.0873    2.0713    0.6292 N.pl3     1 RES1    0.0000
     28 C9        12.4815    0.9283    1.3228 C.ar      1 RES1    0.0000
     29 O8        12.7194    3.1847    0.9376 O.2       1 RES1    0.0000
     30 O9        13.9110    1.8404   -0.2166 O.2       1 RES1    0.0000
@<TRIPOS>BOND
     1    1    2 1
     2    2    9 ar
     3    3    1 1
     4    4    3 1
     5    5    3 1
     6    6    3 1
     7    7    8 2
     8    8    9 1
     9    9   12 ar
    10   10    8 2
    11   11   12 1
    12   12   18 ar
    13   13   11 1
    14   14   13 1
    15   15   13 1
    16   16   13 1
    17   17   18 1
    18   18   22 ar
    19   19   17 2
    20   20   17 2
    21   21   22 1
    22   22   28 ar
    23   23   21 1
    24   24   23 1
    25   25   23 1
    26   26   23 1
    27   27   28 1
    28   28    2 ar
    29   29   27 2
    30   30   27 2
@<TRIPOS>SUBSTRUCTURE
     1 RES1 1

@<TRIPOS>CRYSIN
  15.9046    9.4623    8.2880  90.0000  94.0000  90.0000  14 1

