# MOL2 file generated by ConQuest
# Please check atom types

@<TRIPOS>MOLECULE
GIGSUK
    28    29     1
SMALL
NO_CHARGES
****
Generated from CSD

@<TRIPOS>ATOM
      1 O1        11.6547    4.1796   -0.0492 O.2       1 RES1    0.0000
      2 O2        11.0071    5.7378   -1.3686 O.2       1 RES1    0.0000
      3 N1        10.7751    4.8674   -0.5360 N.pl3     1 RES1    0.0000
      4 C1         9.3919    4.6720   -0.1003 C.ar      1 RES1    0.0000
      5 C2         8.3992    5.0983   -0.9840 C.ar      1 RES1    0.0000
      6 C3         7.0909    4.9105   -0.6295 C.ar      1 RES1    0.0000
      7 C4         6.7767    4.3243    0.5748 C.ar      1 RES1    0.0000
      8 C5         7.7722    3.9030    1.4246 C.ar      1 RES1    0.0000
      9 C6         9.1173    4.0629    1.1206 C.ar      1 RES1    0.0000
     10 C7        10.1320    3.7228    2.1477 C.2       1 RES1    0.0000
     11 C8        10.3023    2.5682    2.7661 C.2       1 RES1    0.0000
     12 C9         9.6885    1.2562    2.5335 C.ar      1 RES1    0.0000
     13 C10        9.7032    0.2995    3.5427 C.ar      1 RES1    0.0000
     14 C11        9.2186   -0.9542    3.3514 C.ar      1 RES1    0.0000
     15 C12        8.7032   -1.3272    2.1360 C.ar      1 RES1    0.0000
     16 C13        8.6915   -0.4187    1.1089 C.ar      1 RES1    0.0000
     17 C14        9.1760    0.8578    1.2948 C.ar      1 RES1    0.0000
     18 H1         8.6342    5.4561   -1.7600 H         1 RES1    0.0000
     19 H2         6.4022    5.1262   -1.2554 H         1 RES1    0.0000
     20 H3         5.9177    4.2126    0.7938 H         1 RES1    0.0000
     21 H4         7.5623    3.6036    2.2584 H         1 RES1    0.0000
     22 H5        10.7046    4.4664    2.3569 H         1 RES1    0.0000
     23 H6        11.0130    2.5377    3.4892 H         1 RES1    0.0000
     24 H7        10.1173    0.5837    4.3507 H         1 RES1    0.0000
     25 H8         9.2656   -1.6241    3.9015 H         1 RES1    0.0000
     26 H9         8.3405   -2.1571    2.0123 H         1 RES1    0.0000
     27 H10        8.2965   -0.5583    0.3446 H         1 RES1    0.0000
     28 H11        9.1041    1.4719    0.6831 H         1 RES1    0.0000
@<TRIPOS>BOND
     1    1    3 2
     2    2    3 2
     3    3    4 1
     4    4    5 ar
     5    5    6 ar
     6    6    7 ar
     7    7    8 ar
     8    8    9 ar
     9    9    4 ar
    10   10    9 1
    11   11   10 2
    12   12   11 1
    13   13   12 ar
    14   14   13 ar
    15   15   14 ar
    16   16   15 ar
    17   17   12 ar
    18   18    5 1
    19   19    6 1
    20   20    7 1
    21   21    8 1
    22   22   10 1
    23   23   11 1
    24   24   13 1
    25   25   14 1
    26   26   15 1
    27   27   16 1
    28   28   17 1
    29   16   17 ar
@<TRIPOS>SUBSTRUCTURE
     1 RES1 1

@<TRIPOS>CRYSIN
  14.6840   25.3773    6.1538  90.0000  90.0000  90.0000  61 1

