# MOL2 file generated by ConQuest
# Please check atom types

@<TRIPOS>MOLECULE
GIHDAC
    37    40     1
SMALL
NO_CHARGES
****
Generated from CSD

@<TRIPOS>ATOM
      1 N1         1.5727    0.1650    1.0418 N.am      1 RES1    0.0000
      2 C1         1.1260    1.4388    0.9965 C.2       1 RES1    0.0000
      3 N2         1.9007    2.3607    1.6958 N.am      1 RES1    0.0000
      4 C2         2.7771    2.0469    2.8708 C.3       1 RES1    0.0000
      5 C3         3.2021    0.5988    2.7757 C.ar      1 RES1    0.0000
      6 C4         2.5925   -0.2769    1.8870 C.ar      1 RES1    0.0000
      7 C5         2.9591   -1.6200    1.8698 C.ar      1 RES1    0.0000
      8 C6         3.8887   -2.0861    2.7567 C.ar      1 RES1    0.0000
      9 C7         4.5080   -1.2404    3.6852 C.ar      1 RES1    0.0000
     10 C8         4.1571    0.0981    3.6662 C.ar      1 RES1    0.0000
     11 C9         5.4816   -1.7734    4.7080 C.3       1 RES1    0.0000
     12 O1         0.1513    1.7781    0.3397 O.2       1 RES1    0.0000
     13 N3         1.4114    3.6496    1.7276 N.3       1 RES1    0.0000
     14 C10        1.7672    4.5565    0.7899 C.ar      1 RES1    0.0000
     15 C11        1.3121    5.8926    0.8135 C.ar      1 RES1    0.0000
     16 C12        1.6130    6.7811   -0.1966 C.ar      1 RES1    0.0000
     17 C13        2.3988    6.3749   -1.2420 C.ar      1 RES1    0.0000
     18 C14        2.8973    5.0757   -1.2982 C.ar      1 RES1    0.0000
     19 C15        2.5940    4.1930   -0.3098 C.ar      1 RES1    0.0000
     20 N4         0.4813    6.3968    1.9051 N.pl3     1 RES1    0.0000
     21 O2         0.0785    7.5311    1.8399 O.2       1 RES1    0.0000
     22 O3         0.1766    5.6457    2.8264 O.2       1 RES1    0.0000
     23 N5         2.7356    7.3257   -2.3028 N.pl3     1 RES1    0.0000
     24 O4         2.4782    8.4980   -2.1198 O.2       1 RES1    0.0000
     25 O5         3.2450    6.8895   -3.3129 O.2       1 RES1    0.0000
     26 C16        3.9606    3.0277    2.8545 C.ar      1 RES1    0.0000
     27 C17        5.0642    2.7577    2.0781 C.ar      1 RES1    0.0000
     28 C18        6.1555    3.6253    2.0818 C.ar      1 RES1    0.0000
     29 C19        6.1206    4.7746    2.8183 C.ar      1 RES1    0.0000
     30 C20        5.0026    5.0815    3.5783 C.ar      1 RES1    0.0000
     31 C21        3.9227    4.2034    3.6010 C.ar      1 RES1    0.0000
     32 C22        0.9730    1.5138    4.4887 C.3       1 RES1    0.0000
     33 C23       -0.3258    2.2500    4.2188 C.3       1 RES1    0.0000
     34 C24        1.1833    1.2196    5.9509 C.3       1 RES1    0.0000
     35 O6         2.1032    2.3400    4.0874 O.3       1 RES1    0.0000
     36 H1         1.1739   -0.4754    0.5743 H         1 RES1    0.0000
     37 H2         0.8398    3.9346    2.4215 H         1 RES1    0.0000
@<TRIPOS>BOND
     1    1    2 1
     2    2    3 1
     3    3    4 1
     4    4    5 1
     5    5    6 ar
     6    6    1 1
     7    7    6 ar
     8    8    7 ar
     9    9    8 ar
    10   10    5 ar
    11   11    9 1
    12   12    2 2
    13   13    3 1
    14   14   13 1
    15   15   14 ar
    16   16   15 ar
    17   17   16 ar
    18   18   17 ar
    19   19   14 ar
    20   20   15 1
    21   21   20 2
    22   22   20 2
    23   23   17 1
    24   24   23 2
    25   25   23 2
    26   26    4 1
    27   27   26 ar
    28   28   27 ar
    29   29   28 ar
    30   30   29 ar
    31   31   26 ar
    32   32   33 1
    33   34   32 1
    34   35    4 1
    35   36    1 1
    36   37   13 1
    37    9   10 ar
    38   18   19 ar
    39   30   31 ar
    40   32   35 1
@<TRIPOS>SUBSTRUCTURE
     1 RES1 1

