# MOL2 file generated by ConQuest
# Please check atom types

@<TRIPOS>MOLECULE
GIHFEI
    29    31     1
SMALL
NO_CHARGES
****
Generated from CSD

@<TRIPOS>ATOM
      1 O1         7.0884    0.9471    1.7988 O.2       1 RES1    0.0000
      2 O2         8.2666    3.6087    6.2660 O.2       1 RES1    0.0000
      3 O3         6.6162    4.3746    7.4099 O.2       1 RES1    0.0000
      4 O4         1.4618    0.8074    4.5687 O.2       1 RES1    0.0000
      5 O5         0.2349    1.4536    2.9039 O.2       1 RES1    0.0000
      6 O6         1.6864   -1.9601   -0.5134 O.2       1 RES1    0.0000
      7 O7         3.5960   -1.5365   -1.4388 O.2       1 RES1    0.0000
      8 N1         7.0828    3.7668    6.4607 N.pl3     1 RES1    0.0000
      9 N2         1.4839    3.6900    5.0182 N.1       1 RES1    0.0000
     10 N3         1.2867    1.0514    3.3597 N.pl3     1 RES1    0.0000
     11 N4         2.7766   -1.4029   -0.5554 N.pl3     1 RES1    0.0000
     12 C1         6.6513    2.4958    4.4059 C.ar      1 RES1    0.0000
     13 C2         6.1393    3.1727    5.4947 C.ar      1 RES1    0.0000
     14 C3         4.7935    3.3677    5.6819 C.ar      1 RES1    0.0000
     15 C4         3.8700    2.8120    4.7897 C.ar      1 RES1    0.0000
     16 C5         2.3953    0.7552    2.4524 C.ar      1 RES1    0.0000
     17 C6         2.0889   -0.0660    1.3718 C.ar      1 RES1    0.0000
     18 C7         3.1115   -0.4943    0.5566 C.ar      1 RES1    0.0000
     19 C8         4.4220   -0.1136    0.7451 C.ar      1 RES1    0.0000
     20 C9         6.0093    1.1558    2.3091 C.2       1 RES1    0.0000
     21 C10        5.7358    1.9110    3.5600 C.ar      1 RES1    0.0000
     22 C11        4.3444    2.0031    3.7510 C.ar      1 RES1    0.0000
     23 C12        3.6885    1.1773    2.6985 C.ar      1 RES1    0.0000
     24 C13        4.6825    0.7015    1.8194 C.ar      1 RES1    0.0000
     25 C14        2.5090    3.2326    4.9318 C.1       1 RES1    0.0000
     26 H1         7.6003    2.4099    4.2888 H         1 RES1    0.0000
     27 H2         4.5231    3.8834    6.4488 H         1 RES1    0.0000
     28 H3         1.1700   -0.3837    1.2272 H         1 RES1    0.0000
     29 H4         5.0853   -0.3837    0.2442 H         1 RES1    0.0000
@<TRIPOS>BOND
     1    1   20 2
     2    2    8 2
     3    3    8 2
     4    4   10 2
     5    5   10 2
     6    6   11 2
     7    7   11 2
     8    8   13 1
     9    9   25 3
    10   10   16 1
    11   11   18 1
    12   12   13 ar
    13   13   14 ar
    14   14   15 ar
    15   15   22 ar
    16   16   17 ar
    17   17   18 ar
    18   18   19 ar
    19   19   24 ar
    20   20   21 1
    21   21   12 ar
    22   22   21 ar
    23   23   16 ar
    24   24   20 1
    25   25   15 1
    26   26   12 1
    27   27   14 1
    28   28   17 1
    29   29   19 1
    30   22   23 1
    31   23   24 ar
@<TRIPOS>SUBSTRUCTURE
     1 RES1 1

