# MOL2 file generated by ConQuest
# Please check atom types

@<TRIPOS>MOLECULE
GIHKAJ
    19    21     1
SMALL
NO_CHARGES
****
Generated from CSD

@<TRIPOS>ATOM
      1 N1         7.3915    5.7070   -0.8616 N.pl3     1 RES1    0.0000
      2 N2         9.0194    4.7315    0.3890 N.pl3     1 RES1    0.0000
      3 N3         8.3965    6.9760    0.7621 N.2       1 RES1    0.0000
      4 N4        10.1671    5.6334    2.3496 N.2       1 RES1    0.0000
      5 N5        11.4857    3.8223    2.6436 N.2       1 RES1    0.0000
      6 O1        10.6603    3.6471    1.4993 O.3       1 RES1    0.0000
      7 C1         6.4452    6.7510   -1.2528 C.3       1 RES1    0.0000
      8 C2         5.4249    6.0077   -2.0760 C.3       1 RES1    0.0000
      9 C3         6.2067    4.9026   -2.7182 C.3       1 RES1    0.0000
     10 C4         7.2499    4.4910   -1.6847 C.3       1 RES1    0.0000
     11 C5         8.2778    5.8180    0.1153 C.2       1 RES1    0.0000
     12 C6         9.8959    4.7616    1.3930 C.2       1 RES1    0.0000
     13 C7        11.1427    5.0010    3.0823 C.2       1 RES1    0.0000
     14 C8        11.7340    5.5754    4.2876 C.ar      1 RES1    0.0000
     15 C9        11.3681    6.8287    4.7218 C.ar      1 RES1    0.0000
     16 C10       11.9333    7.3834    5.8502 C.ar      1 RES1    0.0000
     17 C11       12.8675    6.6867    6.5603 C.ar      1 RES1    0.0000
     18 C12       13.2214    5.4188    6.1714 C.ar      1 RES1    0.0000
     19 C13       12.6639    4.8538    5.0316 C.ar      1 RES1    0.0000
@<TRIPOS>BOND
     1    1    7 1
     2    2   11 1
     3    3   11 2
     4    4   12 2
     5    5    6 1
     6    6   12 1
     7    7    8 1
     8    8    9 1
     9    9   10 1
    10   10    1 1
    11   11    1 1
    12   12    2 1
    13   13    4 1
    14   14   13 1
    15   15   14 ar
    16   16   15 ar
    17   17   16 ar
    18   18   17 ar
    19   19   14 ar
    20    5   13 2
    21   18   19 ar
@<TRIPOS>SUBSTRUCTURE
     1 RES1 1

@<TRIPOS>CRYSIN
  10.8890   10.3670   22.6140  90.0000  90.0000  90.0000  61 1

