# MOL2 file generated by ConQuest
# Please check atom types

@<TRIPOS>MOLECULE
GIHPOC
    42    43     1
SMALL
NO_CHARGES
****
Generated from CSD

@<TRIPOS>ATOM
      1 N1         5.6115    5.1744    1.6329 N.pl3     1 RES1    0.0000
      2 O1         6.8863    5.1744    1.6100 O.2       1 RES1    0.0000
      3 C1         4.8144    5.1868    0.3777 C.3       1 RES1    0.0000
      4 C2         5.6613    4.6618   -0.7475 C.3       1 RES1    0.0000
      5 C3         4.8362    4.6012   -2.0299 C.3       1 RES1    0.0000
      6 C4         4.3245    5.9842   -2.3619 C.3       1 RES1    0.0000
      7 C5         3.5380    6.5947   -1.2200 C.3       1 RES1    0.0000
      8 C6         4.3560    6.6070    0.0606 C.3       1 RES1    0.0000
      9 N2         6.1909    3.2849   -0.4374 N.pl3     1 RES1    0.0000
     10 O2         5.5222    2.5445    0.2495 O.2       1 RES1    0.0000
     11 O3         7.2840    2.9865   -0.9047 O.2       1 RES1    0.0000
     12 H1         4.0384    4.6321    0.4866 H         1 RES1    0.0000
     13 H2         6.4065    5.2562   -0.8608 H         1 RES1    0.0000
     14 H3         4.0931    4.0068   -1.9043 H         1 RES1    0.0000
     15 H4         5.3841    4.2817   -2.7501 H         1 RES1    0.0000
     16 H5         5.0727    6.5513   -2.5621 H         1 RES1    0.0000
     17 H6         3.7535    5.9248   -3.1313 H         1 RES1    0.0000
     18 H7         3.3047    7.4973   -1.4502 H         1 RES1    0.0000
     19 H8         2.7406    6.0820   -1.0786 H         1 RES1    0.0000
     20 H9         5.1221    7.1741   -0.0518 H         1 RES1    0.0000
     21 H10        3.8174    6.9389    0.7817 H         1 RES1    0.0000
     22 N1B        4.9573    5.1744    2.7589 N.pl3     1 RES1    0.0000
     23 O1B        3.6826    5.1744    2.7817 O.2       1 RES1    0.0000
     24 C1B        5.7545    5.1868    4.0141 C.3       1 RES1    0.0000
     25 C2B        4.9076    4.6618    5.1392 C.3       1 RES1    0.0000
     26 C6B        6.2129    6.6070    4.3311 C.3       1 RES1    0.0000
     27 H1B        6.5305    4.6321    3.9051 H         1 RES1    0.0000
     28 C3B        5.7327    4.6012    6.4216 C.3       1 RES1    0.0000
     29 N2B        4.3780    3.2849    4.8292 N.pl3     1 RES1    0.0000
     30 H2B        4.1624    5.2562    5.2525 H         1 RES1    0.0000
     31 C5B        7.0309    6.5947    5.6118 C.3       1 RES1    0.0000
     32 H9B        5.4468    7.1741    4.4436 H         1 RES1    0.0000
     33 H10B       6.7515    6.9389    3.6100 H         1 RES1    0.0000
     34 C4B        6.2444    5.9842    6.7536 C.3       1 RES1    0.0000
     35 H3B        6.4757    4.0068    6.2960 H         1 RES1    0.0000
     36 H4B        5.1848    4.2817    7.1419 H         1 RES1    0.0000
     37 O2B        5.0466    2.5445    4.1423 O.2       1 RES1    0.0000
     38 O3B        3.2848    2.9865    5.2965 O.2       1 RES1    0.0000
     39 H7B        7.2642    7.4973    5.8419 H         1 RES1    0.0000
     40 H8B        7.8283    6.0820    5.4704 H         1 RES1    0.0000
     41 H5B        5.4962    6.5513    6.9539 H         1 RES1    0.0000
     42 H6B        6.8154    5.9248    7.5231 H         1 RES1    0.0000
@<TRIPOS>BOND
     1    1    2 2
     2    3    1 1
     3    4    3 1
     4    5    4 1
     5    6    5 1
     6    7    6 1
     7    8    3 1
     8    9    4 1
     9   10    9 2
    10   11    9 2
    11   12    3 1
    12   13    4 1
    13   14    5 1
    14   15    5 1
    15   16    6 1
    16   17    6 1
    17   18    7 1
    18   19    7 1
    19   20    8 1
    20   21    8 1
    21   22    1 2
    22   23   22 2
    23   24   22 1
    24   25   24 1
    25   26   24 1
    26   27   24 1
    27   28   25 1
    28   29   25 1
    29   30   25 1
    30   31   26 1
    31   32   26 1
    32   33   26 1
    33   34   28 1
    34   35   28 1
    35   36   28 1
    36   37   29 2
    37   38   29 2
    38   39   31 1
    39   40   31 1
    40   41   34 1
    41   42   34 1
    42    7    8 1
    43   31   34 1
@<TRIPOS>SUBSTRUCTURE
     1 RES1 1

@<TRIPOS>CRYSIN
  14.4380   12.3820   11.7060  90.0000 131.3800  90.0000  15 1

