# MOL2 file generated by ConQuest
# Please check atom types

@<TRIPOS>MOLECULE
GIHPUI
    42    43     1
SMALL
NO_CHARGES
****
Generated from CSD

@<TRIPOS>ATOM
      1 C1        -1.8726    0.1820   -3.1058 C.ar      1 RES1    0.0000
      2 C2        -1.7379   -0.0783   -4.4630 C.ar      1 RES1    0.0000
      3 C3        -0.6667    0.3968   -5.1551 C.ar      1 RES1    0.0000
      4 C4         0.2799    1.1423   -4.5102 C.ar      1 RES1    0.0000
      5 C5         0.1486    1.4025   -3.1626 C.ar      1 RES1    0.0000
      6 C6        -0.9232    0.9078   -2.4548 C.ar      1 RES1    0.0000
      7 C7        -1.0956    1.1761   -0.9735 C.3       1 RES1    0.0000
      8 N1         0.0444    0.6103   -0.2211 N.pl3     1 RES1    0.0000
      9 O1         1.0916    1.2966   -0.0114 O.2       1 RES1    0.0000
     10 C8        -1.1985    2.6351   -0.7017 C.3       1 RES1    0.0000
     11 N2        -1.4569    2.9615    0.7332 N.pl3     1 RES1    0.0000
     12 O2        -1.6275    2.0546    1.5206 O.2       1 RES1    0.0000
     13 O3        -1.4906    4.1378    1.0347 O.2       1 RES1    0.0000
     14 H1        -2.6427   -0.1371   -2.6295 H         1 RES1    0.0000
     15 H2        -2.3981   -0.6080   -4.9157 H         1 RES1    0.0000
     16 H3        -0.5761    0.2135   -6.0928 H         1 RES1    0.0000
     17 H4         1.0365    1.4824   -4.9934 H         1 RES1    0.0000
     18 H5         0.8066    1.9391   -2.7152 H         1 RES1    0.0000
     19 H6        -1.9125    0.7596   -0.6886 H         1 RES1    0.0000
     20 H7        -0.3704    3.0464   -0.9604 H         1 RES1    0.0000
     21 H8        -1.9138    2.9959   -1.2313 H         1 RES1    0.0000
     22 N1A       -0.0444   -0.6103    0.2211 N.pl3     1 RES1    0.0000
     23 C7A        1.0956   -1.1761    0.9735 C.3       1 RES1    0.0000
     24 O1A       -1.0916   -1.2966    0.0114 O.2       1 RES1    0.0000
     25 C6A        0.9232   -0.9078    2.4548 C.ar      1 RES1    0.0000
     26 C8A        1.1985   -2.6351    0.7017 C.3       1 RES1    0.0000
     27 H6A        1.9125   -0.7596    0.6886 H         1 RES1    0.0000
     28 C1A        1.8726   -0.1820    3.1058 C.ar      1 RES1    0.0000
     29 C5A       -0.1486   -1.4025    3.1626 C.ar      1 RES1    0.0000
     30 N2A        1.4569   -2.9615   -0.7332 N.pl3     1 RES1    0.0000
     31 H7A        0.3704   -3.0464    0.9604 H         1 RES1    0.0000
     32 H8A        1.9138   -2.9959    1.2313 H         1 RES1    0.0000
     33 C2A        1.7379    0.0783    4.4630 C.ar      1 RES1    0.0000
     34 H1A        2.6427    0.1371    2.6295 H         1 RES1    0.0000
     35 C4A       -0.2799   -1.1423    4.5102 C.ar      1 RES1    0.0000
     36 H5A       -0.8066   -1.9391    2.7152 H         1 RES1    0.0000
     37 O2A        1.6275   -2.0546   -1.5206 O.2       1 RES1    0.0000
     38 O3A        1.4906   -4.1378   -1.0347 O.2       1 RES1    0.0000
     39 C3A        0.6667   -0.3968    5.1551 C.ar      1 RES1    0.0000
     40 H2A        2.3981    0.6080    4.9157 H         1 RES1    0.0000
     41 H4A       -1.0365   -1.4824    4.9934 H         1 RES1    0.0000
     42 H3A        0.5761   -0.2135    6.0928 H         1 RES1    0.0000
@<TRIPOS>BOND
     1    1    2 ar
     2    2    3 ar
     3    3    4 ar
     4    4    5 ar
     5    5    6 ar
     6    6    1 ar
     7    7    6 1
     8    8    7 1
     9    9    8 2
    10   10    7 1
    11   11   10 1
    12   12   11 2
    13   13   11 2
    14   14    1 1
    15   15    2 1
    16   16    3 1
    17   17    4 1
    18   18    5 1
    19   19    7 1
    20   20   10 1
    21   21   10 1
    22   22    8 2
    23   23   22 1
    24   24   22 2
    25   25   23 1
    26   26   23 1
    27   27   23 1
    28   28   25 ar
    29   29   25 ar
    30   30   26 1
    31   31   26 1
    32   32   26 1
    33   33   28 ar
    34   34   28 1
    35   35   29 ar
    36   36   29 1
    37   37   30 2
    38   38   30 2
    39   39   33 ar
    40   40   33 1
    41   41   35 1
    42   42   39 1
    43   35   39 ar
@<TRIPOS>SUBSTRUCTURE
     1 RES1 1

@<TRIPOS>CRYSIN
   5.4940    8.7420    9.5070  70.2000  78.2800  89.6000   2 1

