# MOL2 file generated by ConQuest
# Please check atom types

@<TRIPOS>MOLECULE
GIJBEJ
    70    74     2
SMALL
NO_CHARGES
****
Generated from CSD

@<TRIPOS>ATOM
      1 O1         4.0171    2.3014    6.1635 O.2       1 RES1    0.0000
      2 O2         0.8188    2.2344    6.7723 O.2       1 RES1    0.0000
      3 O3        -0.3716    5.2505    0.6936 O.2       1 RES1    0.0000
      4 O4         1.7563    5.6310    0.4642 O.2       1 RES1    0.0000
      5 N1         3.2771    3.4812    7.9714 N.am      1 RES1    0.0000
      6 N2         0.8054    5.1787    1.0769 N.pl3     1 RES1    0.0000
      7 C1         4.5112    3.6367    8.6614 C.ar      1 RES1    0.0000
      8 C2         5.8041    3.3097    8.2854 C.ar      1 RES1    0.0000
      9 H1         5.9852    2.9018    7.4692 H         1 RES1    0.0000
     10 C3         6.8152    3.6168    9.1788 C.ar      1 RES1    0.0000
     11 H2         7.6963    3.4262    8.9509 H         1 RES1    0.0000
     12 C4         6.5458    4.2015   10.4036 C.ar      1 RES1    0.0000
     13 H3         7.2451    4.3876   10.9869 H         1 RES1    0.0000
     14 C5         5.2584    4.5102   10.7693 C.ar      1 RES1    0.0000
     15 H4         5.0844    4.9016   11.5947 H         1 RES1    0.0000
     16 C6         4.2186    4.2294    9.8866 C.ar      1 RES1    0.0000
     17 C7         2.7901    4.4583    9.9521 C.2       1 RES1    0.0000
     18 C8         2.0673    5.0502   11.1203 C.3       1 RES1    0.0000
     19 H5         2.7002    5.2833   11.8035 H         1 RES1    0.0000
     20 H6         1.5953    5.8370   10.8391 H         1 RES1    0.0000
     21 H7         1.4428    4.4092   11.4680 H         1 RES1    0.0000
     22 C9         2.2625    4.0108    8.8085 C.2       1 RES1    0.0000
     23 H8         1.3583    4.0425    8.5925 H         1 RES1    0.0000
     24 C10        3.1077    2.8566    6.7721 C.2       1 RES1    0.0000
     25 C11        1.7090    2.8111    6.1620 C.2       1 RES1    0.0000
     26 C12        1.5243    3.3799    4.8102 C.ar      1 RES1    0.0000
     27 C13        0.2660    3.2746    4.2121 C.ar      1 RES1    0.0000
     28 H9        -0.4203    2.8202    4.6461 H         1 RES1    0.0000
     29 C14        0.0423    3.8465    2.9754 C.ar      1 RES1    0.0000
     30 H10       -0.7885    3.7768    2.5640 H         1 RES1    0.0000
     31 C15        1.0664    4.5166    2.3673 C.ar      1 RES1    0.0000
     32 C16        2.3273    4.6227    2.9168 C.ar      1 RES1    0.0000
     33 H11        3.0108    5.0632    2.4664 H         1 RES1    0.0000
     34 C17        2.5419    4.0539    4.1574 C.ar      1 RES1    0.0000
     35 H12        3.3789    4.1240    4.5574 H         1 RES1    0.0000
     36 O5        11.5198    5.6254    5.5071 O.2       2 RES2    0.0000
     37 O6         9.0243    5.9149    7.5405 O.2       2 RES2    0.0000
     38 O7        14.1300    2.2344   11.0325 O.2       2 RES2    0.0000
     39 O8        12.5503    2.6428   12.4662 O.2       2 RES2    0.0000
     40 N3         9.5486    4.6610    4.9046 N.am      2 RES2    0.0000
     41 N4        13.0365    2.7026   11.3448 N.pl3     2 RES2    0.0000
     42 C18        9.7830    4.5142    3.5188 C.ar      2 RES2    0.0000
     43 C19       10.8916    4.8309    2.7501 C.ar      2 RES2    0.0000
     44 H13       11.6467    5.2272    3.1224 H         2 RES2    0.0000
     45 C20       10.8214    4.5285    1.3966 C.ar      2 RES2    0.0000
     46 H14       11.5477    4.7204    0.8489 H         2 RES2    0.0000
     47 C21        9.6964    3.9494    0.8468 C.ar      2 RES2    0.0000
     48 H15        9.6798    3.7618   -0.0640 H         2 RES2    0.0000
     49 C22        8.6024    3.6447    1.6137 C.ar      2 RES2    0.0000
     50 H16        7.8478    3.2575    1.2318 H         2 RES2    0.0000
     51 C23        8.6428    3.9247    2.9629 C.ar      2 RES2    0.0000
     52 C24        7.6853    3.7101    4.0454 C.2       2 RES2    0.0000
     53 C25        6.3442    3.0855    3.8733 C.3       2 RES2    0.0000
     54 H17        6.2065    2.8720    2.9475 H         2 RES2    0.0000
     55 H18        6.2954    2.2823    4.3973 H         2 RES2    0.0000
     56 H19        5.6653    3.6988    4.1645 H         2 RES2    0.0000
     57 C26        8.2621    4.1504    5.1627 C.2       2 RES2    0.0000
     58 H20        7.8660    4.1240    6.0039 H         2 RES2    0.0000
     59 C27       10.4365    5.1795    5.8039 C.2       2 RES2    0.0000
     60 C28       10.0022    5.2505    7.2597 C.2       2 RES2    0.0000
     61 C29       10.8361    4.5924    8.2900 C.ar      2 RES2    0.0000
     62 C30       10.4513    4.7288    9.6398 C.ar      2 RES2    0.0000
     63 H21        9.7043    5.2355    9.8643 H         2 RES2    0.0000
     64 C31       11.1851    4.1066   10.6214 C.ar      2 RES2    0.0000
     65 H22       10.9393    4.1872   11.5148 H         2 RES2    0.0000
     66 C32       12.2754    3.3743   10.2728 C.ar      2 RES2    0.0000
     67 C33       12.6812    3.2243    8.9663 C.ar      2 RES2    0.0000
     68 H23       13.4322    2.7178    8.7583 H         2 RES2    0.0000
     69 C34       11.9517    3.8401    7.9731 C.ar      2 RES2    0.0000
     70 H24       12.2110    3.7494    7.0847 H         2 RES2    0.0000
@<TRIPOS>BOND
     1    1   24 2
     2    2   25 2
     3    3    6 2
     4    4    6 2
     5    5    7 1
     6    6   31 1
     7    7    8 ar
     8    8    9 1
     9   10    8 ar
    10   11   10 1
    11   12   10 ar
    12   13   12 1
    13   14   12 ar
    14   15   14 1
    15   16    7 ar
    16   17   16 1
    17   18   17 1
    18   19   18 1
    19   20   18 1
    20   21   18 1
    21   22    5 1
    22   23   22 1
    23   24    5 1
    24   25   24 1
    25   26   25 1
    26   27   26 ar
    27   28   27 1
    28   29   27 ar
    29   30   29 1
    30   31   29 ar
    31   32   31 ar
    32   33   32 1
    33   34   26 ar
    34   35   34 1
    35   36   59 2
    36   37   60 2
    37   38   41 2
    38   39   41 2
    39   40   42 1
    40   41   66 1
    41   42   43 ar
    42   43   44 1
    43   45   43 ar
    44   46   45 1
    45   47   45 ar
    46   48   47 1
    47   49   47 ar
    48   50   49 1
    49   51   42 ar
    50   52   51 1
    51   53   52 1
    52   54   53 1
    53   55   53 1
    54   56   53 1
    55   57   40 1
    56   58   57 1
    57   59   40 1
    58   60   59 1
    59   61   60 1
    60   62   61 ar
    61   63   62 1
    62   64   62 ar
    63   65   64 1
    64   66   64 ar
    65   67   66 ar
    66   68   67 1
    67   69   61 ar
    68   70   69 1
    69   14   16 ar
    70   17   22 2
    71   32   34 ar
    72   49   51 ar
    73   52   57 2
    74   67   69 ar
@<TRIPOS>SUBSTRUCTURE
     1 RES1 1
     2 RES2 36

@<TRIPOS>CRYSIN
  14.4570    7.9770   25.6130  90.0000  96.4240  90.0000 231 1

