# MOL2 file generated by ConQuest
# Please check atom types

@<TRIPOS>MOLECULE
GIJDAG
    90    95     1
SMALL
NO_CHARGES
****
Generated from CSD

@<TRIPOS>ATOM
      1 O1         5.9880    2.7293    9.4174 O.3       1 RES1    0.0000
      2 O2         3.4984    3.8392   10.2113 O.3       1 RES1    0.0000
      3 O3         1.4741    3.8016    8.1631 O.3       1 RES1    0.0000
      4 O4         2.4052    4.5037    5.6089 O.3       1 RES1    0.0000
      5 O5         4.7827    3.1275    4.8691 O.3       1 RES1    0.0000
      6 O6         6.8823    3.4890    6.8421 O.3       1 RES1    0.0000
      7 O7         7.1316    4.4574   10.3110 O.2       1 RES1    0.0000
      8 O8         9.9094   -0.4102   14.4537 O.2       1 RES1    0.0000
      9 O9         9.0649   -1.9200   13.1849 O.2       1 RES1    0.0000
     10 N1         9.2856   -0.7549   13.4714 N.pl3     1 RES1    0.0000
     11 C1         5.2062    3.5617    8.5295 C.3       1 RES1    0.0000
     12 H1         5.4539    4.5021    8.6513 H         1 RES1    0.0000
     13 C2         5.5273    3.1299    7.1303 C.3       1 RES1    0.0000
     14 H2         5.4348    2.1567    7.0682 H         1 RES1    0.0000
     15 C3         4.6058    3.7824    6.1163 C.3       1 RES1    0.0000
     16 H3         4.8475    4.7268    6.0229 H         1 RES1    0.0000
     17 C4         3.1353    3.6769    6.4955 C.3       1 RES1    0.0000
     18 H4         2.8433    2.7493    6.3730 H         1 RES1    0.0000
     19 C5         2.8424    4.0975    7.9201 C.3       1 RES1    0.0000
     20 H5         2.9872    5.0627    8.0094 H         1 RES1    0.0000
     21 C6         3.7458    3.3594    8.8986 C.3       1 RES1    0.0000
     22 H6         3.5378    2.4022    8.8644 H         1 RES1    0.0000
     23 C7         6.8929    3.2858   10.2189 C.2       1 RES1    0.0000
     24 C8         7.5889    2.2239   11.0219 C.ar      1 RES1    0.0000
     25 C9         8.3030    2.5877   12.1496 C.ar      1 RES1    0.0000
     26 H7         8.3958    3.4858   12.3705 H         1 RES1    0.0000
     27 C10        8.8763    1.6153   12.9490 C.ar      1 RES1    0.0000
     28 H8         9.3467    1.8520   13.7152 H         1 RES1    0.0000
     29 C11        8.7379    0.2943   12.5946 C.ar      1 RES1    0.0000
     30 C12        8.0646   -0.0944   11.4651 C.ar      1 RES1    0.0000
     31 H9         8.0000   -0.9916   11.2289 H         1 RES1    0.0000
     32 C13        7.4838    0.8884   10.6875 C.ar      1 RES1    0.0000
     33 H10        7.0150    0.6461    9.9223 H         1 RES1    0.0000
     34 C14        7.6887    2.4286    6.4085 C.3       1 RES1    0.0000
     35 H11        7.3580    2.0887    5.5612 H         1 RES1    0.0000
     36 H12        7.6616    1.7081    7.0555 H         1 RES1    0.0000
     37 C15        9.0971    2.9084    6.2444 C.ar      1 RES1    0.0000
     38 C16        9.6903    2.9308    5.0104 C.ar      1 RES1    0.0000
     39 H13        9.1972    2.6877    4.2597 H         1 RES1    0.0000
     40 C17       11.0203    3.3106    4.8584 C.ar      1 RES1    0.0000
     41 H14       11.4109    3.3234    4.0161 H         1 RES1    0.0000
     42 C18       11.7468    3.6633    5.9569 C.ar      1 RES1    0.0000
     43 H15       12.6432    3.8992    5.8656 H         1 RES1    0.0000
     44 C19       11.1619    3.6705    7.1849 C.ar      1 RES1    0.0000
     45 H16       11.6523    3.9320    7.9307 H         1 RES1    0.0000
     46 C20        9.8520    3.2938    7.3259 C.ar      1 RES1    0.0000
     47 H17        9.4663    3.2986    8.1718 H         1 RES1    0.0000
     48 C21        5.0201    3.9376    3.7556 C.3       1 RES1    0.0000
     49 H18        5.9687    4.1343    3.6863 H         1 RES1    0.0000
     50 H19        4.5412    4.7756    3.8461 H         1 RES1    0.0000
     51 C22        4.5537    3.2083    2.5218 C.ar      1 RES1    0.0000
     52 C23        3.8144    3.8296    1.5653 C.ar      1 RES1    0.0000
     53 H20        3.6020    4.7284    1.6770 H         1 RES1    0.0000
     54 C24        3.3786    3.1827    0.4643 C.ar      1 RES1    0.0000
     55 H21        2.9118    3.6529   -0.1903 H         1 RES1    0.0000
     56 C25        3.6173    1.8552    0.3070 C.ar      1 RES1    0.0000
     57 H22        3.2766    1.4066   -0.4338 H         1 RES1    0.0000
     58 C26        4.3625    1.1579    1.2406 C.ar      1 RES1    0.0000
     59 H23        4.5381    0.2511    1.1315 H         1 RES1    0.0000
     60 C27        4.8491    1.8648    2.3620 C.ar      1 RES1    0.0000
     61 H24        5.3704    1.4258    2.9962 H         1 RES1    0.0000
     62 C28        1.5143    3.8584    4.7389 C.3       1 RES1    0.0000
     63 H25        0.7452    3.5377    5.2339 H         1 RES1    0.0000
     64 H26        1.9509    3.0955    4.3282 H         1 RES1    0.0000
     65 C29        1.0699    4.8220    3.6762 C.ar      1 RES1    0.0000
     66 C30        1.4064    6.1327    3.7218 C.ar      1 RES1    0.0000
     67 H27        1.9213    6.4413    4.4322 H         1 RES1    0.0000
     68 C31        1.0019    7.0395    2.7298 C.ar      1 RES1    0.0000
     69 H28        1.2246    7.9415    2.7730 H         1 RES1    0.0000
     70 C32        0.2626    6.5333    1.7023 C.ar      1 RES1    0.0000
     71 H29        0.0067    7.1035    1.0148 H         1 RES1    0.0000
     72 C33       -0.1029    5.2778    1.6364 C.ar      1 RES1    0.0000
     73 H30       -0.6310    4.9915    0.9286 H         1 RES1    0.0000
     74 C34        0.2957    4.3422    2.6410 C.ar      1 RES1    0.0000
     75 H31        0.0458    3.4474    2.5979 H         1 RES1    0.0000
     76 C35        0.7849    4.6797    9.0592 C.3       1 RES1    0.0000
     77 H32        1.2570    4.6949    9.9071 H         1 RES1    0.0000
     78 H33       -0.1030    4.3238    9.2246 H         1 RES1    0.0000
     79 C36        0.6556    6.0783    8.5559 C.ar      1 RES1    0.0000
     80 C37        1.0326    7.1658    9.3172 C.ar      1 RES1    0.0000
     81 H34        1.4007    7.0219   10.1583 H         1 RES1    0.0000
     82 C38        0.8797    8.4653    8.8644 C.ar      1 RES1    0.0000
     83 H35        1.1371    9.1794    9.4022 H         1 RES1    0.0000
     84 C39        0.3574    8.6980    7.6390 C.ar      1 RES1    0.0000
     85 H36        0.2378    9.5689    7.3345 H         1 RES1    0.0000
     86 C40        0.0045    7.6313    6.8449 C.ar      1 RES1    0.0000
     87 H37       -0.3307    7.7824    5.9925 H         1 RES1    0.0000
     88 C41        0.1466    6.3382    7.3066 C.ar      1 RES1    0.0000
     89 H38       -0.1098    5.6289    6.7637 H         1 RES1    0.0000
     90 H39        3.6870    3.2547   10.7037 H         1 RES1    0.0000
@<TRIPOS>BOND
     1    1   11 1
     2    2   21 1
     3    3   19 1
     4    4   17 1
     5    5   15 1
     6    6   13 1
     7    7   23 2
     8    8   10 2
     9    9   10 2
    10   10   29 1
    11   11   12 1
    12   13   11 1
    13   14   13 1
    14   15   13 1
    15   16   15 1
    16   17   15 1
    17   18   17 1
    18   19   17 1
    19   20   19 1
    20   21   11 1
    21   22   21 1
    22   23    1 1
    23   24   23 1
    24   25   24 ar
    25   26   25 1
    26   27   25 ar
    27   28   27 1
    28   29   27 ar
    29   30   29 ar
    30   31   30 1
    31   32   24 ar
    32   33   32 1
    33   34    6 1
    34   35   34 1
    35   36   34 1
    36   37   34 1
    37   38   37 ar
    38   39   38 1
    39   40   38 ar
    40   41   40 1
    41   42   40 ar
    42   43   42 1
    43   44   42 ar
    44   45   44 1
    45   46   37 ar
    46   47   46 1
    47   48    5 1
    48   49   48 1
    49   50   48 1
    50   51   48 1
    51   52   51 ar
    52   53   52 1
    53   54   52 ar
    54   55   54 1
    55   56   54 ar
    56   57   56 1
    57   58   56 ar
    58   59   58 1
    59   60   51 ar
    60   61   60 1
    61   62    4 1
    62   63   62 1
    63   64   62 1
    64   65   62 1
    65   66   65 ar
    66   67   66 1
    67   68   66 ar
    68   69   68 1
    69   70   68 ar
    70   71   70 1
    71   72   70 ar
    72   73   72 1
    73   74   65 ar
    74   75   74 1
    75   76    3 1
    76   77   76 1
    77   78   76 1
    78   79   76 1
    79   80   79 ar
    80   81   80 1
    81   82   80 ar
    82   83   82 1
    83   84   82 ar
    84   85   84 1
    85   86   84 ar
    86   87   86 1
    87   88   79 ar
    88   89   88 1
    89   90    2 1
    90   19   21 1
    91   30   32 ar
    92   44   46 ar
    93   58   60 ar
    94   72   74 ar
    95   86   88 ar
@<TRIPOS>SUBSTRUCTURE
     1 RES1 1

@<TRIPOS>CRYSIN
  18.1440    7.9967   25.7750  90.0000 100.1670  90.0000  14 1

