# MOL2 file generated by ConQuest
# Please check atom types

@<TRIPOS>MOLECULE
GIJHAL
    94    96     2
SMALL
NO_CHARGES
****
Generated from CSD

@<TRIPOS>ATOM
      1 O1         4.0035   10.7240    2.8265 O.2       1 RES1    0.0000
      2 N1         5.5891    9.9950    0.9129 N.2       1 RES1    0.0000
      3 C1         4.9399   10.0772    3.1431 C.2       1 RES1    0.0000
      4 C2         6.5630    9.6377    0.1786 C.2       1 RES1    0.0000
      5 C3         5.2160    9.5555    4.5086 C.ar      1 RES1    0.0000
      6 C4         4.2266    9.6759    5.4582 C.ar      1 RES1    0.0000
      7 H1         3.4427   10.1320    5.2533 H         1 RES1    0.0000
      8 C5         6.3254    9.8834   -1.2722 C.ar      1 RES1    0.0000
      9 C6         6.3787    8.9184    4.8475 C.ar      1 RES1    0.0000
     10 H2         7.0623    8.8450    4.2225 H         1 RES1    0.0000
     11 C7         6.5927    8.8695   -2.1792 C.ar      1 RES1    0.0000
     12 H3         6.9393    8.0582   -1.8830 H         1 RES1    0.0000
     13 C8         6.5485    8.3851    6.1055 C.ar      1 RES1    0.0000
     14 H4         7.3412    7.9525    6.3267 H         1 RES1    0.0000
     15 C9         5.8312   11.0754   -1.7308 C.ar      1 RES1    0.0000
     16 H5         5.6513   11.7644   -1.1322 H         1 RES1    0.0000
     17 C10        5.5981   11.2555   -3.0842 C.ar      1 RES1    0.0000
     18 H6         5.2608   12.0628   -3.3987 H         1 RES1    0.0000
     19 C11        5.5334    8.4966    7.0369 C.ar      1 RES1    0.0000
     20 H7         5.6394    8.1385    7.8891 H         1 RES1    0.0000
     21 C12        5.8655   10.2474   -3.9486 C.ar      1 RES1    0.0000
     22 H8         5.7164   10.3766   -4.8576 H         1 RES1    0.0000
     23 C13        4.3865    9.1279    6.7041 C.ar      1 RES1    0.0000
     24 H9         3.6993    9.1925    7.3270 H         1 RES1    0.0000
     25 C14        6.3404    9.0701   -3.5266 C.ar      1 RES1    0.0000
     26 H10        6.4999    8.3870   -4.1373 H         1 RES1    0.0000
     27 O2         5.8945    9.6593    2.2801 O.3       1 RES1    0.0000
     28 N2         8.9794    9.4626   -0.0913 N.am      1 RES1    0.0000
     29 C15        9.8401    8.6229   -0.6716 C.2       1 RES1    0.0000
     30 C16        7.8251    9.0153    0.6554 C.3       1 RES1    0.0000
     31 H11        7.9513    9.2306    1.5928 H         1 RES1    0.0000
     32 H12        7.7526    8.0514    0.5783 H         1 RES1    0.0000
     33 O3         9.6897    7.4054   -0.5832 O.2       1 RES1    0.0000
     34 C17       11.0259    9.2590   -1.3798 C.3       1 RES1    0.0000
     35 C18       11.8289    8.1844   -2.0778 C.3       1 RES1    0.0000
     36 H13       12.1309    7.5415   -1.4325 H         1 RES1    0.0000
     37 H14       12.5870    8.5818   -2.5120 H         1 RES1    0.0000
     38 H15       11.2774    7.7470   -2.7312 H         1 RES1    0.0000
     39 C19       11.8910    9.9744   -0.3409 C.3       1 RES1    0.0000
     40 H16       11.3881   10.6888    0.0568 H         1 RES1    0.0000
     41 H17       12.6734   10.3316   -0.7670 H         1 RES1    0.0000
     42 H18       12.1545    9.3510    0.3409 H         1 RES1    0.0000
     43 C20       10.5189   10.2582   -2.4268 C.3       1 RES1    0.0000
     44 H19        9.9150    9.8139   -3.0254 H         1 RES1    0.0000
     45 H20       11.2625   10.6076   -2.9219 H         1 RES1    0.0000
     46 H21       10.0607   10.9775   -1.9865 H         1 RES1    0.0000
     47 H22        9.0743   10.3345   -0.1420 H         1 RES1    0.0000
     48 C21       -1.7103    3.4243   13.1952 C.2       2 RES2    0.0000
     49 C22       -1.5459    4.0966   14.4938 C.ar      2 RES2    0.0000
     50 C23       -1.9454    3.9948    8.6196 C.ar      2 RES2    0.0000
     51 C24       -1.5409    4.3785    9.9933 C.2       2 RES2    0.0000
     52 C25       -2.4117    2.7324    8.3335 C.ar      2 RES2    0.0000
     53 H23       -2.4527    2.0953    9.0091 H         2 RES2    0.0000
     54 C26       -1.6793    3.9860   16.8861 C.ar      2 RES2    0.0000
     55 H24       -1.8153    3.4938   17.6632 H         2 RES2    0.0000
     56 C27       -1.2327    5.4296   14.6115 C.ar      2 RES2    0.0000
     57 H25       -1.0546    5.9267   13.8465 H         2 RES2    0.0000
     58 C28       -1.7450    3.3656   15.6524 C.ar      2 RES2    0.0000
     59 H26       -1.9236    2.4545   15.5996 H         2 RES2    0.0000
     60 C29       -1.8899    4.9334    7.6131 C.ar      2 RES2    0.0000
     61 H27       -1.5903    5.7965    7.7856 H         2 RES2    0.0000
     62 C30       -1.4154    5.3121   16.9611 C.ar      2 RES2    0.0000
     63 H28       -1.3965    5.7320   17.7910 H         2 RES2    0.0000
     64 C31       -2.8144    2.4016    7.0754 C.ar      2 RES2    0.0000
     65 H29       -3.1281    1.5433    6.9009 H         2 RES2    0.0000
     66 C32       -2.2871    4.5674    6.3389 C.ar      2 RES2    0.0000
     67 H30       -2.2276    5.1898    5.6490 H         2 RES2    0.0000
     68 C33       -2.7605    3.3245    6.0649 C.ar      2 RES2    0.0000
     69 H31       -3.0424    3.1043    5.2066 H         2 RES2    0.0000
     70 C34       -1.1798    6.0363   15.8350 C.ar      2 RES2    0.0000
     71 H32       -0.9816    6.9425   15.8959 H         2 RES2    0.0000
     72 O4        -1.7860    2.2392   13.0566 O.2       2 RES2    0.0000
     73 C35       -0.4638    5.4168   10.1820 C.3       2 RES2    0.0000
     74 H33       -0.8122    6.2868    9.9304 H         2 RES2    0.0000
     75 H34       -0.2154    5.4550   11.1174 H         2 RES2    0.0000
     76 O5        -1.7417    4.3168   12.2074 O.3       2 RES2    0.0000
     77 N3        -2.1493    3.7786   10.9313 N.2       2 RES2    0.0000
     78 N4         0.7113    5.1291    9.3892 N.am      2 RES2    0.0000
     79 O6         1.1671    3.3098   10.5979 O.2       2 RES2    0.0000
     80 C36        1.4592    4.0506    9.6625 C.2       2 RES2    0.0000
     81 C37        2.6696    3.8197    8.7717 C.3       2 RES2    0.0000
     82 C38        3.6231    4.9500    8.8590 C.3       2 RES2    0.0000
     83 H35        3.2040    5.7486    8.5303 H         2 RES2    0.0000
     84 H36        4.4001    4.7543    8.3314 H         2 RES2    0.0000
     85 H37        3.8827    5.0782    9.7741 H         2 RES2    0.0000
     86 C39        2.2086    3.6866    7.3453 C.3       2 RES2    0.0000
     87 H38        1.9871    4.5546    6.9983 H         2 RES2    0.0000
     88 H39        1.4328    3.1219    7.3108 H         2 RES2    0.0000
     89 H40        2.9100    3.3000    6.8157 H         2 RES2    0.0000
     90 C40        3.2948    2.4877    9.1309 C.3       2 RES2    0.0000
     91 H41        3.9173    2.2313    8.4471 H         2 RES2    0.0000
     92 H42        2.6083    1.8213    9.2039 H         2 RES2    0.0000
     93 H43        3.7564    2.5660    9.9689 H         2 RES2    0.0000
     94 H44        0.9448    5.6860    8.7981 H         2 RES2    0.0000
@<TRIPOS>BOND
     1    1    3 2
     2    2    4 2
     3    3    5 1
     4    4    8 1
     5    5    6 ar
     6    6    7 1
     7    8   11 ar
     8    9    5 ar
     9   10    9 1
    10   11   12 1
    11   13    9 ar
    12   14   13 1
    13   15    8 ar
    14   16   15 1
    15   17   15 ar
    16   18   17 1
    17   19   13 ar
    18   20   19 1
    19   21   17 ar
    20   22   21 1
    21   23    6 ar
    22   24   23 1
    23   25   11 ar
    24   26   25 1
    25   27    2 1
    26   28   29 1
    27   29   33 2
    28   30    4 1
    29   31   30 1
    30   32   30 1
    31   34   29 1
    32   35   34 1
    33   36   35 1
    34   37   35 1
    35   38   35 1
    36   39   34 1
    37   40   39 1
    38   41   39 1
    39   42   39 1
    40   43   34 1
    41   44   43 1
    42   45   43 1
    43   46   43 1
    44   47   28 1
    45   48   49 1
    46   49   56 ar
    47   50   51 1
    48   51   73 1
    49   52   50 ar
    50   53   52 1
    51   54   55 1
    52   56   57 1
    53   58   49 ar
    54   59   58 1
    55   60   50 ar
    56   61   60 1
    57   62   54 ar
    58   63   62 1
    59   64   52 ar
    60   65   64 1
    61   66   60 ar
    62   67   66 1
    63   68   64 ar
    64   69   68 1
    65   70   56 ar
    66   71   70 1
    67   72   48 2
    68   73   74 1
    69   75   73 1
    70   76   48 1
    71   77   51 2
    72   78   73 1
    73   79   80 2
    74   80   78 1
    75   81   80 1
    76   82   81 1
    77   83   82 1
    78   84   82 1
    79   85   82 1
    80   86   81 1
    81   87   86 1
    82   88   86 1
    83   89   86 1
    84   90   81 1
    85   91   90 1
    86   92   90 1
    87   93   90 1
    88   94   78 1
    89    3   27 1
    90   19   23 ar
    91   21   25 ar
    92   28   30 1
    93   54   58 ar
    94   62   70 ar
    95   66   68 ar
    96   76   77 1
@<TRIPOS>SUBSTRUCTURE
     1 RES1 1
     2 RES2 48

@<TRIPOS>CRYSIN
   9.4660    9.7865   20.3080  90.0000  92.3530  90.0000   4 1

