# MOL2 file generated by ConQuest
# Please check atom types

@<TRIPOS>MOLECULE
GIJHEP
    47    48     1
SMALL
NO_CHARGES
****
Generated from CSD

@<TRIPOS>ATOM
      1 O1         2.3261    8.8051    6.8330 O.3       1 RES1    0.0000
      2 O2         0.3591    5.1053    7.7452 O.2       1 RES1    0.0000
      3 N1         0.8856    5.6734    9.8396 N.am      1 RES1    0.0000
      4 C1         1.8813    7.5170    8.5864 C.2       1 RES1    0.0000
      5 C2         0.8323    8.4703    8.9966 C.ar      1 RES1    0.0000
      6 C3         0.0498    5.1674    8.9359 C.2       1 RES1    0.0000
      7 C4        -1.2783    4.6607    9.4019 C.ar      1 RES1    0.0000
      8 N2         2.6304    7.5886    7.5554 N.2       1 RES1    0.0000
      9 C5         2.1275    6.2940    9.4381 C.3       1 RES1    0.0000
     10 H1         2.6585    5.6552    8.9369 H         1 RES1    0.0000
     11 H2         2.6300    6.5488   10.2273 H         1 RES1    0.0000
     12 C6         3.2176    9.1130    5.8988 C.2       1 RES1    0.0000
     13 C7         2.7846   10.3150    5.0921 C.3       1 RES1    0.0000
     14 C8        -0.1948    8.8162    8.1379 C.ar      1 RES1    0.0000
     15 H3        -0.2162    8.4712    7.2744 H         1 RES1    0.0000
     16 C9         0.8194    8.9847   10.2703 C.ar      1 RES1    0.0000
     17 H4         1.4919    8.7442   10.8656 H         1 RES1    0.0000
     18 O3         4.1992    8.4973    5.7324 O.2       1 RES1    0.0000
     19 C10       -1.1985    9.6820    8.5697 C.ar      1 RES1    0.0000
     20 H5        -1.8958    9.9107    7.9979 H         1 RES1    0.0000
     21 C11       -1.9880    3.8157    8.5736 C.ar      1 RES1    0.0000
     22 H6        -1.6377    3.5695    7.7483 H         1 RES1    0.0000
     23 C12       -3.2285    3.3306    8.9711 C.ar      1 RES1    0.0000
     24 H7        -3.7012    2.7600    8.4091 H         1 RES1    0.0000
     25 C13       -0.1643    9.8451   10.6835 C.ar      1 RES1    0.0000
     26 H8        -0.1509   10.1883   11.5480 H         1 RES1    0.0000
     27 C14       -1.8393    5.0230   10.6169 C.ar      1 RES1    0.0000
     28 H9        -1.3846    5.6039   11.1828 H         1 RES1    0.0000
     29 C15       -3.7531    3.6768   10.1636 C.ar      1 RES1    0.0000
     30 H10       -4.5812    3.3409   10.4250 H         1 RES1    0.0000
     31 C16       -1.1533   10.1944    9.8356 C.ar      1 RES1    0.0000
     32 H11       -1.8120   10.7902   10.1147 H         1 RES1    0.0000
     33 C17       -3.0692    4.5237   10.9870 C.ar      1 RES1    0.0000
     34 H12       -3.4363    4.7640   11.8065 H         1 RES1    0.0000
     35 C18        1.9092    9.8243    4.0181 C.3       1 RES1    0.0000
     36 H13        1.6595   10.5569    3.4492 H         1 RES1    0.0000
     37 H14        1.1197    9.4347    4.4019 H         1 RES1    0.0000
     38 H15        2.3752    9.1641    3.5021 H         1 RES1    0.0000
     39 C19        4.0096   10.9932    4.5468 C.3       1 RES1    0.0000
     40 H16        4.5460   10.3516    4.0748 H         1 RES1    0.0000
     41 H17        4.5192   11.3641    5.2713 H         1 RES1    0.0000
     42 H18        3.7481   11.6954    3.9476 H         1 RES1    0.0000
     43 C20        2.0065   11.2918    5.9194 C.3       1 RES1    0.0000
     44 H19        1.6394   11.9731    5.3496 H         1 RES1    0.0000
     45 H20        2.5881   11.6954    6.5675 H         1 RES1    0.0000
     46 H21        1.2941   10.8322    6.3698 H         1 RES1    0.0000
     47 H22        0.6537    5.7346   10.6522 H         1 RES1    0.0000
@<TRIPOS>BOND
     1    1    8 1
     2    2    6 2
     3    3    6 1
     4    4    5 1
     5    5   14 ar
     6    6    7 1
     7    7   21 ar
     8    8    4 2
     9    9    3 1
    10   10    9 1
    11   11    9 1
    12   12    1 1
    13   13   12 1
    14   14   15 1
    15   16    5 ar
    16   17   16 1
    17   18   12 2
    18   19   14 ar
    19   20   19 1
    20   21   22 1
    21   23   21 ar
    22   24   23 1
    23   25   16 ar
    24   26   25 1
    25   27    7 ar
    26   28   27 1
    27   29   23 ar
    28   30   29 1
    29   31   19 ar
    30   32   31 1
    31   33   27 ar
    32   34   33 1
    33   35   13 1
    34   36   35 1
    35   37   35 1
    36   38   35 1
    37   39   13 1
    38   40   39 1
    39   41   39 1
    40   42   39 1
    41   43   13 1
    42   44   43 1
    43   45   43 1
    44   46   43 1
    45   47    3 1
    46    4    9 1
    47   25   31 ar
    48   29   33 ar
@<TRIPOS>SUBSTRUCTURE
     1 RES1 1

@<TRIPOS>CRYSIN
  16.7625   23.3302    9.7906  90.0000  90.0000  90.0000  56 1

