# MOL2 file generated by ConQuest
# Please check atom types

@<TRIPOS>MOLECULE
GIJLOA
    38    40     1
SMALL
NO_CHARGES
****
Generated from CSD

@<TRIPOS>ATOM
      1 O1         7.9891    7.6327    4.4118 O.3       1 RES1    0.0000
      2 N1         9.4311    7.4338    4.8516 N.3       1 RES1    0.0000
      3 C1         8.7002    8.6689    5.0976 C.3       1 RES1    0.0000
      4 C2         8.2769    8.8093    6.5460 C.ar      1 RES1    0.0000
      5 C3         8.1556    7.6726    7.3268 C.ar      1 RES1    0.0000
      6 C4         7.6857    7.7645    8.6346 C.ar      1 RES1    0.0000
      7 C5         7.3386    8.9822    9.1570 C.ar      1 RES1    0.0000
      8 C6         7.4585   10.1189    8.3962 C.ar      1 RES1    0.0000
      9 C7         7.9312   10.0357    7.0846 C.ar      1 RES1    0.0000
     10 C8         8.8907    9.9428    4.3425 C.ar      1 RES1    0.0000
     11 C9         9.9377   10.7953    4.6550 C.ar      1 RES1    0.0000
     12 C10       10.0872   11.9892    3.9787 C.ar      1 RES1    0.0000
     13 C11        9.2011   12.3415    2.9976 C.ar      1 RES1    0.0000
     14 C12        8.1513   11.5138    2.6917 C.ar      1 RES1    0.0000
     15 C13        7.9778   10.3091    3.3623 C.ar      1 RES1    0.0000
     16 C14       10.3455    7.1918    3.6957 C.3       1 RES1    0.0000
     17 C15       11.7311    7.4414    4.2637 C.3       1 RES1    0.0000
     18 C16       10.1465    5.6899    3.4098 C.3       1 RES1    0.0000
     19 C17       10.1338    7.9633    2.4087 C.3       1 RES1    0.0000
     20 H1         8.4237    6.8072    6.9525 H         1 RES1    0.0000
     21 H2         7.5912    6.9368    9.1561 H         1 RES1    0.0000
     22 H3         6.9562    9.0114   10.0679 H         1 RES1    0.0000
     23 H4         7.2102   11.0535    8.7287 H         1 RES1    0.0000
     24 H5         8.0427   10.7942    6.5726 H         1 RES1    0.0000
     25 H6        10.6107   10.5565    5.3949 H         1 RES1    0.0000
     26 H7        10.8506   12.5338    4.2076 H         1 RES1    0.0000
     27 H8         9.3126   13.2469    2.4410 H         1 RES1    0.0000
     28 H9         7.6053   11.7126    2.1276 H         1 RES1    0.0000
     29 H10        7.2243    9.7137    3.1628 H         1 RES1    0.0000
     30 H11       11.8665    8.3199    4.4451 H         1 RES1    0.0000
     31 H12       12.5579    7.1313    3.5048 H         1 RES1    0.0000
     32 H13       11.8665    7.0232    5.1479 H         1 RES1    0.0000
     33 H14        9.1997    5.4457    3.1058 H         1 RES1    0.0000
     34 H15       10.1169    5.1000    4.3216 H         1 RES1    0.0000
     35 H16       10.7236    5.4349    2.7069 H         1 RES1    0.0000
     36 H17        9.1997    7.8552    2.0706 H         1 RES1    0.0000
     37 H18       10.7942    7.5635    1.6906 H         1 RES1    0.0000
     38 H19       10.5119    8.9141    2.4980 H         1 RES1    0.0000
@<TRIPOS>BOND
     1    1    2 1
     2    2    3 1
     3    3    1 1
     4    4    3 1
     5    5    4 ar
     6    6    5 ar
     7    7    6 ar
     8    8    7 ar
     9    9    4 ar
    10   10    3 1
    11   11   10 ar
    12   12   11 ar
    13   13   12 ar
    14   14   13 ar
    15   15   10 ar
    16   16    2 1
    17   17   16 1
    18   18   16 1
    19   19   16 1
    20   20    5 1
    21   21    6 1
    22   22    7 1
    23   23    8 1
    24   24    9 1
    25   25   11 1
    26   26   12 1
    27   27   13 1
    28   28   14 1
    29   29   15 1
    30   30   17 1
    31   31   17 1
    32   32   17 1
    33   33   18 1
    34   34   18 1
    35   35   18 1
    36   36   19 1
    37   37   19 1
    38   38   19 1
    39    8    9 ar
    40   14   15 ar
@<TRIPOS>SUBSTRUCTURE
     1 RES1 1

@<TRIPOS>CRYSIN
  14.1100   10.8050    9.4980  90.0000  90.0000  90.0000  19 1

