# MOL2 file generated by ConQuest
# Please check atom types

@<TRIPOS>MOLECULE
GIJMER
    42    34     2
SMALL
NO_CHARGES
****
Generated from CSD

@<TRIPOS>ATOM
      1 N1        -0.1472    1.8830    9.0688 N.ar      1 RES1    0.0000
      2 C1        -0.6481    2.2778    7.9124 C.ar      1 RES1    0.0000
      3 N2        -0.0123    2.6887    6.8200 N.ar      1 RES1    0.0000
      4 C2         1.3418    2.7042    6.8651 C.ar      1 RES1    0.0000
      5 C3         2.0129    2.2493    8.0520 C.ar      1 RES1    0.0000
      6 C4         1.2158    1.8799    9.1720 C.ar      1 RES1    0.0000
      7 N3         1.9806    3.1786    5.7889 N.3       1 RES1    0.0000
      8 N4         3.4301    2.2370    8.1315 N.pl3     1 RES1    0.0000
      9 O1         4.1154    2.5934    7.1567 O.2       1 RES1    0.0000
     10 O2         3.9834    1.8592    9.1792 O.2       1 RES1    0.0000
     11 N5         1.6770    1.5358   10.3621 N.3       1 RES1    0.0000
     12 C5         1.3253    3.8506    4.6901 C.3       1 RES1    0.0000
     13 C6         2.2041    4.9561    4.1098 C.3       1 RES1    0.0000
     14 C7         1.5140    5.1538    2.7413 C.3       1 RES1    0.0000
     15 C8         0.9435    3.7566    2.4406 C.3       1 RES1    0.0000
     16 C9         1.5229    3.1105    1.1987 C.3       1 RES1    0.0000
     17 O3         1.1250    2.9505    3.6168 O.3       1 RES1    0.0000
     18 O4         2.1257    6.1621    4.8078 O.3       1 RES1    0.0000
     19 O5         0.3971    6.0455    2.7075 O.3       1 RES1    0.0000
     20 O6         1.1787    1.6693    1.1857 O.3       1 RES1    0.0000
     21 C10        1.7803    5.0345    2.6257 Du        2 SUP2    0.0000
     22 C11        1.5209    2.9097    1.3266 Du        2 SUP2    0.0000
     23 O7         1.0564    6.2665    2.5709 Du        2 SUP2    0.0000
     24 O8         0.5137    1.9208    0.8758 Du        2 SUP2    0.0000
     25 H1        -1.5581    2.3264    7.9078 H         1 RES1    0.0000
     26 H2         2.8760    3.0328    5.7856 H         1 RES1    0.0000
     27 H3         2.5128    1.5942   10.5134 H         1 RES1    0.0000
     28 H4         1.0599    1.5358   11.0163 H         1 RES1    0.0000
     29 H5         0.5480    4.2252    4.9055 H         1 RES1    0.0000
     30 H6         3.1499    4.5881    4.0168 H         1 RES1    0.0000
     31 H7         2.1822    5.5452    2.1092 H         1 RES1    0.0000
     32 H8        -0.1287    3.9659    2.3736 H         1 RES1    0.0000
     33 H9         2.5106    3.2207    1.1966 H         1 RES1    0.0000
     34 H10        1.1363    3.5512    0.3859 H         1 RES1    0.0000
     35 H11        2.8750    6.1692    5.3542 H         1 RES1    0.0000
     36 H12        0.4254    6.4803    1.9293 H         1 RES1    0.0000
     37 H13        1.3006    1.3738    0.3252 H         1 RES1    0.0000
     38 H14        2.4753    5.0527    1.9071 Du        2 SUP2    0.0000
     39 H15        2.3315    2.4301    1.6626 Du        2 SUP2    0.0000
     40 H16        1.7783    3.4994    0.5593 Du        2 SUP2    0.0000
     41 H17        1.1685    6.6682    3.4033 Du        2 SUP2    0.0000
     42 H18        0.6980    1.1081    1.2356 Du        2 SUP2    0.0000
@<TRIPOS>BOND
     1    1    2 ar
     2    2    3 ar
     3    3    4 ar
     4    4    5 ar
     5    5    6 ar
     6    6    1 ar
     7    7    4 1
     8    8    5 1
     9    9    8 2
    10   10    8 2
    11   11    6 1
    12   12    7 1
    13   13   12 1
    14   14   13 1
    15   15   14 1
    16   16   15 1
    17   17   12 1
    18   18   13 1
    19   19   14 1
    20   20   16 1
    21   25    2 1
    22   26    7 1
    23   27   11 1
    24   28   11 1
    25   29   12 1
    26   30   13 1
    27   31   14 1
    28   32   15 1
    29   33   16 1
    30   34   16 1
    31   35   18 1
    32   36   19 1
    33   37   20 1
    34   15   17 1
@<TRIPOS>SUBSTRUCTURE
     1 RES1 1
     2 SUP2 21

@<TRIPOS>CRYSIN
   8.1620    6.4803   21.6800  90.0000  90.9400  90.0000   5 1

