# MOL2 file generated by ConQuest
# Please check atom types

@<TRIPOS>MOLECULE
GIJXIJ
    53    57     1
SMALL
NO_CHARGES
****
Generated from CSD

@<TRIPOS>ATOM
      1 N1         2.8759    7.9635    1.7911 N.3       1 RES1    0.0000
      2 N2         1.8357    8.1894    0.9862 N.2       1 RES1    0.0000
      3 N3         6.8918    2.7034    8.5717 N.3       1 RES1    0.0000
      4 N4         7.9126    3.5715    8.4718 N.2       1 RES1    0.0000
      5 O1        -0.1365    5.7572    8.8665 O.2       1 RES1    0.0000
      6 O2         1.5503    5.5309    7.4250 O.3       1 RES1    0.0000
      7 O3         4.6272    5.3343    5.3282 O.3       1 RES1    0.0000
      8 O4         2.1037    8.8947    0.0062 O.2       1 RES1    0.0000
      9 O5         8.9583    3.1757    8.9914 O.2       1 RES1    0.0000
     10 C1         0.3484    5.1527    7.9393 C.2       1 RES1    0.0000
     11 C2        -0.1313    3.9899    7.1942 C.ar      1 RES1    0.0000
     12 C3        -1.3209    3.2888    7.3183 C.ar      1 RES1    0.0000
     13 H1        -1.9695    3.5293    7.9697 H         1 RES1    0.0000
     14 C4        -1.5240    2.2331    6.4630 C.ar      1 RES1    0.0000
     15 H2        -2.3300    1.7331    6.5196 H         1 RES1    0.0000
     16 C5        -0.5695    1.8857    5.5172 C.ar      1 RES1    0.0000
     17 H3        -0.7382    1.1512    4.9388 H         1 RES1    0.0000
     18 C6         0.6237    2.5823    5.3947 C.ar      1 RES1    0.0000
     19 H4         1.2769    2.3374    4.7505 H         1 RES1    0.0000
     20 C7         0.8200    3.6472    6.2498 C.ar      1 RES1    0.0000
     21 C8         1.9860    4.5984    6.3355 C.3       1 RES1    0.0000
     22 C9         2.2057    5.4336    5.1063 C.ar      1 RES1    0.0000
     23 C10        3.4836    5.7665    4.6904 C.ar      1 RES1    0.0000
     24 C11        3.7122    6.5828    3.5904 C.ar      1 RES1    0.0000
     25 H5         4.5999    6.7767    3.3145 H         1 RES1    0.0000
     26 C12        2.6386    7.1085    2.9032 C.ar      1 RES1    0.0000
     27 C13        1.3322    6.8086    3.3089 C.ar      1 RES1    0.0000
     28 H6         0.5885    7.1778    2.8473 H         1 RES1    0.0000
     29 C14        1.1395    5.9734    4.3819 C.ar      1 RES1    0.0000
     30 H7         0.2519    5.7559    4.6399 H         1 RES1    0.0000
     31 C15        3.2726    3.9790    6.8141 C.ar      1 RES1    0.0000
     32 C16        4.5035    4.4392    6.3635 C.ar      1 RES1    0.0000
     33 C17        5.7004    4.0212    6.9243 C.ar      1 RES1    0.0000
     34 H8         6.5257    4.3622    6.6008 H         1 RES1    0.0000
     35 C18        5.6804    3.1043    7.9577 C.ar      1 RES1    0.0000
     36 C19        4.4637    2.5751    8.3940 C.ar      1 RES1    0.0000
     37 H9         4.4467    1.9168    9.0785 H         1 RES1    0.0000
     38 C20        3.2888    3.0145    7.8260 C.ar      1 RES1    0.0000
     39 H10        2.4647    2.6515    8.1310 H         1 RES1    0.0000
     40 C21        4.1904    8.5262    1.4888 C.3       1 RES1    0.0000
     41 H11        4.6945    8.6388    2.3329 H         1 RES1    0.0000
     42 H12        4.0726    9.4226    1.0852 H         1 RES1    0.0000
     43 C22        4.9958    7.6638    0.5463 C.3       1 RES1    0.0000
     44 H13        5.1543    6.7894    0.9581 H         1 RES1    0.0000
     45 H14        5.8543    8.0976    0.3602 H         1 RES1    0.0000
     46 H15        4.5019    7.5451   -0.2919 H         1 RES1    0.0000
     47 C23        7.0558    1.4177    9.2383 C.3       1 RES1    0.0000
     48 H16        7.9575    1.0629    9.0385 H         1 RES1    0.0000
     49 H17        6.3915    0.7796    8.8772 H         1 RES1    0.0000
     50 C24        6.8838    1.5144   10.7405 C.3       1 RES1    0.0000
     51 H18        7.5833    2.0907   11.1136 H         1 RES1    0.0000
     52 H19        6.9527    0.6198   11.1359 H         1 RES1    0.0000
     53 H20        6.0035    1.8943   10.9453 H         1 RES1    0.0000
@<TRIPOS>BOND
     1    1    2 1
     2    2    8 2
     3    3    4 1
     4    4    9 2
     5    5   10 2
     6    6   10 1
     7    7   23 1
     8   10   11 1
     9   11   12 ar
    10   12   13 1
    11   14   12 ar
    12   15   14 1
    13   16   14 ar
    14   17   16 1
    15   18   16 ar
    16   19   18 1
    17   20   11 ar
    18   21    6 1
    19   22   21 1
    20   23   22 ar
    21   24   23 ar
    22   25   24 1
    23   26    1 1
    24   27   26 ar
    25   28   27 1
    26   29   22 ar
    27   30   29 1
    28   31   21 1
    29   32    7 1
    30   33   32 ar
    31   34   33 1
    32   35    3 1
    33   36   35 ar
    34   37   36 1
    35   38   31 ar
    36   39   38 1
    37   40    1 1
    38   41   40 1
    39   42   40 1
    40   43   40 1
    41   44   43 1
    42   45   43 1
    43   46   43 1
    44   47    3 1
    45   48   47 1
    46   49   47 1
    47   50   47 1
    48   51   50 1
    49   52   50 1
    50   53   50 1
    51   18   20 ar
    52   20   21 1
    53   24   26 ar
    54   27   29 ar
    55   31   32 ar
    56   33   35 ar
    57   36   38 ar
@<TRIPOS>SUBSTRUCTURE
     1 RES1 1

@<TRIPOS>CRYSIN
  13.1450   14.0218   12.9264  90.0000 114.4160  90.0000  14 1

