# MOL2 file generated by ConQuest
# Please check atom types

@<TRIPOS>MOLECULE
GIJXEF
    29    30     1
SMALL
NO_CHARGES
****
Generated from CSD

@<TRIPOS>ATOM
      1 N1         8.1341    9.8868    5.3291 N.3       1 RES1    0.0000
      2 N2         8.9665   10.9151    5.5326 N.2       1 RES1    0.0000
      3 O1         2.9449    7.5137    1.3423 O.2       1 RES1    0.0000
      4 O2         4.5253    8.3556    2.6202 O.3       1 RES1    0.0000
      5 O3         9.9714   10.6398    6.1917 O.2       1 RES1    0.0000
      6 C1         3.4538    8.5259    1.7656 C.2       1 RES1    0.0000
      7 C2         3.0578    9.8704    1.4522 C.2       1 RES1    0.0000
      8 H1         2.3157   10.0033    0.8739 H         1 RES1    0.0000
      9 C3         3.6957   10.9507    1.9454 C.2       1 RES1    0.0000
     10 C4         4.8204   10.7424    2.8373 C.ar      1 RES1    0.0000
     11 C5         5.1974    9.4401    3.1436 C.ar      1 RES1    0.0000
     12 C6         6.2684    9.1343    3.9667 C.ar      1 RES1    0.0000
     13 H2         6.4944    8.2310    4.1521 H         1 RES1    0.0000
     14 C7         7.0037   10.1735    4.5139 C.ar      1 RES1    0.0000
     15 C8         6.6403   11.5012    4.2503 C.ar      1 RES1    0.0000
     16 H3         7.1292   12.2153    4.6409 H         1 RES1    0.0000
     17 C9         5.5751   11.7659    3.4260 C.ar      1 RES1    0.0000
     18 H4         5.3432   12.6700    3.2483 H         1 RES1    0.0000
     19 C10        3.2571   12.3418    1.5929 C.3       1 RES1    0.0000
     20 H5         2.6133   12.3046    0.8554 H         1 RES1    0.0000
     21 H6         4.0360   12.8706    1.3201 H         1 RES1    0.0000
     22 H7         2.8360   12.7593    2.3730 H         1 RES1    0.0000
     23 C11        8.4348    8.5448    5.8452 C.3       1 RES1    0.0000
     24 H8         7.5865    8.0579    5.9951 H         1 RES1    0.0000
     25 H9         8.8947    8.6294    6.7177 H         1 RES1    0.0000
     26 C12        9.3078    7.7401    4.9002 C.3       1 RES1    0.0000
     27 H10        8.8570    7.6512    4.0349 H         1 RES1    0.0000
     28 H11        9.4662    6.8502    5.2789 H         1 RES1    0.0000
     29 H12       10.1651    8.1994    4.7759 H         1 RES1    0.0000
@<TRIPOS>BOND
     1    1    2 1
     2    2    5 2
     3    3    6 2
     4    4    6 1
     5    6    7 1
     6    7    8 1
     7    9    7 2
     8   10    9 1
     9   11    4 1
    10   12   11 ar
    11   13   12 1
    12   14    1 1
    13   15   14 ar
    14   16   15 1
    15   17   10 ar
    16   18   17 1
    17   19    9 1
    18   20   19 1
    19   21   19 1
    20   22   19 1
    21   23    1 1
    22   24   23 1
    23   25   23 1
    24   26   23 1
    25   27   26 1
    26   28   26 1
    27   29   26 1
    28   10   11 ar
    29   12   14 ar
    30   15   17 ar
@<TRIPOS>SUBSTRUCTURE
     1 RES1 1

@<TRIPOS>CRYSIN
  11.2278   13.7389    7.4364  90.0000 107.1730  90.0000  14 1

