# MOL2 file generated by ConQuest
# Please check atom types

@<TRIPOS>MOLECULE
GIKFAK
    63    44     3
SMALL
USER_CHARGES
****
Generated from CSD

@<TRIPOS>ATOM
      1 N1         4.7318   14.8688   11.8739 N.2       1 RES1    0.0000
      2 N2         5.3017   15.9282   11.4305 N.pl3     1 RES1    1.0000
      3 N3         5.9754   16.6884   12.2746 N.2       1 RES1    0.0000
      4 N4         3.4972   14.9915    7.0188 N.pl3     1 RES1    0.0000
      5 N5         6.4403   18.8202    7.7188 N.pl3     1 RES1    0.0000
      6 O1         5.0405   14.8744   13.1864 O.3       1 RES1    0.0000
      7 O2         6.2751   16.2330   14.5516 O.2       1 RES1   -1.0000
      8 O3         3.0253   13.9692    7.4831 O.2       1 RES1    0.0000
      9 O4         3.3399   15.3669    5.8743 O.2       1 RES1    0.0000
     10 O5         6.5531   18.9434    6.5027 O.2       1 RES1    0.0000
     11 O6         6.8578   19.6324    8.5261 O.2       1 RES1    0.0000
     12 C1         5.8487   16.0211   13.4549 C.2       1 RES1    0.0000
     13 C2         5.1909   16.2590   10.0355 C.ar      1 RES1    0.0000
     14 C3         4.4123   15.4617    9.2351 C.ar      1 RES1    0.0000
     15 H1         3.9503   14.7052    9.5781 H         1 RES1    0.0000
     16 C4         4.3381   15.8167    7.9017 C.ar      1 RES1    0.0000
     17 C5         4.9910   16.8965    7.3717 C.ar      1 RES1    0.0000
     18 H2         4.9257   17.1140    6.4500 H         1 RES1    0.0000
     19 C6         5.7449   17.6474    8.2368 C.ar      1 RES1    0.0000
     20 C7         5.8665   17.3593    9.5821 C.ar      1 RES1    0.0000
     21 H3         6.3919   17.8965   10.1627 H         1 RES1    0.0000
     22 O7        12.8312    5.0219    5.8365 Du        3 SUP3    0.0000
     23 O8        12.0596    4.1391    7.6820 Du        3 SUP3    0.0000
     24 N6        12.3504    5.7171    4.7160 Du        3 SUP3    0.0000
     25 N7        11.0851    5.8750    5.0580 Du        3 SUP3    0.0000
     26 N8        10.7141    5.3193    6.1657 Du        3 SUP3    0.0000
     27 C8        11.8479    4.7431    6.7075 Du        3 SUP3    0.0000
     28 C9        10.2313    6.5683    4.2307 Du        3 SUP3    0.0000
     29 C10        8.8592    6.5181    4.4465 Du        3 SUP3    0.0000
     30 H4         8.5119    6.0312    5.1843 Du        3 SUP3    0.0000
     31 C11        7.9965    7.1835    3.5835 Du        3 SUP3    0.0000
     32 C12        8.5050    7.8972    2.5046 Du        3 SUP3    0.0000
     33 H5         7.9144    8.3507    1.9150 Du        3 SUP3    0.0000
     34 C13        9.8772    7.9455    2.2889 Du        3 SUP3    0.0000
     35 C14       10.7408    7.2801    3.1519 Du        3 SUP3    0.0000
     36 H6        11.6787    7.3136    3.0038 Du        3 SUP3    0.0000
     37 N9         6.5986    7.1240    3.7783 Du        3 SUP3    0.0000
     38 O9         6.2029    6.4921    4.7627 Du        3 SUP3    0.0000
     39 O10        5.8794    7.6909    2.9730 Du        3 SUP3    0.0000
     40 N10       10.4866    8.6072    1.1872 Du        3 SUP3    0.0000
     41 O11        9.6021    9.2335    0.4445 Du        3 SUP3    0.0000
     42 O12       11.6579    8.5960    0.9665 Du        3 SUP3    0.0000
     43 O13        5.3422    6.5553    4.6553 O.3       2 RES2    0.0000
     44 O14        4.1857    7.6370    2.9849 O.2       2 RES2   -1.0000
     45 N11        6.6184    6.4308    4.9417 N.2       2 RES2    0.0000
     46 N12        7.2140    7.0274    3.9871 N.pl3     2 RES2    1.0000
     47 N13        6.4750    7.6463    3.0724 N.2       2 RES2    0.0000
     48 C15        5.2631    7.3712    3.4293 C.2       2 RES2    0.0000
     49 C16       10.7725    6.3583    4.6444 C.ar      2 RES2    0.0000
     50 C17        9.3894    6.3694    4.7766 C.ar      2 RES2    0.0000
     51 H7         8.9759    5.9066    5.4955 H         2 RES2    0.0000
     52 C18        8.6089    7.0590    3.8549 C.ar      2 RES2    0.0000
     53 C19        9.2134    7.7374    2.8019 C.ar      2 RES2    0.0000
     54 H8         8.6801    8.2076    2.1725 H         2 RES2    0.0000
     55 C20       10.5964    7.7262    2.6707 C.ar      2 RES2    0.0000
     56 C21       11.3770    7.0367    3.5924 C.ar      2 RES2    0.0000
     57 H9        12.3227    7.0292    3.5029 H         2 RES2    0.0000
     58 N14       11.5649    5.6353    5.5383 N.pl3     2 RES2    0.0000
     59 O15       10.9911    5.0294    6.4958 O.2       2 RES2    0.0000
     60 O16       12.7719    5.5795    5.4587 O.2       2 RES2    0.0000
     61 N15       11.2107    8.4250    1.5123 N.pl3     2 RES2    0.0000
     62 O17       10.3975    9.0179    0.8312 O.2       2 RES2    0.0000
     63 O18       12.4553    8.2243    1.5014 O.2       2 RES2    0.0000
@<TRIPOS>BOND
     1    1    2 2
     2    2    3 1
     3    3   12 2
     4    4    8 2
     5    5   10 2
     6    6    1 1
     7    7   12 1
     8    9    4 2
     9   11    5 2
    10   12    6 1
    11   13    2 1
    12   14   13 ar
    13   15   14 1
    14   16    4 1
    15   17   16 ar
    16   18   17 1
    17   19    5 1
    18   20   13 ar
    19   21   20 1
    20   43   45 1
    21   44   48 1
    22   45   46 2
    23   46   47 1
    24   47   48 2
    25   48   43 1
    26   49   50 ar
    27   50   51 1
    28   52   46 1
    29   53   52 ar
    30   54   53 1
    31   55   53 ar
    32   56   49 ar
    33   57   56 1
    34   58   49 1
    35   59   58 2
    36   60   58 2
    37   61   55 1
    38   62   61 2
    39   63   61 2
    40   14   16 ar
    41   17   19 ar
    42   19   20 ar
    43   50   52 ar
    44   55   56 ar
@<TRIPOS>SUBSTRUCTURE
     1 RES1 1
     2 RES2 43
     3 SUP3 22

@<TRIPOS>CRYSIN
   9.8930   18.5860    9.9430  90.0000  90.0000  90.0000  29 1

