# MOL2 file generated by ConQuest
# Please check atom types

@<TRIPOS>MOLECULE
GIKFIS
    76    60     4
SMALL
NO_CHARGES
****
Generated from CSD

@<TRIPOS>ATOM
      1 O1         2.3466   -1.7535    6.3083 O.2       1 RES1    0.0000
      2 O2         1.2055   -2.0699    4.4911 O.2       1 RES1    0.0000
      3 N1        -0.6514    2.3292    3.2177 N.pl3     1 RES1    0.0000
      4 N2        -1.1242    1.4857    2.2649 N.2       1 RES1    0.0000
      5 N3        -1.8300    2.1990    1.4701 N.2       1 RES1    0.0000
      6 N4        -1.8634    3.5069    1.8594 N.2       1 RES1    0.0000
      7 N5         1.6606   -1.3473    5.3800 N.pl3     1 RES1    0.0000
      8 C1         0.2319    1.8700    4.2473 C.ar      1 RES1    0.0000
      9 C2         0.4986    0.5142    4.3158 C.ar      1 RES1    0.0000
     10 H1         0.1066   -0.1002    3.7065 H         1 RES1    0.0000
     11 C3         1.3587    0.0961    5.3069 C.ar      1 RES1    0.0000
     12 C4         1.9632    0.9451    6.2105 C.ar      1 RES1    0.0000
     13 H2         2.5469    0.6116    6.8824 H         1 RES1    0.0000
     14 C5         1.6902    2.3013    6.1061 C.ar      1 RES1    0.0000
     15 H3         2.0953    2.9113    6.7106 H         1 RES1    0.0000
     16 C6         0.8234    2.7761    5.1185 C.ar      1 RES1    0.0000
     17 H4         0.6409    3.7061    5.0441 H         1 RES1    0.0000
     18 C7        -1.1239    3.5530    2.9407 C.2       1 RES1    0.0000
     19 H5        -0.9496    4.3351    3.4512 H         1 RES1    0.0000
     20 O3         0.0323    1.4811   -1.4314 O.2       2 RES2    0.0000
     21 O4         0.0624    3.6277   -1.2225 O.2       2 RES2    0.0000
     22 C8         2.6594    1.0089    1.6603 C.ar      2 RES2    0.0000
     23 C9         1.7877    1.1117    0.5849 C.ar      2 RES2    0.0000
     24 H6         1.5146    0.3456    0.0947 H         2 RES2    0.0000
     25 C10        1.3323    2.3771    0.2568 C.ar      2 RES2    0.0000
     26 C11        1.7031    3.5211    0.9502 C.ar      2 RES2    0.0000
     27 H7         1.3826    4.3765    0.6925 H         2 RES2    0.0000
     28 C12        2.5590    3.3709    2.0341 C.ar      2 RES2    0.0000
     29 H8         2.8155    4.1364    2.5358 H         2 RES2    0.0000
     30 C13        3.0431    2.1286    2.3950 C.ar      2 RES2    0.0000
     31 H9         3.6306    2.0388    3.1361 H         2 RES2    0.0000
     32 C14        3.1439   -1.4529    1.3734 C.2       2 RES2    0.0000
     33 H10        2.7675   -1.5999    0.5131 H         2 RES2    0.0000
     34 N6         3.1620   -0.2739    2.0262 N.pl3     2 RES2    0.0000
     35 N7         3.7935   -0.4738    3.2172 N.2       2 RES2    0.0000
     36 N8         4.1192   -1.7257    3.2563 N.2       2 RES2    0.0000
     37 N9         3.7261   -2.3629    2.1102 N.2       2 RES2    0.0000
     38 N10        0.4124    2.5091   -0.8856 N.pl3     2 RES2    0.0000
     39 O5         1.4322   -1.5671   11.0373 O.2       3 RES3    0.0000
     40 O6         0.8151   -1.8816    9.0545 O.2       3 RES3    0.0000
     41 N11       -1.3628    2.4155    7.7966 N.pl3     3 RES3    0.0000
     42 N12       -1.9115    1.5015    6.8525 N.2       3 RES3    0.0000
     43 N13       -2.3312    3.5593    6.1999 N.2       3 RES3    0.0000
     44 N14       -2.4875    2.2202    5.9483 N.2       3 RES3    0.0000
     45 N15        0.9760   -1.2060   10.0322 N.pl3     3 RES3    0.0000
     46 C15       -0.5948    1.9369    8.8415 C.ar      3 RES3    0.0000
     47 C16       -0.2095    0.6220    8.8777 C.ar      3 RES3    0.0000
     48 H11       -0.4215    0.0518    8.1478 H         3 RES3    0.0000
     49 C17        0.3992    0.1711    9.8342 C.ar      3 RES3    0.0000
     50 C18        0.8756    1.0367   11.0111 C.ar      3 RES3    0.0000
     51 H12        1.3905    0.6911   11.7310 H         3 RES3    0.0000
     52 C19        0.4885    2.3550   10.9352 C.ar      3 RES3    0.0000
     53 H13        0.7319    2.9563   11.6301 H         3 RES3    0.0000
     54 C20       -0.2515    2.8198    9.8591 C.ar      3 RES3    0.0000
     55 H14       -0.5212    3.7303    9.8167 H         3 RES3    0.0000
     56 C21       -1.6131    3.6353    7.2748 C.2       3 RES3    0.0000
     57 H15       -1.3013    4.4491    7.6509 H         3 RES3    0.0000
     58 O7        -2.4485    1.5567    6.0480 Du        4 SUP4    0.0000
     59 O8        -2.4654    3.7320    6.1900 Du        4 SUP4    0.0000
     60 N16        0.4907   -0.0104    9.8952 Du        4 SUP4    0.0000
     61 N17        0.9111   -0.2609   11.0385 Du        4 SUP4    0.0000
     62 N18        1.4561   -1.4669   11.1120 Du        4 SUP4    0.0000
     63 N19        1.2006   -2.0906    9.8317 Du        4 SUP4    0.0000
     64 N20       -2.1676    2.6021    6.6445 Du        4 SUP4    0.0000
     65 C22       -0.1693    1.2008    9.4282 Du        4 SUP4    0.0000
     66 C23       -0.9336    1.2509    8.2599 Du        4 SUP4    0.0000
     67 H16       -1.1218    0.4613    7.7655 Du        4 SUP4    0.0000
     68 C24       -1.4115    2.4915    7.8414 Du        4 SUP4    0.0000
     69 C25       -1.2347    3.6491    8.6497 Du        4 SUP4    0.0000
     70 H17       -1.6100    4.4819    8.3919 Du        4 SUP4    0.0000
     71 C26       -0.5015    3.5334    9.8217 Du        4 SUP4    0.0000
     72 H18       -0.3744    4.3005   10.3685 Du        4 SUP4    0.0000
     73 C27        0.0472    2.3308   10.2078 Du        4 SUP4    0.0000
     74 H19        0.5677    2.2738   10.9999 Du        4 SUP4    0.0000
     75 C28        0.5966   -1.1645    9.0732 Du        4 SUP4    0.0000
     76 H20        0.3021   -1.2596    8.1752 Du        4 SUP4    0.0000
@<TRIPOS>BOND
     1    1    7 2
     2    2    7 2
     3    3    4 1
     4    4    5 2
     5    5    6 1
     6    6   18 2
     7    7   11 1
     8    8    3 1
     9    9    8 ar
    10   10    9 1
    11   11    9 ar
    12   12   11 ar
    13   13   12 1
    14   14   12 ar
    15   15   14 1
    16   16    8 ar
    17   17   16 1
    18   18    3 1
    19   19   18 1
    20   20   38 2
    21   21   38 2
    22   22   23 ar
    23   23   24 1
    24   25   23 ar
    25   26   25 ar
    26   27   26 1
    27   28   26 ar
    28   29   28 1
    29   30   22 ar
    30   31   30 1
    31   32   33 1
    32   34   22 1
    33   35   34 1
    34   36   35 2
    35   37   32 2
    36   38   25 1
    37   39   45 2
    38   40   45 2
    39   41   42 1
    40   42   44 2
    41   43   44 1
    42   45   49 1
    43   46   41 1
    44   47   46 ar
    45   48   47 1
    46   49   47 ar
    47   50   49 ar
    48   51   50 1
    49   52   50 ar
    50   53   52 1
    51   54   46 ar
    52   55   54 1
    53   56   41 1
    54   57   56 1
    55   14   16 ar
    56   28   30 ar
    57   32   34 1
    58   36   37 1
    59   43   56 2
    60   52   54 ar
@<TRIPOS>SUBSTRUCTURE
     1 RES1 1
     2 RES2 20
     3 RES3 39
     4 SUP4 58

@<TRIPOS>CRYSIN
  11.1512   17.2780   12.9735  90.0000 106.2590  90.0000 231 1

