# MOL2 file generated by ConQuest
# Please check atom types

@<TRIPOS>MOLECULE
GIKFUE
    32    32     2
SMALL
USER_CHARGES
****
Generated from CSD

@<TRIPOS>ATOM
      1 O1        -0.7140    9.0471    7.1844 O.2       1 RES1    0.0000
      2 O2        -0.4763    9.3425    5.0482 O.2       1 RES1    0.0000
      3 N1         1.1559   13.2465    9.3111 N.2       1 RES1    0.0000
      4 N2         0.5874   12.6540   10.2533 N.1       1 RES1    1.0000
      5 N3         0.1214   12.2329   11.1901 N.2       1 RES1   -1.0000
      6 N4        -0.3550    9.7168    6.2131 N.pl3     1 RES1    0.0000
      7 C1         0.9406   12.7021    8.0109 C.ar      1 RES1    0.0000
      8 C2         0.3700   11.4519    7.7829 C.ar      1 RES1    0.0000
      9 H1         0.0789   10.9037    8.5019 H         1 RES1    0.0000
     10 C3         0.2438   11.0384    6.4613 C.ar      1 RES1    0.0000
     11 C4         0.6445   11.8039    5.3765 C.ar      1 RES1    0.0000
     12 H2         0.5350   11.4906    4.4861 H         1 RES1    0.0000
     13 C5         1.2150   13.0492    5.6389 C.ar      1 RES1    0.0000
     14 H3         1.4997   13.5971    4.9165 H         1 RES1    0.0000
     15 C6         1.3713   13.4981    6.9438 C.ar      1 RES1    0.0000
     16 H4         1.7696   14.3438    7.1120 H         1 RES1    0.0000
     17 O3         1.3656    7.8275   -2.3200 O.2       2 RES2    0.0000
     18 O4         2.5559    9.5660   -1.7877 O.2       2 RES2    0.0000
     19 N5         0.2388    5.5845    1.9146 N.2       2 RES2    0.0000
     20 N6        -0.0397    5.3509    3.1070 N.1       2 RES2    1.0000
     21 N7        -0.3517    5.0038    4.1329 N.2       2 RES2   -1.0000
     22 N8         1.8652    8.5860   -1.4924 N.pl3     2 RES2    0.0000
     23 C7         0.8290    6.8497    1.6311 C.ar      2 RES2    0.0000
     24 C8         1.0455    7.1051    0.2794 C.ar      2 RES2    0.0000
     25 H5         0.8055    6.4697   -0.3838 H         2 RES2    0.0000
     26 C9         1.6227    8.3169   -0.0653 C.ar      2 RES2    0.0000
     27 C10        1.9854    9.2808    0.8718 C.ar      2 RES2    0.0000
     28 H6         2.3770   10.1034    0.6033 H         2 RES2    0.0000
     29 C11        1.7556    9.0006    2.2110 C.ar      2 RES2    0.0000
     30 H7         1.9919    9.6421    2.8714 H         2 RES2    0.0000
     31 C12        1.1826    7.7912    2.6038 C.ar      2 RES2    0.0000
     32 H8         1.0337    7.6084    3.5232 H         2 RES2    0.0000
@<TRIPOS>BOND
     1    1    6 2
     2    2    6 2
     3    3    4 2
     4    4    5 2
     5    6   10 1
     6    7    3 1
     7    8    7 ar
     8    9    8 1
     9   10    8 ar
    10   11   10 ar
    11   12   11 1
    12   13   11 ar
    13   14   13 1
    14   15    7 ar
    15   16   15 1
    16   17   22 2
    17   18   22 2
    18   19   20 2
    19   20   21 2
    20   22   26 1
    21   23   19 1
    22   24   23 ar
    23   25   24 1
    24   26   24 ar
    25   27   26 ar
    26   28   27 1
    27   29   27 ar
    28   30   29 1
    29   31   23 ar
    30   32   31 1
    31   13   15 ar
    32   29   31 ar
@<TRIPOS>SUBSTRUCTURE
     1 RES1 1
     2 RES2 17

@<TRIPOS>CRYSIN
   3.7040   10.7498   17.5309  98.1710  94.5500  92.6580   2 1

