# MOL2 file generated by ConQuest
# Please check atom types

@<TRIPOS>MOLECULE
GIKKIV
    39    40     1
SMALL
USER_CHARGES
****
Generated from CSD

@<TRIPOS>ATOM
      1 O1        10.8344    1.0250    2.0632 O.2       1 RES1    0.0000
      2 O2         8.6502    0.9833    2.6168 O.3       1 RES1    0.0000
      3 O3         8.4266    1.8045   -1.9003 O.2       1 RES1    0.0000
      4 O4         7.4411    3.5392   -2.7498 O.2       1 RES1    0.0000
      5 O5         3.5297    4.8222   -0.4288 O.2       1 RES1    0.0000
      6 O6         3.4910    4.8535    1.7375 O.2       1 RES1    0.0000
      7 O7         9.1221    3.8328    3.2593 O.2       1 RES1    0.0000
      8 O8         7.3101    3.1036    4.1999 O.2       1 RES1    0.0000
      9 N1        10.2606    2.5327   -0.1898 N.pl3     1 RES1    1.0000
     10 N2         7.7689    2.8389   -1.7964 N.pl3     1 RES1    0.0000
     11 N3         4.0478    4.6200    0.6710 N.pl3     1 RES1    0.0000
     12 N4         7.9631    3.4113    3.2213 N.pl3     1 RES1    0.0000
     13 C1         9.2665    2.2918    0.8143 C.2       1 RES1   -1.0000
     14 C2        11.0042    1.5284   -0.6980 C.ar      1 RES1    0.0000
     15 H1        10.8502    0.6378   -0.4063 H         1 RES1    0.0000
     16 C3        11.9822    1.7744   -1.6334 C.ar      1 RES1    0.0000
     17 H2        12.5364    1.0682   -1.9451 H         1 RES1    0.0000
     18 C4        12.1530    3.0619   -2.1168 C.ar      1 RES1    0.0000
     19 H3        12.8069    3.2426   -2.7819 H         1 RES1    0.0000
     20 C5        11.3584    4.0818   -1.6195 C.ar      1 RES1    0.0000
     21 H4        11.4466    4.9650   -1.9589 H         1 RES1    0.0000
     22 C6        10.4464    3.8075   -0.6356 C.ar      1 RES1    0.0000
     23 H5         9.9357    4.5145   -0.2593 H         1 RES1    0.0000
     24 C7         9.6880    1.4087    1.8723 C.2       1 RES1    0.0000
     25 C8         8.9545    0.0550    3.6902 C.3       1 RES1    0.0000
     26 H6         9.4478    0.5159    4.4141 H         1 RES1    0.0000
     27 H7         9.5128   -0.6898    3.3525 H         1 RES1    0.0000
     28 C9         7.6460   -0.4639    4.2007 C.3       1 RES1    0.0000
     29 H8         7.8083   -1.0987    4.9293 H         1 RES1    0.0000
     30 H9         7.1681   -0.9166    3.4752 H         1 RES1    0.0000
     31 H10        7.1045    0.2825    4.5317 H         1 RES1    0.0000
     32 C10        8.0093    2.9356    0.7331 C.ar      1 RES1    0.0000
     33 C11        7.2853    3.2351   -0.4668 C.ar      1 RES1    0.0000
     34 C12        6.0231    3.7890   -0.4895 C.ar      1 RES1    0.0000
     35 H11        5.5906    3.9636   -1.3175 H         1 RES1    0.0000
     36 C13        5.3983    4.0870    0.6990 C.ar      1 RES1    0.0000
     37 C14        6.0293    3.8819    1.9140 C.ar      1 RES1    0.0000
     38 H12        5.5969    4.1012    2.7318 H         1 RES1    0.0000
     39 C15        7.2934    3.3548    1.9064 C.ar      1 RES1    0.0000
@<TRIPOS>BOND
     1    1   24 2
     2    2   24 1
     3    3   10 2
     4    4   10 2
     5    5   11 2
     6    6   11 2
     7    7   12 2
     8    8   12 2
     9    9   13 1
    10   10   33 1
    11   11   36 1
    12   12   39 1
    13   13   24 1
    14   14    9 ar
    15   15   14 1
    16   16   14 ar
    17   17   16 1
    18   18   16 ar
    19   19   18 1
    20   20   18 ar
    21   21   20 1
    22   22    9 ar
    23   23   22 1
    24   25    2 1
    25   26   25 1
    26   27   25 1
    27   28   25 1
    28   29   28 1
    29   30   28 1
    30   31   28 1
    31   32   13 1
    32   33   32 ar
    33   34   33 ar
    34   35   34 1
    35   36   34 ar
    36   37   36 ar
    37   38   37 1
    38   39   32 ar
    39   20   22 ar
    40   37   39 ar
@<TRIPOS>SUBSTRUCTURE
     1 RES1 1

@<TRIPOS>CRYSIN
  24.3600    7.4337   17.9945  90.0000 106.0880  90.0000  15 1

