# MOL2 file generated by ConQuest
# Please check atom types

@<TRIPOS>MOLECULE
GIKLAP
    74    80     2
SMALL
NO_CHARGES
****
Generated from CSD

@<TRIPOS>ATOM
      1 O1        10.9845    4.3839   10.7210 O.2       1 RES1    0.0000
      2 O2         5.5468    8.7867    3.7617 O.2       1 RES1    0.0000
      3 O3         4.0419    7.2493    3.6483 O.2       1 RES1    0.0000
      4 N1         6.6491    7.5305   10.4240 N.2       1 RES1    0.0000
      5 N2         5.1842    5.6085   10.3234 N.3       1 RES1    0.0000
      6 H1         4.3487    5.3240   10.2427 H         1 RES1    0.0000
      7 N3         4.8415    7.9108    4.2516 N.pl3     1 RES1    0.0000
      8 C1         9.9672    5.0539   10.6942 C.2       1 RES1    0.0000
      9 C2        10.0146    6.4922   10.9309 C.2       1 RES1    0.0000
     10 H2        10.8381    6.8810   11.1176 H         1 RES1    0.0000
     11 C3         8.9432    7.2741   10.8950 C.2       1 RES1    0.0000
     12 H3         9.0279    8.1808   11.0835 H         1 RES1    0.0000
     13 C4         7.6213    6.7186   10.5572 C.2       1 RES1    0.0000
     14 C5         7.5178    5.2727   10.4002 C.2       1 RES1    0.0000
     15 C6         8.6295    4.4386   10.4882 C.2       1 RES1    0.0000
     16 C7         8.4632    3.0662   10.4296 C.2       1 RES1    0.0000
     17 H4         9.2014    2.5005   10.4566 H         1 RES1    0.0000
     18 C8         7.1900    2.5483   10.3297 C.2       1 RES1    0.0000
     19 H5         7.0797    1.6254   10.3108 H         1 RES1    0.0000
     20 C9         6.0775    3.3499   10.2585 C.2       1 RES1    0.0000
     21 H6         5.2308    2.9722   10.1820 H         1 RES1    0.0000
     22 C10        6.2302    4.7548   10.3030 C.2       1 RES1    0.0000
     23 C11        5.3634    7.0049    9.9504 C.3       1 RES1    0.0000
     24 C12        5.2851    7.2117    8.4204 C.ar      1 RES1    0.0000
     25 C13        6.0461    8.1560    7.7748 C.ar      1 RES1    0.0000
     26 H7         6.6662    8.6508    8.2598 H         1 RES1    0.0000
     27 C14        5.9064    8.3833    6.4181 C.ar      1 RES1    0.0000
     28 H8         6.4271    9.0268    5.9925 H         1 RES1    0.0000
     29 C15        5.0095    7.6663    5.7189 C.ar      1 RES1    0.0000
     30 C16        4.2447    6.7306    6.3165 C.ar      1 RES1    0.0000
     31 H9         3.6295    6.2435    5.8176 H         1 RES1    0.0000
     32 C17        4.3788    6.4964    7.6776 C.ar      1 RES1    0.0000
     33 H10        3.8525    5.8504    8.0897 H         1 RES1    0.0000
     34 C18        4.2459    7.8193   10.6029 C.3       1 RES1    0.0000
     35 H11        4.2788    7.7014   11.5550 H         1 RES1    0.0000
     36 H12        3.3956    7.5185   10.2719 H         1 RES1    0.0000
     37 H13        4.3611    8.7482   10.3910 H         1 RES1    0.0000
     38 O4         2.3298    5.0650   10.1681 O.2       2 RES2    0.0000
     39 O5        -3.3076    0.6939    3.9250 O.2       2 RES2    0.0000
     40 O6        -4.8244    2.1903    3.8935 O.2       2 RES2    0.0000
     41 N4        -1.9358    1.8134   10.5249 N.2       2 RES2    0.0000
     42 N5        -3.4250    3.7114   10.5599 N.3       2 RES2    0.0000
     43 H14       -4.1706    4.1276   10.6072 H         2 RES2    0.0000
     44 N6        -4.0026    1.5322    4.4662 N.pl3     2 RES2    0.0000
     45 C19        1.3352    4.3754   10.3480 C.2       2 RES2    0.0000
     46 C20        1.4522    2.9722   10.6670 C.2       2 RES2    0.0000
     47 H15        2.2995    2.6124   10.7992 H         2 RES2    0.0000
     48 C21        0.3936    2.1757   10.7793 C.2       2 RES2    0.0000
     49 H16        0.5211    1.2827   11.0082 H         2 RES2    0.0000
     50 C22       -0.9609    2.6637   10.5538 C.2       2 RES2    0.0000
     51 C23       -1.1179    4.0977   10.3618 C.2       2 RES2    0.0000
     52 C24       -0.0251    4.9488   10.2661 C.2       2 RES2    0.0000
     53 C25       -0.2198    6.3170   10.1545 C.2       2 RES2    0.0000
     54 H17        0.5080    6.8895   10.0653 H         2 RES2    0.0000
     55 C26       -1.5021    6.8186   10.1762 C.2       2 RES2    0.0000
     56 H18       -1.6358    7.7373   10.1164 H         2 RES2    0.0000
     57 C27       -2.5931    5.9769   10.2845 C.2       2 RES2    0.0000
     58 H19       -3.4517    6.3341   10.3035 H         2 RES2    0.0000
     59 C28       -2.4166    4.6027   10.3664 C.2       2 RES2    0.0000
     60 C29       -3.2602    2.3278   10.1453 C.3       2 RES2    0.0000
     61 C30       -3.4263    2.1398    8.6275 C.ar      2 RES2    0.0000
     62 C31       -2.6731    1.2297    7.9167 C.ar      2 RES2    0.0000
     63 H20       -2.0209    0.7375    8.3594 H         2 RES2    0.0000
     64 C32       -2.8637    1.0263    6.5515 C.ar      2 RES2    0.0000
     65 H21       -2.3632    0.3948    6.0873 H         2 RES2    0.0000
     66 C33       -3.7890    1.7664    5.9269 C.ar      2 RES2    0.0000
     67 C34       -4.5485    2.6577    6.5733 C.ar      2 RES2    0.0000
     68 H22       -5.1940    3.1465    6.1165 H         2 RES2    0.0000
     69 C35       -4.3555    2.8406    7.9320 C.ar      2 RES2    0.0000
     70 H23       -4.8786    3.4627    8.3813 H         2 RES2    0.0000
     71 C36       -4.3156    1.4776   10.8634 C.3       2 RES2    0.0000
     72 H24       -4.2226    1.5869   11.8126 H         2 RES2    0.0000
     73 H25       -4.1924    0.5529   10.6340 H         2 RES2    0.0000
     74 H26       -5.1917    1.7596   10.5927 H         2 RES2    0.0000
@<TRIPOS>BOND
     1    1    8 2
     2    2    7 2
     3    3    7 2
     4    4   13 2
     5    5    6 1
     6    7   29 1
     7    8    9 1
     8    9   10 1
     9   11    9 2
    10   12   11 1
    11   13   11 1
    12   14   13 1
    13   15    8 1
    14   16   15 1
    15   17   16 1
    16   18   16 2
    17   19   18 1
    18   20   18 1
    19   21   20 1
    20   22    5 1
    21   23    4 1
    22   24   23 1
    23   25   24 ar
    24   26   25 1
    25   27   25 ar
    26   28   27 1
    27   29   27 ar
    28   30   29 ar
    29   31   30 1
    30   32   24 ar
    31   33   32 1
    32   34   23 1
    33   35   34 1
    34   36   34 1
    35   37   34 1
    36   38   45 2
    37   39   44 2
    38   40   44 2
    39   41   50 2
    40   42   43 1
    41   44   66 1
    42   45   46 1
    43   46   47 1
    44   48   46 2
    45   49   48 1
    46   50   48 1
    47   51   50 1
    48   52   45 1
    49   53   52 1
    50   54   53 1
    51   55   53 2
    52   56   55 1
    53   57   55 1
    54   58   57 1
    55   59   42 1
    56   60   41 1
    57   61   60 1
    58   62   61 ar
    59   63   62 1
    60   64   62 ar
    61   65   64 1
    62   66   64 ar
    63   67   66 ar
    64   68   67 1
    65   69   61 ar
    66   70   69 1
    67   71   60 1
    68   72   71 1
    69   73   71 1
    70   74   71 1
    71    5   23 1
    72   14   15 2
    73   14   22 1
    74   20   22 2
    75   30   32 ar
    76   42   60 1
    77   51   52 2
    78   51   59 1
    79   57   59 2
    80   67   69 ar
@<TRIPOS>SUBSTRUCTURE
     1 RES1 1
     2 RES2 38

@<TRIPOS>CRYSIN
  17.2743    8.5457   24.4300  90.0000  95.8980  90.0000  13 1

