# MOL2 file generated by ConQuest
# Please check atom types

@<TRIPOS>MOLECULE
GIKMAQ
    47    48     1
SMALL
NO_CHARGES
****
Generated from CSD

@<TRIPOS>ATOM
      1 C1         3.1796    7.1732    3.7612 C.3       1 RES1    0.0000
      2 H1         4.1108    7.3576    4.0726 H         1 RES1    0.0000
      3 C2         2.6662    8.3520    2.9447 C.3       1 RES1    0.0000
      4 H2         3.2240    8.4470    2.1322 H         1 RES1    0.0000
      5 H3         2.7661    9.1802    3.4775 H         1 RES1    0.0000
      6 C3         1.2044    8.2051    2.5293 C.3       1 RES1    0.0000
      7 H4         1.1428    7.4290    1.9015 H         1 RES1    0.0000
      8 C4         0.7130    9.4387    1.7883 C.3       1 RES1    0.0000
      9 H5        -0.2294    9.3215    1.5484 H         1 RES1    0.0000
     10 H6         1.2433    9.5627    0.9737 H         1 RES1    0.0000
     11 H7         0.8088   10.2252    2.3639 H         1 RES1    0.0000
     12 C5         0.3209    7.8953    3.7367 C.3       1 RES1    0.0000
     13 H8         0.3037    8.6784    4.3420 H         1 RES1    0.0000
     14 H9        -0.6054    7.7256    3.4316 H         1 RES1    0.0000
     15 C6         0.8346    6.6777    4.4972 C.3       1 RES1    0.0000
     16 H10        0.7978    5.8815    3.9103 H         1 RES1    0.0000
     17 H11        0.2562    6.5093    5.2821 H         1 RES1    0.0000
     18 C7         2.2761    6.9030    4.9636 C.3       1 RES1    0.0000
     19 H12        2.2465    7.7734    5.4566 H         1 RES1    0.0000
     20 C8         2.7717    5.8697    6.0241 C.3       1 RES1    0.0000
     21 C9         4.2236    6.1850    6.4304 C.3       1 RES1    0.0000
     22 H13        4.4630    5.6556    7.2193 H         1 RES1    0.0000
     23 H14        4.3044    7.1386    6.6396 H         1 RES1    0.0000
     24 H15        4.8257    5.9605    5.6904 H         1 RES1    0.0000
     25 C10        2.7376    4.4269    5.4995 C.3       1 RES1    0.0000
     26 H16        2.9819    3.8108    6.2211 H         1 RES1    0.0000
     27 H17        3.3736    4.3333    4.7595 H         1 RES1    0.0000
     28 H18        1.8338    4.2162    5.1820 H         1 RES1    0.0000
     29 C11        1.8606    6.0395    7.2541 C.ar      1 RES1    0.0000
     30 C12        1.9347    7.1982    8.0247 C.ar      1 RES1    0.0000
     31 H19        2.5911    7.8531    7.8154 H         1 RES1    0.0000
     32 C13        1.0764    7.4172    9.0862 C.ar      1 RES1    0.0000
     33 H20        1.1430    8.2183    9.5925 H         1 RES1    0.0000
     34 C14        0.1288    6.4789    9.4118 C.ar      1 RES1    0.0000
     35 H21       -0.4680    6.6320   10.1355 H         1 RES1    0.0000
     36 C15        0.0480    5.3174    8.6840 C.ar      1 RES1    0.0000
     37 H22       -0.5993    4.6618    8.9127 H         1 RES1    0.0000
     38 C16        0.9058    5.0949    7.6154 C.ar      1 RES1    0.0000
     39 H23        0.8388    4.2841    7.1244 H         1 RES1    0.0000
     40 O1         3.1703    5.9820    2.8929 O.3       1 RES1    0.0000
     41 C17        4.2301    5.8157    2.0894 C.2       1 RES1    0.0000
     42 O2         5.2058    6.5253    2.0884 O.2       1 RES1    0.0000
     43 C18        4.0284    4.6237    1.2422 C.2       1 RES1    0.0000
     44 H24        3.1623    4.1649    1.2554 H         1 RES1    0.0000
     45 N1         5.0021    4.2966    0.4857 N.2       1 RES1    0.0000
     46 O3         4.7014    3.1649   -0.2396 O.3       1 RES1    0.0000
     47 H25        5.4953    3.0769   -0.7043 H         1 RES1    0.0000
@<TRIPOS>BOND
     1    1    2 1
     2    3    1 1
     3    4    3 1
     4    5    3 1
     5    6    3 1
     6    7    6 1
     7    8    6 1
     8    9    8 1
     9   10    8 1
    10   11    8 1
    11   12    6 1
    12   13   12 1
    13   14   12 1
    14   15   12 1
    15   16   15 1
    16   17   15 1
    17   18    1 1
    18   19   18 1
    19   20   18 1
    20   21   20 1
    21   22   21 1
    22   23   21 1
    23   24   21 1
    24   25   20 1
    25   26   25 1
    26   27   25 1
    27   28   25 1
    28   29   20 1
    29   30   29 ar
    30   31   30 1
    31   32   30 ar
    32   33   32 1
    33   34   32 ar
    34   35   34 1
    35   36   34 ar
    36   37   36 1
    37   38   29 ar
    38   39   38 1
    39   40    1 1
    40   41   40 1
    41   42   41 2
    42   43   41 1
    43   44   43 1
    44   45   43 2
    45   46   45 1
    46   47   46 1
    47   15   18 1
    48   36   38 ar
@<TRIPOS>SUBSTRUCTURE
     1 RES1 1

@<TRIPOS>CRYSIN
  23.9674    6.9300   10.3584  90.0000  99.8110  90.0000   5 1

