# MOL2 file generated by ConQuest
# Please check atom types

@<TRIPOS>MOLECULE
GIKNOF
    44    46     1
SMALL
NO_CHARGES
****
Generated from CSD

@<TRIPOS>ATOM
      1 O1        -3.2346    0.9091    9.7521 O.3       1 RES1    0.0000
      2 O2        -1.3140    2.0385   10.4862 O.3       1 RES1    0.0000
      3 O3         0.6330   -0.3454    9.2815 O.2       1 RES1    0.0000
      4 O4         0.6990    0.2241   11.4556 O.3       1 RES1    0.0000
      5 O5         2.4516    5.4616    3.7918 O.2       1 RES1    0.0000
      6 O6         3.9384    4.5420    5.0764 O.2       1 RES1    0.0000
      7 N1         2.7857    4.6723    4.6775 N.pl3     1 RES1    0.0000
      8 C1        -2.1725    0.9671   10.7378 C.3       1 RES1    0.0000
      9 C2        -2.8452    0.9631   12.1114 C.3       1 RES1    0.0000
     10 C3        -3.0325   -0.5263   12.4231 C.3       1 RES1    0.0000
     11 C4        -1.7015   -1.1270   11.9444 C.3       1 RES1    0.0000
     12 C5        -1.4114   -0.4136   10.5991 C.3       1 RES1    0.0000
     13 C6        -2.0936   -1.0909    9.3915 C.3       1 RES1    0.0000
     14 C7        -2.8436    0.0364    8.6586 C.3       1 RES1    0.0000
     15 C8         0.0766   -0.1816   10.3420 C.2       1 RES1    0.0000
     16 C9        -4.1201   -0.4037    7.9511 C.3       1 RES1    0.0000
     17 C10       -1.9539    0.7809    7.7375 C.1       1 RES1    0.0000
     18 C11       -1.2117    1.4366    7.0674 C.1       1 RES1    0.0000
     19 C12       -0.2133    2.2497    6.4226 C.ar      1 RES1    0.0000
     20 C13        1.1329    2.0851    6.7961 C.ar      1 RES1    0.0000
     21 C14        2.1137    2.8825    6.2293 C.ar      1 RES1    0.0000
     22 C15        1.7371    3.8331    5.2909 C.ar      1 RES1    0.0000
     23 C16        0.4203    4.0177    4.9002 C.ar      1 RES1    0.0000
     24 C17       -0.5633    3.2242    5.4742 C.ar      1 RES1    0.0000
     25 C18        2.0941    0.5722   11.3077 C.3       1 RES1    0.0000
     26 H1        -3.6469    1.5066   12.0932 H         1 RES1    0.0000
     27 H2        -2.1665    1.3503   12.8017 H         1 RES1    0.0000
     28 H3        -3.8299   -0.9464   11.8684 H         1 RES1    0.0000
     29 H4        -3.2535   -0.6932   13.3767 H         1 RES1    0.0000
     30 H5        -0.9484   -0.8838   12.6003 H         1 RES1    0.0000
     31 H6        -1.6882   -2.0952   11.8613 H         1 RES1    0.0000
     32 H7        -2.7569   -1.7440    9.7124 H         1 RES1    0.0000
     33 H8        -1.4565   -1.5502    8.7710 H         1 RES1    0.0000
     34 H9        -4.6935   -0.8235    8.5716 H         1 RES1    0.0000
     35 H10       -4.5484    0.3366    7.5290 H         1 RES1    0.0000
     36 H11       -3.8585   -1.0722    7.2658 H         1 RES1    0.0000
     37 H12        1.3321    1.3455    7.4430 H         1 RES1    0.0000
     38 H13        3.0367    2.7533    6.4692 H         1 RES1    0.0000
     39 H14        0.2135    4.6999    4.2372 H         1 RES1    0.0000
     40 H15       -1.4836    3.3534    5.2231 H         1 RES1    0.0000
     41 H16        2.1804    1.4398   10.8309 H         1 RES1    0.0000
     42 H17        2.4896    0.6378   12.2581 H         1 RES1    0.0000
     43 H18        2.5867   -0.0512   10.8511 H         1 RES1    0.0000
     44 H19       -1.8211    2.7776   10.6527 H         1 RES1    0.0000
@<TRIPOS>BOND
     1    1    8 1
     2    2    8 1
     3    3   15 2
     4    4   15 1
     5    5    7 2
     6    6    7 2
     7    7   22 1
     8    8    9 1
     9    9   10 1
    10   10   11 1
    11   11   12 1
    12   12    8 1
    13   13   12 1
    14   14    1 1
    15   15   12 1
    16   16   14 1
    17   17   14 1
    18   18   17 3
    19   19   18 1
    20   20   19 ar
    21   21   20 ar
    22   22   21 ar
    23   23   22 ar
    24   24   19 ar
    25   25    4 1
    26   26    9 1
    27   27    9 1
    28   28   10 1
    29   29   10 1
    30   30   11 1
    31   31   11 1
    32   32   13 1
    33   33   13 1
    34   34   16 1
    35   35   16 1
    36   36   16 1
    37   37   20 1
    38   38   21 1
    39   39   23 1
    40   40   24 1
    41   41   25 1
    42   42   25 1
    43   43   25 1
    44   44    2 1
    45   13   14 1
    46   23   24 ar
@<TRIPOS>SUBSTRUCTURE
     1 RES1 1

@<TRIPOS>CRYSIN
   8.5204   10.1437   10.5558  73.8970  82.8560  76.0520   2 1

