# MOL2 file generated by ConQuest
# Please check atom types

@<TRIPOS>MOLECULE
GIKSUQ
    20    20     1
SMALL
NO_CHARGES
****
Generated from CSD

@<TRIPOS>ATOM
      1 C1         1.6041    3.2427    7.5509 C.ar      1 RES1    0.0000
      2 C2         1.7533    4.5212    8.0979 C.ar      1 RES1    0.0000
      3 H1         1.4937    4.6753    8.9979 H         1 RES1    0.0000
      4 C3         2.2637    5.5492    7.3654 C.ar      1 RES1    0.0000
      5 H2         2.3559    6.4102    7.7556 H         1 RES1    0.0000
      6 C4         2.6535    5.3374    6.0365 C.ar      1 RES1    0.0000
      7 C5         2.5244    4.0687    5.4824 C.ar      1 RES1    0.0000
      8 H3         2.7920    3.9153    4.5844 H         1 RES1    0.0000
      9 C6         2.0130    3.0400    6.2268 C.ar      1 RES1    0.0000
     10 H4         1.9345    2.1760    5.8393 H         1 RES1    0.0000
     11 C7         1.0408    2.1494    8.3624 C.2       1 RES1    0.0000
     12 N1         0.5737    1.1413    7.7064 N.2       1 RES1    0.0000
     13 O1         0.0290    0.1510    8.5353 O.3       1 RES1    0.0000
     14 H5        -0.1889   -0.4859    7.8181 H         1 RES1    0.0000
     15 C8         1.0002    2.2299    9.8534 C.3       1 RES1    0.0000
     16 H6         1.0232    1.3249   10.2305 H         1 RES1    0.0000
     17 H7         0.1758    2.6793   10.1333 H         1 RES1    0.0000
     18 H8         1.7747    2.7370   10.1750 H         1 RES1    0.0000
     19 C9         3.2050    6.4140    5.2687 C.1       1 RES1    0.0000
     20 N2         3.6555    7.2696    4.6547 N.1       1 RES1    0.0000
@<TRIPOS>BOND
     1    1    2 ar
     2    2    3 1
     3    4    2 ar
     4    5    4 1
     5    6    4 ar
     6    7    6 ar
     7    8    7 1
     8    9    1 ar
     9   10    9 1
    10   11    1 1
    11   12   11 2
    12   13   12 1
    13   14   13 1
    14   15   11 1
    15   16   15 1
    16   17   15 1
    17   18   15 1
    18   19    6 1
    19   20   19 3
    20    7    9 ar
@<TRIPOS>SUBSTRUCTURE
     1 RES1 1

@<TRIPOS>CRYSIN
   7.8002    7.5923   13.8966  90.0000  90.2980  90.0000  14 1

