# MOL2 file generated by ConQuest
# Please check atom types

@<TRIPOS>MOLECULE
GIKSAV
    27    28     1
SMALL
NO_CHARGES
****
Generated from CSD

@<TRIPOS>ATOM
      1 C1         2.0102    3.4326   11.6113 C.ar      1 RES1    0.0000
      2 O1         2.6032    2.6617   12.5634 O.3       1 RES1    0.0000
      3 H1         3.4781    2.7599   12.4700 H         1 RES1    0.0000
      4 C2         2.7575    4.1254   10.6416 C.ar      1 RES1    0.0000
      5 C3         2.0494    4.9184    9.7368 C.ar      1 RES1    0.0000
      6 H2         2.5229    5.4061    9.1028 H         1 RES1    0.0000
      7 C4         0.6763    4.9984    9.7581 C.ar      1 RES1    0.0000
      8 H3         0.2310    5.5296    9.1391 H         1 RES1    0.0000
      9 C5        -0.0343    4.2898   10.6959 C.ar      1 RES1    0.0000
     10 H4        -0.9637    4.3304   10.7086 H         1 RES1    0.0000
     11 C6         0.6306    3.5174   11.6181 C.ar      1 RES1    0.0000
     12 H5         0.1458    3.0474   12.2573 H         1 RES1    0.0000
     13 C7         4.2278    4.0147   10.5604 C.2       1 RES1    0.0000
     14 N1         4.8192    3.4209   11.5351 N.2       1 RES1    0.0000
     15 O2         6.1933    3.2797   11.3613 O.3       1 RES1    0.0000
     16 H6         6.4365    2.8040   12.0445 H         1 RES1    0.0000
     17 C8         4.9501    4.5312    9.3565 C.ar      1 RES1    0.0000
     18 C9         5.9205    5.5067    9.4919 C.ar      1 RES1    0.0000
     19 H7         6.1222    5.8461   10.3350 H         1 RES1    0.0000
     20 C10        6.5872    5.9793    8.3749 C.ar      1 RES1    0.0000
     21 H8         7.2251    6.6503    8.4621 H         1 RES1    0.0000
     22 C11        6.3087    5.4590    7.1398 C.ar      1 RES1    0.0000
     23 H9         6.7754    5.7580    6.3945 H         1 RES1    0.0000
     24 C12        5.3450    4.4891    6.9927 C.ar      1 RES1    0.0000
     25 H10        5.1537    4.1452    6.1507 H         1 RES1    0.0000
     26 C13        4.6579    4.0292    8.0973 C.ar      1 RES1    0.0000
     27 H11        3.9969    3.3834    7.9951 H         1 RES1    0.0000
@<TRIPOS>BOND
     1    1    2 1
     2    2    3 1
     3    4    1 ar
     4    5    4 ar
     5    6    5 1
     6    7    5 ar
     7    8    7 1
     8    9    7 ar
     9   10    9 1
    10   11    1 ar
    11   12   11 1
    12   13    4 1
    13   14   13 2
    14   15   14 1
    15   16   15 1
    16   17   13 1
    17   18   17 ar
    18   19   18 1
    19   20   18 ar
    20   21   20 1
    21   22   20 ar
    22   23   22 1
    23   24   22 ar
    24   25   24 1
    25   26   17 ar
    26   27   26 1
    27    9   11 ar
    28   24   26 ar
@<TRIPOS>SUBSTRUCTURE
     1 RES1 1

@<TRIPOS>CRYSIN
   9.4668    8.8177   25.9413  90.0000  90.0000  90.0000  61 1

