# MOL2 file generated by ConQuest
# Please check atom types

@<TRIPOS>MOLECULE
GILFIS
    34    37     1
SMALL
NO_CHARGES
****
Generated from CSD

@<TRIPOS>ATOM
      1 N1         1.1372    7.4418    5.0120 N.3       1 RES1    0.0000
      2 H1         0.7596    6.8216    4.4296 H         1 RES1    0.0000
      3 O1         2.6728    9.4658    2.3275 O.3       1 RES1    0.0000
      4 O2         4.5677    8.3759    2.9220 O.3       1 RES1    0.0000
      5 O3         4.8548    5.5244    3.2652 O.3       1 RES1    0.0000
      6 H2         5.4113    5.3601    2.5965 H         1 RES1    0.0000
      7 O4         2.3979    6.7595    5.3880 O.3       1 RES1    0.0000
      8 O5         3.4618    8.7621    6.9553 O.3       1 RES1    0.0000
      9 O6         1.6276    9.8507    6.3578 O.3       1 RES1    0.0000
     10 O7         1.9998    9.4100    8.5131 O.2       1 RES1    0.0000
     11 C1         4.0399    9.3001    1.9559 C.3       1 RES1    0.0000
     12 C2         4.7588   10.6221    2.1293 C.3       1 RES1    0.0000
     13 H3         4.6782   10.9176    3.0608 H         1 RES1    0.0000
     14 H4         4.3567   11.2926    1.5383 H         1 RES1    0.0000
     15 H5         5.7057   10.5114    1.9029 H         1 RES1    0.0000
     16 C3         4.1565    8.7486    0.5471 C.3       1 RES1    0.0000
     17 H6         3.5765    7.9649    0.4544 H         1 RES1    0.0000
     18 H7         5.0856    8.4904    0.3732 H         1 RES1    0.0000
     19 H8         3.8833    9.4349   -0.0969 H         1 RES1    0.0000
     20 C4         3.5153    7.5293    3.3846 C.3       1 RES1    0.0000
     21 C5         3.6436    6.1242    2.8082 C.3       1 RES1    0.0000
     22 H9         2.8705    5.5746    3.0922 H         1 RES1    0.0000
     23 H10        3.6448    6.1682    1.8188 H         1 RES1    0.0000
     24 C6         3.5541    7.4536    4.9176 C.3       1 RES1    0.0000
     25 H11        4.3755    6.9607    5.2044 H         1 RES1    0.0000
     26 C7         3.5724    8.8471    5.5144 C.3       1 RES1    0.0000
     27 H12        4.3873    9.3553    5.2372 H         1 RES1    0.0000
     28 C8         2.3335    9.3393    7.3627 C.2       1 RES1    0.0000
     29 C9         2.2870    9.5715    5.0989 C.3       1 RES1    0.0000
     30 H13        2.4960   10.4177    4.6105 H         1 RES1    0.0000
     31 C10        1.4432    8.6455    4.2416 C.3       1 RES1    0.0000
     32 H14        0.5929    9.1054    3.9881 H         1 RES1    0.0000
     33 C11        2.2281    8.2816    2.9761 C.3       1 RES1    0.0000
     34 H15        1.6711    7.7248    2.3587 H         1 RES1    0.0000
@<TRIPOS>BOND
     1    1    2 1
     2    3   11 1
     3    4   11 1
     4    5    6 1
     5    7    1 1
     6    8   26 1
     7    9   28 1
     8   10   28 2
     9   11   12 1
    10   12   13 1
    11   14   12 1
    12   15   12 1
    13   16   11 1
    14   17   16 1
    15   18   16 1
    16   19   16 1
    17   20    4 1
    18   21    5 1
    19   22   21 1
    20   23   21 1
    21   24    7 1
    22   25   24 1
    23   26   24 1
    24   27   26 1
    25   28    8 1
    26   29    9 1
    27   30   29 1
    28   31    1 1
    29   32   31 1
    30   33    3 1
    31   34   33 1
    32   20   21 1
    33   20   24 1
    34   20   33 1
    35   26   29 1
    36   29   31 1
    37   31   33 1
@<TRIPOS>SUBSTRUCTURE
     1 RES1 1

@<TRIPOS>CRYSIN
   5.8882   14.2027   14.2431  90.0000  90.0000  90.0000  19 1

