# MOL2 file generated by ConQuest
# Please check atom types

@<TRIPOS>MOLECULE
GILHUF
    82    89     1
SMALL
NO_CHARGES
****
Generated from CSD

@<TRIPOS>ATOM
      1 N1         3.1804    4.2667    4.0749 N.3       1 RES1    0.0000
      2 O1         2.5268    4.7741    2.8561 O.3       1 RES1    0.0000
      3 O2         2.3810    7.2734    1.5050 O.3       1 RES1    0.0000
      4 O3         0.1800    6.7730    1.4646 O.2       1 RES1    0.0000
      5 C1         3.0456    5.3907    5.0894 C.3       1 RES1    0.0000
      6 C2         4.0591    6.4766    4.6900 C.3       1 RES1    0.0000
      7 H1         4.9611    6.0730    4.6300 H         1 RES1    0.0000
      8 H2         3.8227    6.8293    3.7961 H         1 RES1    0.0000
      9 C3         4.0895    7.6330    5.6953 C.3       1 RES1    0.0000
     10 H3         4.7642    8.3111    5.4048 H         1 RES1    0.0000
     11 C4         2.7024    8.2767    5.7427 C.3       1 RES1    0.0000
     12 H4         2.7019    9.0254    6.3907 H         1 RES1    0.0000
     13 H5         2.4695    8.6374    4.8513 H         1 RES1    0.0000
     14 C5         1.6730    7.2270    6.1634 C.3       1 RES1    0.0000
     15 H6         0.7662    7.6482    6.1930 H         1 RES1    0.0000
     16 C6         2.0300    6.7011    7.5558 C.3       1 RES1    0.0000
     17 H7         2.0184    7.4436    8.2091 H         1 RES1    0.0000
     18 H8         1.3655    6.0261    7.8416 H         1 RES1    0.0000
     19 C7         3.4230    6.0723    7.5081 C.3       1 RES1    0.0000
     20 H9         3.6565    5.7238    8.4157 H         1 RES1    0.0000
     21 C8         3.4584    4.9126    6.4986 C.3       1 RES1    0.0000
     22 H10        2.8428    4.1973    6.7966 H         1 RES1    0.0000
     23 H11        4.3725    4.5341    6.4630 H         1 RES1    0.0000
     24 C9         1.6527    6.0516    5.1713 C.3       1 RES1    0.0000
     25 H12        1.3875    6.3786    4.2757 H         1 RES1    0.0000
     26 H13        0.9848    5.3822    5.4639 H         1 RES1    0.0000
     27 C10        4.4518    7.1151    7.0952 C.3       1 RES1    0.0000
     28 H14        5.3559    6.7122    7.0829 H         1 RES1    0.0000
     29 H15        4.4532    7.8641    7.7427 H         1 RES1    0.0000
     30 C11        2.6215    2.8853    4.3692 C.3       1 RES1    0.0000
     31 C12        2.4764    2.1157    3.0441 C.3       1 RES1    0.0000
     32 H16        1.7989    2.5667    2.4810 H         1 RES1    0.0000
     33 H17        3.3393    2.1407    2.5592 H         1 RES1    0.0000
     34 C13        2.0628    0.6586    3.2522 C.3       1 RES1    0.0000
     35 H18        1.9628    0.2176    2.3600 H         1 RES1    0.0000
     36 C14        3.1492   -0.0676    4.0483 C.3       1 RES1    0.0000
     37 H19        4.0031   -0.0571    3.5481 H         1 RES1    0.0000
     38 H20        2.8871   -1.0110    4.2005 H         1 RES1    0.0000
     39 C15        3.3131    0.6576    5.3886 C.3       1 RES1    0.0000
     40 H21        4.0231    0.2012    5.9258 H         1 RES1    0.0000
     41 C16        1.9875    0.6099    6.1583 C.3       1 RES1    0.0000
     42 H22        2.0916    1.0643    7.0313 H         1 RES1    0.0000
     43 H23        1.7335   -0.3310    6.3287 H         1 RES1    0.0000
     44 C17        0.8892    1.3028    5.3416 C.3       1 RES1    0.0000
     45 H24        0.0259    1.2579    5.8446 H         1 RES1    0.0000
     46 C18        1.2586    2.7794    5.0963 C.3       1 RES1    0.0000
     47 H25        1.3076    3.2571    5.9627 H         1 RES1    0.0000
     48 H26        0.5561    3.2096    4.5473 H         1 RES1    0.0000
     49 C19        3.7109    2.1201    5.1622 C.3       1 RES1    0.0000
     50 H27        4.5652    2.1540    4.6624 H         1 RES1    0.0000
     51 H28        3.8504    2.5609    6.0365 H         1 RES1    0.0000
     52 C20        0.7294    0.5837    3.9983 C.3       1 RES1    0.0000
     53 H29        0.4764   -0.3620    4.1473 H         1 RES1    0.0000
     54 H30        0.0168    1.0163    3.4640 H         1 RES1    0.0000
     55 C21        3.4729    5.1058    1.8107 C.3       1 RES1    0.0000
     56 H31        4.2320    5.6208    2.2095 H         1 RES1    0.0000
     57 C22        2.7057    6.0074    0.8652 C.3       1 RES1    0.0000
     58 H32        3.2510    6.1772    0.0561 H         1 RES1    0.0000
     59 H33        1.8710    5.5562    0.5830 H         1 RES1    0.0000
     60 C23        1.0805    7.5432    1.7130 C.2       1 RES1    0.0000
     61 C24        0.8751    8.8924    2.3024 C.ar      1 RES1    0.0000
     62 C25        1.8779    9.8543    2.3343 C.ar      1 RES1    0.0000
     63 H34        2.7306    9.6668    1.9600 H         1 RES1    0.0000
     64 C26        1.6284   11.0857    2.9129 C.ar      1 RES1    0.0000
     65 H35        2.3124   11.7448    2.9297 H         1 RES1    0.0000
     66 C27        0.3961   11.3653    3.4647 C.ar      1 RES1    0.0000
     67 H36        0.2407   12.2088    3.8743 H         1 RES1    0.0000
     68 C28       -0.6105   10.4253    3.4243 C.ar      1 RES1    0.0000
     69 H37       -1.4626   10.6221    3.7946 H         1 RES1    0.0000
     70 C29       -0.3724    9.1874    2.8392 C.ar      1 RES1    0.0000
     71 H38       -1.0669    8.5394    2.8057 H         1 RES1    0.0000
     72 C30        4.0246    3.9203    1.0501 C.ar      1 RES1    0.0000
     73 C31        3.2468    3.2108    0.1309 C.ar      1 RES1    0.0000
     74 H39        2.3752    3.5200   -0.0871 H         1 RES1    0.0000
     75 C32        3.7355    2.0626   -0.4630 C.ar      1 RES1    0.0000
     76 H40        3.1948    1.5857   -1.0818 H         1 RES1    0.0000
     77 C33        5.0036    1.6019   -0.1634 C.ar      1 RES1    0.0000
     78 H41        5.3241    0.7945   -0.5490 H         1 RES1    0.0000
     79 C34        5.7997    2.3244    0.7011 C.ar      1 RES1    0.0000
     80 H42        6.6829    2.0289    0.8885 H         1 RES1    0.0000
     81 C35        5.3191    3.4803    1.2985 C.ar      1 RES1    0.0000
     82 H43        5.8798    3.9763    1.8833 H         1 RES1    0.0000
@<TRIPOS>BOND
     1    1    2 1
     2    2   55 1
     3    3   57 1
     4    4   60 2
     5    5    1 1
     6    6    5 1
     7    7    6 1
     8    8    6 1
     9    9    6 1
    10   10    9 1
    11   11    9 1
    12   12   11 1
    13   13   11 1
    14   14   11 1
    15   15   14 1
    16   16   14 1
    17   17   16 1
    18   18   16 1
    19   19   16 1
    20   20   19 1
    21   21    5 1
    22   22   21 1
    23   23   21 1
    24   24    5 1
    25   25   24 1
    26   26   24 1
    27   27    9 1
    28   28   27 1
    29   29   27 1
    30   30    1 1
    31   31   30 1
    32   32   31 1
    33   33   31 1
    34   34   31 1
    35   35   34 1
    36   36   34 1
    37   37   36 1
    38   38   36 1
    39   39   36 1
    40   40   39 1
    41   41   39 1
    42   42   41 1
    43   43   41 1
    44   44   41 1
    45   45   44 1
    46   46   30 1
    47   47   46 1
    48   48   46 1
    49   49   30 1
    50   50   49 1
    51   51   49 1
    52   52   34 1
    53   53   52 1
    54   54   52 1
    55   55   56 1
    56   57   55 1
    57   58   57 1
    58   59   57 1
    59   60    3 1
    60   61   60 1
    61   62   61 ar
    62   63   62 1
    63   64   62 ar
    64   65   64 1
    65   66   64 ar
    66   67   66 1
    67   68   66 ar
    68   69   68 1
    69   70   61 ar
    70   71   70 1
    71   72   55 1
    72   73   72 ar
    73   74   73 1
    74   75   73 ar
    75   76   75 1
    76   77   75 ar
    77   78   77 1
    78   79   77 ar
    79   80   79 1
    80   81   72 ar
    81   82   81 1
    82   14   24 1
    83   19   21 1
    84   19   27 1
    85   39   49 1
    86   44   46 1
    87   44   52 1
    88   68   70 ar
    89   79   81 ar
@<TRIPOS>SUBSTRUCTURE
     1 RES1 1

@<TRIPOS>CRYSIN
   6.3916   14.6153   15.2826  75.7220  84.0560  84.5800   2 1

