# MOL2 file generated by ConQuest
# Please check atom types

@<TRIPOS>MOLECULE
GILJAN
   118   122     2
SMALL
NO_CHARGES
****
Generated from CSD

@<TRIPOS>ATOM
      1 O1         5.3751    7.7502   15.1054 O.3       1 RES1    0.0000
      2 O2         6.7058    8.7620   18.2991 O.3       1 RES1    0.0000
      3 O3         8.8826    9.2950   18.1219 O.2       1 RES1    0.0000
      4 N1         4.0156    7.7630   14.5621 N.3       1 RES1    0.0000
      5 C1         3.8626    6.5251   13.7243 C.3       1 RES1    0.0000
      6 C2         2.4912    6.6157   13.0409 C.3       1 RES1    0.0000
      7 H1         2.3881    5.8441   12.4273 H         1 RES1    0.0000
      8 H2         1.7854    6.5459   13.7313 H         1 RES1    0.0000
      9 C3         2.2825    7.9059   12.2503 C.3       1 RES1    0.0000
     10 H3         2.9364    7.9597   11.5093 H         1 RES1    0.0000
     11 H4         1.3703    7.9250   11.8646 H         1 RES1    0.0000
     12 C4         2.4720    9.0736   13.1963 C.3       1 RES1    0.0000
     13 H5         1.7652    9.0435   13.8880 H         1 RES1    0.0000
     14 H6         2.3613    9.9175   12.6899 H         1 RES1    0.0000
     15 C5         3.8488    9.0828   13.8880 C.3       1 RES1    0.0000
     16 C6         4.9809    6.2706   12.7057 C.3       1 RES1    0.0000
     17 H7         5.8508    6.4028   13.1356 H         1 RES1    0.0000
     18 H8         4.8883    6.8940   11.9573 H         1 RES1    0.0000
     19 H9         4.9175    5.3492   12.3743 H         1 RES1    0.0000
     20 C7         3.8196    5.3295   14.6744 C.3       1 RES1    0.0000
     21 H10        3.1994    5.5184   15.4083 H         1 RES1    0.0000
     22 H11        4.7156    5.1674   15.0376 H         1 RES1    0.0000
     23 H12        3.5161    4.5349   14.1859 H         1 RES1    0.0000
     24 C8         4.9596    9.4812   12.9068 C.3       1 RES1    0.0000
     25 H13        4.9332    8.8879   12.1272 H         1 RES1    0.0000
     26 H14        5.8299    9.4005   13.3496 H         1 RES1    0.0000
     27 H15        4.8236   10.4066   12.6170 H         1 RES1    0.0000
     28 C9         3.8048   10.1600   14.9816 C.3       1 RES1    0.0000
     29 H16        3.1675    9.8928   15.6775 H         1 RES1    0.0000
     30 H17        3.5226   11.0124   14.5897 H         1 RES1    0.0000
     31 H18        4.6954   10.2608   15.3774 H         1 RES1    0.0000
     32 C10        5.3892    7.8425   16.5506 C.3       1 RES1    0.0000
     33 H19        4.5663    8.3146   16.8668 H         1 RES1    0.0000
     34 C11        5.4854    6.4829   17.2071 C.ar      1 RES1    0.0000
     35 C12        4.4564    6.0084   18.0131 C.ar      1 RES1    0.0000
     36 H20        3.7040    6.5597   18.1952 H         1 RES1    0.0000
     37 C13        4.5275    4.7250   18.5538 C.ar      1 RES1    0.0000
     38 H21        3.8230    4.4017   19.1043 H         1 RES1    0.0000
     39 C14        5.6126    3.9286   18.2912 C.ar      1 RES1    0.0000
     40 H22        5.6495    3.0472   18.6453 H         1 RES1    0.0000
     41 C15        6.6504    4.4024   17.5176 C.ar      1 RES1    0.0000
     42 H23        7.4108    3.8550   17.3589 H         1 RES1    0.0000
     43 C16        6.5889    5.6701   16.9734 C.ar      1 RES1    0.0000
     44 H24        7.3044    5.9896   16.4366 H         1 RES1    0.0000
     45 C17        6.6229    8.6930   16.8567 C.3       1 RES1    0.0000
     46 H25        7.4367    8.2730   16.4807 H         1 RES1    0.0000
     47 H26        6.5254    9.5992   16.4697 H         1 RES1    0.0000
     48 C18        7.9131    9.0774   18.8002 C.2       1 RES1    0.0000
     49 C19        7.9083    9.1438   20.2899 C.ar      1 RES1    0.0000
     50 C20        9.1068    9.4884   20.9218 C.ar      1 RES1    0.0000
     51 H27        9.8815    9.6698   20.4017 H         1 RES1    0.0000
     52 C21        9.1694    9.5671   22.2941 C.ar      1 RES1    0.0000
     53 H28        9.9902    9.7862   22.7186 H         1 RES1    0.0000
     54 C22        8.0436    9.3271   23.0536 C.ar      1 RES1    0.0000
     55 H29        8.0864    9.3940   24.0006 H         1 RES1    0.0000
     56 C23        6.8530    8.9883   22.4379 C.ar      1 RES1    0.0000
     57 H30        6.0818    8.8139   22.9635 H         1 RES1    0.0000
     58 C24        6.7782    8.9002   21.0456 C.ar      1 RES1    0.0000
     59 H31        5.9575    8.6752   20.6224 H         1 RES1    0.0000
     60 O4         3.5790    3.4672    7.0197 O.3       2 RES2    0.0000
     61 O5         4.6490    2.1046    3.8394 O.3       2 RES2    0.0000
     62 O6         6.8425    2.6243    3.8921 O.2       2 RES2    0.0000
     63 N2         2.2690    3.7028    7.6287 N.3       2 RES2    0.0000
     64 C25        2.3744    4.9877    8.4050 C.3       2 RES2    0.0000
     65 C26        1.0556    5.1599    9.1746 C.3       2 RES2    0.0000
     66 H32        1.1234    5.9627    9.7485 H         2 RES2    0.0000
     67 H33        0.3253    5.3150    8.5239 H         2 RES2    0.0000
     68 C27        0.6936    3.9700   10.0409 C.3       2 RES2    0.0000
     69 H34       -0.1814    4.1233   10.4789 H         2 RES2    0.0000
     70 H35        1.3774    3.8422   10.7459 H         2 RES2    0.0000
     71 C28        0.6235    2.7392    9.1519 C.3       2 RES2    0.0000
     72 H36       -0.1114    2.8558    8.4974 H         2 RES2    0.0000
     73 H37        0.4056    1.9510    9.7110 H         2 RES2    0.0000
     74 C29        1.9220    2.4629    8.3933 C.3       2 RES2    0.0000
     75 C30        3.5805    5.0915    9.3368 C.3       2 RES2    0.0000
     76 H38        4.3844    4.7874    8.8659 H         2 RES2    0.0000
     77 H39        3.4321    4.5309   10.1258 H         2 RES2    0.0000
     78 H40        3.6987    6.0239    9.6161 H         2 RES2    0.0000
     79 C31        2.4596    6.1305    7.3926 C.3       2 RES2    0.0000
     80 H41        1.7575    6.0228    6.7189 H         2 RES2    0.0000
     81 H42        3.3370    6.1151    6.9550 H         2 RES2    0.0000
     82 H43        2.3395    6.9860    7.8553 H         2 RES2    0.0000
     83 C32        3.0133    1.9384    9.3536 C.3       2 RES2    0.0000
     84 H44        3.0654    2.5205   10.1391 H         2 RES2    0.0000
     85 H45        3.8781    1.9312    8.8924 H         2 RES2    0.0000
     86 H46        2.7878    1.0272    9.6382 H         2 RES2    0.0000
     87 C33        1.6458    1.3627    7.3615 C.3       2 RES2    0.0000
     88 H47        1.0316    1.7030    6.6770 H         2 RES2    0.0000
     89 H48        1.2420    0.5907    7.8090 H         2 RES2    0.0000
     90 H49        2.4883    1.0940    6.9396 H         2 RES2    0.0000
     91 C34        3.5032    3.3415    5.5775 C.3       2 RES2    0.0000
     92 H50        2.5940    3.0212    5.3090 H         2 RES2    0.0000
     93 C35        3.8190    4.6421    4.8758 C.ar      2 RES2    0.0000
     94 C36        2.8691    5.2560    4.0795 C.ar      2 RES2    0.0000
     95 H51        2.0351    4.8271    3.9232 H         2 RES2    0.0000
     96 C37        3.1265    6.4961    3.5060 C.ar      2 RES2    0.0000
     97 H52        2.4661    6.9187    2.9700 H         2 RES2    0.0000
     98 C38        4.3473    7.1129    3.7176 C.ar      2 RES2    0.0000
     99 H53        4.5186    7.9670    3.3363 H         2 RES2    0.0000
    100 C39        5.3197    6.4893    4.4833 C.ar      2 RES2    0.0000
    101 H54        6.1652    6.9044    4.6117 H         2 RES2    0.0000
    102 C40        5.0549    5.2630    5.0578 C.ar      2 RES2    0.0000
    103 H55        5.7217    4.8355    5.5826 H         2 RES2    0.0000
    104 C41        4.5428    2.2676    5.2756 C.3       2 RES2    0.0000
    105 H56        5.4201    2.5330    5.6510 H         2 RES2    0.0000
    106 H57        4.2733    1.4118    5.6929 H         2 RES2    0.0000
    107 C42        5.8563    2.3154    3.2721 C.2       2 RES2    0.0000
    108 C43        5.8366    2.0879    1.7977 C.ar      2 RES2    0.0000
    109 C44        7.0082    2.3322    1.0911 C.ar      2 RES2    0.0000
    110 H58        7.7878    2.6250    1.5490 H         2 RES2    0.0000
    111 C45        7.0375    2.1456   -0.2831 C.ar      2 RES2    0.0000
    112 H59        7.8353    2.3162   -0.7679 H         2 RES2    0.0000
    113 C46        5.9079    1.7114   -0.9442 C.ar      2 RES2    0.0000
    114 H60        5.9334    1.5790   -1.8844 H         2 RES2    0.0000
    115 C47        4.7403    1.4698   -0.2491 C.ar      2 RES2    0.0000
    116 H61        3.9680    1.1726   -0.7149 H         2 RES2    0.0000
    117 C48        4.6873    1.6581    1.1267 C.ar      2 RES2    0.0000
    118 H62        3.8820    1.4984    1.6042 H         2 RES2    0.0000
@<TRIPOS>BOND
     1    1    4 1
     2    2   45 1
     3    3   48 2
     4    4    5 1
     5    5    6 1
     6    6    7 1
     7    8    6 1
     8    9    6 1
     9   10    9 1
    10   11    9 1
    11   12    9 1
    12   13   12 1
    13   14   12 1
    14   15    4 1
    15   16    5 1
    16   17   16 1
    17   18   16 1
    18   19   16 1
    19   20    5 1
    20   21   20 1
    21   22   20 1
    22   23   20 1
    23   24   15 1
    24   25   24 1
    25   26   24 1
    26   27   24 1
    27   28   15 1
    28   29   28 1
    29   30   28 1
    30   31   28 1
    31   32    1 1
    32   33   32 1
    33   34   32 1
    34   35   34 ar
    35   36   35 1
    36   37   35 ar
    37   38   37 1
    38   39   37 ar
    39   40   39 1
    40   41   39 ar
    41   42   41 1
    42   43   34 ar
    43   44   43 1
    44   45   32 1
    45   46   45 1
    46   47   45 1
    47   48    2 1
    48   49   48 1
    49   50   49 ar
    50   51   50 1
    51   52   50 ar
    52   53   52 1
    53   54   52 ar
    54   55   54 1
    55   56   54 ar
    56   57   56 1
    57   58   49 ar
    58   59   58 1
    59   60   63 1
    60   61  104 1
    61   62  107 2
    62   63   64 1
    63   64   65 1
    64   65   66 1
    65   67   65 1
    66   68   65 1
    67   69   68 1
    68   70   68 1
    69   71   68 1
    70   72   71 1
    71   73   71 1
    72   74   63 1
    73   75   64 1
    74   76   75 1
    75   77   75 1
    76   78   75 1
    77   79   64 1
    78   80   79 1
    79   81   79 1
    80   82   79 1
    81   83   74 1
    82   84   83 1
    83   85   83 1
    84   86   83 1
    85   87   74 1
    86   88   87 1
    87   89   87 1
    88   90   87 1
    89   91   60 1
    90   92   91 1
    91   93   91 1
    92   94   93 ar
    93   95   94 1
    94   96   94 ar
    95   97   96 1
    96   98   96 ar
    97   99   98 1
    98  100   98 ar
    99  101  100 1
   100  102   93 ar
   101  103  102 1
   102  104   91 1
   103  105  104 1
   104  106  104 1
   105  107   61 1
   106  108  107 1
   107  109  108 ar
   108  110  109 1
   109  111  109 ar
   110  112  111 1
   111  113  111 ar
   112  114  113 1
   113  115  113 ar
   114  116  115 1
   115  117  108 ar
   116  118  117 1
   117   12   15 1
   118   41   43 ar
   119   56   58 ar
   120   71   74 1
   121  100  102 ar
   122  115  117 ar
@<TRIPOS>SUBSTRUCTURE
     1 RES1 1
     2 RES2 60

@<TRIPOS>CRYSIN
   6.3039   15.2176   22.4312  80.1900  85.7520  84.3440   2 1

