# MOL2 file generated by ConQuest
# Please check atom types

@<TRIPOS>MOLECULE
GILSUS
    48    51     1
SMALL
NO_CHARGES
****
Generated from CSD

@<TRIPOS>ATOM
      1 O1         8.6555    4.2962    2.5712 O.3       1 RES1    0.0000
      2 O2        11.3802    4.6844    9.5124 O.3       1 RES1    0.0000
      3 O3        13.0129    4.0685    8.0988 O.2       1 RES1    0.0000
      4 C1         6.6798    3.7983   -0.4762 C.ar      1 RES1    0.0000
      5 H1         6.3182    3.1227   -1.0034 H         1 RES1    0.0000
      6 N1         5.7651    5.4416   -2.0455 N.pl3     1 RES1    0.0000
      7 C2         7.6138    2.1261    1.1378 C.2       1 RES1    0.0000
      8 H2         7.3002    1.4142    0.6282 H         1 RES1    0.0000
      9 N2         7.9896    2.9916    4.4275 N.3       1 RES1    0.0000
     10 C3        11.8360    4.2639    8.3202 C.2       1 RES1    0.0000
     11 C4        10.1412    3.3608    5.1047 C.ar      1 RES1    0.0000
     12 C5         7.9301    4.5300    1.4455 C.ar      1 RES1    0.0000
     13 O4         5.3954    4.5074   -2.7655 O.2       1 RES1    0.0000
     14 C6         7.3942    3.4894    0.6778 C.ar      1 RES1    0.0000
     15 C7        10.7580    4.0390    7.3273 C.ar      1 RES1    0.0000
     16 O5         5.5339    6.6262   -2.2978 O.2       1 RES1    0.0000
     17 C8         8.7909    3.4206    5.4734 C.ar      1 RES1    0.0000
     18 C9         7.7595    5.8633    1.0678 C.ar      1 RES1    0.0000
     19 H3         8.1285    6.5453    1.5797 H         1 RES1    0.0000
     20 C10        7.0392    6.1620   -0.0717 C.ar      1 RES1    0.0000
     21 H4         6.9075    7.0466   -0.3283 H         1 RES1    0.0000
     22 C11        6.5155    5.1248   -0.8275 C.ar      1 RES1    0.0000
     23 C12       11.1252    3.6568    6.0262 C.ar      1 RES1    0.0000
     24 H5        12.0229    3.6038    5.7877 H         1 RES1    0.0000
     25 C13        9.4027    4.1270    7.6676 C.ar      1 RES1    0.0000
     26 H6         9.1663    4.3926    8.5266 H         1 RES1    0.0000
     27 C14        8.7541    2.9630    3.1910 C.3       1 RES1    0.0000
     28 C15       10.6570    1.3382    3.7653 C.3       1 RES1    0.0000
     29 H7        11.5008    1.2621    4.2164 H         1 RES1    0.0000
     30 H8        10.7364    0.9812    2.8779 H         1 RES1    0.0000
     31 H9         9.9891    0.8470    4.2499 H         1 RES1    0.0000
     32 C16        8.2554    1.8823    2.2759 C.2       1 RES1    0.0000
     33 H10        8.4036    0.9969    2.5178 H         1 RES1    0.0000
     34 C17        8.4027    3.8257    6.7496 C.ar      1 RES1    0.0000
     35 H11        7.5041    3.8925    6.9787 H         1 RES1    0.0000
     36 C18        6.5518    3.2174    4.4114 C.3       1 RES1    0.0000
     37 H12        6.1583    2.8307    5.1980 H         1 RES1    0.0000
     38 H13        6.1724    2.8083    3.6301 H         1 RES1    0.0000
     39 H14        6.3767    4.1610    4.3956 H         1 RES1    0.0000
     40 C19       10.2472    2.8237    3.6872 C.3       1 RES1    0.0000
     41 C20       11.2404    3.5852    2.8129 C.3       1 RES1    0.0000
     42 H15       11.0548    4.5258    2.8629 H         1 RES1    0.0000
     43 H16       11.1575    3.2906    1.9030 H         1 RES1    0.0000
     44 H17       12.1328    3.4181    3.1242 H         1 RES1    0.0000
     45 C21       12.3854    4.7887   10.5512 C.3       1 RES1    0.0000
     46 H18       13.0417    5.4421   10.2972 H         1 RES1    0.0000
     47 H19       12.8122    3.9373   10.6708 H         1 RES1    0.0000
     48 H20       11.9690    5.0561   11.3744 H         1 RES1    0.0000
@<TRIPOS>BOND
     1    1   12 1
     2    2   10 1
     3    3   10 2
     4    4    5 1
     5    6   13 2
     6    7    8 1
     7    9   17 1
     8   10   15 1
     9   11   17 ar
    10   12   14 ar
    11   14    4 ar
    12   15   23 ar
    13   16    6 2
    14   17   34 ar
    15   18   12 ar
    16   19   18 1
    17   20   18 ar
    18   21   20 1
    19   22    4 ar
    20   23   11 ar
    21   24   23 1
    22   25   15 ar
    23   26   25 1
    24   27    1 1
    25   28   29 1
    26   30   28 1
    27   31   28 1
    28   32    7 2
    29   33   32 1
    30   34   25 ar
    31   35   34 1
    32   36    9 1
    33   37   36 1
    34   38   36 1
    35   39   36 1
    36   40   11 1
    37   41   40 1
    38   42   41 1
    39   43   41 1
    40   44   41 1
    41   45    2 1
    42   46   45 1
    43   47   45 1
    44   48   45 1
    45    6   22 1
    46    7   14 1
    47    9   27 1
    48   20   22 ar
    49   27   32 1
    50   27   40 1
    51   28   40 1
@<TRIPOS>SUBSTRUCTURE
     1 RES1 1

@<TRIPOS>CRYSIN
  10.0146   11.1886   17.0626  90.0000 100.9550  90.0000  14 1

