# MOL2 file generated by ConQuest
# Please check atom types

@<TRIPOS>MOLECULE
GILWAC
    43    45     1
SMALL
NO_CHARGES
****
Generated from CSD

@<TRIPOS>ATOM
      1 O1         7.1266   -0.4029    3.5935 O.3       1 RES1    0.0000
      2 O2         4.2003    1.2596    1.1437 O.3       1 RES1    0.0000
      3 O3         9.6382    3.3002    2.8327 O.2       1 RES1    0.0000
      4 O4        10.6275    3.5288    4.8711 O.3       1 RES1    0.0000
      5 N1         7.6285    0.7810    4.1763 N.2       1 RES1    0.0000
      6 N2         4.8911    3.2868    1.8248 N.2       1 RES1    0.0000
      7 N3         8.4429    3.3552    4.7529 N.am      1 RES1    0.0000
      8 H1         8.4943    3.4524    5.6092 H         1 RES1    0.0000
      9 C1         6.9416    1.7630    3.6626 C.2       1 RES1    0.0000
     10 C2         5.9724    1.2723    2.7357 C.2       1 RES1    0.0000
     11 C3         6.1345   -0.0556    2.7547 C.2       1 RES1    0.0000
     12 H2         5.6303   -0.6563    2.2556 H         1 RES1    0.0000
     13 C4         5.0370    2.0151    1.9216 C.2       1 RES1    0.0000
     14 C5         3.8434    3.4530    0.8876 C.ar      1 RES1    0.0000
     15 C6         3.2347    4.5846    0.3874 C.ar      1 RES1    0.0000
     16 H3         3.5082    5.4359    0.6417 H         1 RES1    0.0000
     17 C7         2.1926    4.3956   -0.5134 C.ar      1 RES1    0.0000
     18 H4         1.7457    5.1336   -0.8592 H         1 RES1    0.0000
     19 C8         1.8113    3.1279   -0.9008 C.ar      1 RES1    0.0000
     20 H5         1.1191    3.0408   -1.5152 H         1 RES1    0.0000
     21 C9         2.4132    1.9809   -0.4148 C.ar      1 RES1    0.0000
     22 H6         2.1517    1.1262   -0.6714 H         1 RES1    0.0000
     23 C10        3.4311    2.2108    0.4789 C.ar      1 RES1    0.0000
     24 C11        7.1535    3.1835    4.1163 C.3       1 RES1    0.0000
     25 H7         7.1115    3.7708    3.3335 H         1 RES1    0.0000
     26 C12        6.0677    3.5878    5.0768 C.3       1 RES1    0.0000
     27 H8         5.2145    3.5221    4.6419 H         1 RES1    0.0000
     28 H9         6.2126    4.4934    5.3621 H         1 RES1    0.0000
     29 H10        6.0819    3.0059    5.8410 H         1 RES1    0.0000
     30 C13        9.5729    3.3813    4.0402 C.2       1 RES1    0.0000
     31 C14       11.9863    3.5462    4.3792 C.3       1 RES1    0.0000
     32 C15       12.3072    2.2484    3.6603 C.3       1 RES1    0.0000
     33 H11       13.2511    2.2001    3.4927 H         1 RES1    0.0000
     34 H12       11.8318    2.2182    2.8272 H         1 RES1    0.0000
     35 H13       12.0424    1.5056    4.2069 H         1 RES1    0.0000
     36 C16       12.7840    3.6481    5.6805 C.3       1 RES1    0.0000
     37 H14       13.7215    3.6984    5.4785 H         1 RES1    0.0000
     38 H15       12.6137    2.8732    6.2213 H         1 RES1    0.0000
     39 H16       12.5161    4.4364    6.1583 H         1 RES1    0.0000
     40 C17       12.2203    4.7562    3.4975 C.3       1 RES1    0.0000
     41 H17       13.1584    4.8380    3.3085 H         1 RES1    0.0000
     42 H18       11.9143    5.5459    3.9502 H         1 RES1    0.0000
     43 H19       11.7357    4.6510    2.6751 H         1 RES1    0.0000
@<TRIPOS>BOND
     1    1    5 1
     2    2   13 1
     3    3   30 2
     4    4   30 1
     5    5    9 2
     6    6   13 2
     7    7    8 1
     8    9   10 1
     9   10   11 2
    10   11    1 1
    11   12   11 1
    12   13   10 1
    13   14    6 1
    14   15   14 ar
    15   16   15 1
    16   17   15 ar
    17   18   17 1
    18   19   17 ar
    19   20   19 1
    20   21   19 ar
    21   22   21 1
    22   23    2 1
    23   24    7 1
    24   25   24 1
    25   26   24 1
    26   27   26 1
    27   28   26 1
    28   29   26 1
    29   30    7 1
    30   31    4 1
    31   32   31 1
    32   33   32 1
    33   34   32 1
    34   35   32 1
    35   36   31 1
    36   37   36 1
    37   38   36 1
    38   39   36 1
    39   40   31 1
    40   41   40 1
    41   42   40 1
    42   43   40 1
    43    9   24 1
    44   14   23 ar
    45   21   23 ar
@<TRIPOS>SUBSTRUCTURE
     1 RES1 1

@<TRIPOS>CRYSIN
  10.9324    6.7036   13.0141  90.0000 114.0540  90.0000   4 1

