# MOL2 file generated by ConQuest
# Please check atom types

@<TRIPOS>MOLECULE
GILYAD
   134   138     2
SMALL
NO_CHARGES
****
Generated from CSD

@<TRIPOS>ATOM
      1 O1        11.9879    4.2465    6.8051 O.3       1 RES1    0.0000
      2 O2        13.8406    3.7270    7.9481 O.2       1 RES1    0.0000
      3 O3        12.0239    4.6639    8.9089 O.3       1 RES1    0.0000
      4 O4        10.7496    6.7574    4.6920 O.2       1 RES1    0.0000
      5 O5        12.8005    6.6410    5.5326 O.3       1 RES1    0.0000
      6 O6        11.8095    6.8973    1.5816 O.2       1 RES1    0.0000
      7 O7         9.8685    5.9083    1.1899 O.3       1 RES1    0.0000
      8 O8        11.7461   -2.3606    4.9839 O.2       1 RES1    0.0000
      9 O9        13.7123   -2.2443    4.2205 O.2       1 RES1    0.0000
     10 N1        10.6516    4.1085    4.1878 N.2       1 RES1    0.0000
     11 N2        10.4242    4.0202    2.9776 N.2       1 RES1    0.0000
     12 N3        12.7290   -1.7273    4.7053 N.pl3     1 RES1    0.0000
     13 C1        12.7257   -0.2832    4.9422 C.ar      1 RES1    0.0000
     14 C2        11.5913    0.2923    5.4574 C.ar      1 RES1    0.0000
     15 H1        10.8434   -0.2237    5.6556 H         1 RES1    0.0000
     16 C3        11.5856    1.6498    5.6728 C.ar      1 RES1    0.0000
     17 H2        10.8291    2.0559    6.0290 H         1 RES1    0.0000
     18 C4        12.7005    2.4235    5.3627 C.ar      1 RES1    0.0000
     19 C5        13.8274    1.8038    4.8435 C.ar      1 RES1    0.0000
     20 H3        14.5766    2.3160    4.6367 H         1 RES1    0.0000
     21 C6        13.8564    0.4465    4.6302 C.ar      1 RES1    0.0000
     22 H4        14.6146    0.0314    4.2862 H         1 RES1    0.0000
     23 C7        12.6961    3.9166    5.5849 C.3       1 RES1    0.0000
     24 H5        13.6224    4.2281    5.6613 H         1 RES1    0.0000
     25 C8        11.9968    4.7113    4.4770 C.3       1 RES1    0.0000
     26 C9        12.7165    4.6718    3.1248 C.3       1 RES1    0.0000
     27 H6        13.2346    5.4788    2.9781 H         1 RES1    0.0000
     28 H7        13.3018    3.9008    3.0605 H         1 RES1    0.0000
     29 C10       11.5611    4.5706    2.1441 C.3       1 RES1    0.0000
     30 C11       11.7681    3.6849    0.9017 C.3       1 RES1    0.0000
     31 H8        10.9159    3.6008    0.4462 H         1 RES1    0.0000
     32 H9        12.3735    4.1450    0.3007 H         1 RES1    0.0000
     33 C12       12.3100    2.2988    1.1424 C.ar      1 RES1    0.0000
     34 C13       13.6584    2.0347    1.0164 C.ar      1 RES1    0.0000
     35 H10       14.2471    2.7305    0.8293 H         1 RES1    0.0000
     36 C14       14.1481    0.7530    1.1654 C.ar      1 RES1    0.0000
     37 H11       15.0594    0.5918    1.0802 H         1 RES1    0.0000
     38 C15       13.2960   -0.2755    1.4370 C.ar      1 RES1    0.0000
     39 H12       13.6248   -1.1406    1.5226 H         1 RES1    0.0000
     40 C16       11.9676   -0.0389    1.5821 C.ar      1 RES1    0.0000
     41 H13       11.3907   -0.7414    1.7754 H         1 RES1    0.0000
     42 C17       11.4693    1.2420    1.4433 C.ar      1 RES1    0.0000
     43 H14       10.5590    1.3960    1.5532 H         1 RES1    0.0000
     44 C18       12.7429    4.1720    7.9147 C.2       1 RES1    0.0000
     45 C19       12.5898    4.6755   10.2840 C.3       1 RES1    0.0000
     46 C20       11.5061    5.3542   11.0712 C.3       1 RES1    0.0000
     47 H15       11.3394    6.2244   10.7021 H         1 RES1    0.0000
     48 H16       11.7819    5.4410   11.9872 H         1 RES1    0.0000
     49 H17       10.7026    4.8294   11.0277 H         1 RES1    0.0000
     50 C21       13.8448    5.4839   10.3183 C.3       1 RES1    0.0000
     51 H18       14.5258    5.0388    9.8077 H         1 RES1    0.0000
     52 H19       14.1374    5.5810   11.2269 H         1 RES1    0.0000
     53 H20       13.6776    6.3502    9.9418 H         1 RES1    0.0000
     54 C22       12.8165    3.2542   10.7190 C.3       1 RES1    0.0000
     55 H21       12.0220    2.7412   10.5604 H         1 RES1    0.0000
     56 H22       13.0272    3.2361   11.6559 H         1 RES1    0.0000
     57 H23       13.5452    2.8795   10.2195 H         1 RES1    0.0000
     58 C23       11.7510    6.1509    4.9178 C.2       1 RES1    0.0000
     59 C24       12.7469    8.0131    5.9656 C.3       1 RES1    0.0000
     60 H24       12.6010    8.5827    5.2074 H         1 RES1    0.0000
     61 H25       13.5766    8.2485    6.3872 H         1 RES1    0.0000
     62 H26       12.0275    8.1234    6.5921 H         1 RES1    0.0000
     63 C25       11.1101    5.9426    1.6335 C.2       1 RES1    0.0000
     64 C26        9.3426    7.1260    0.6184 C.3       1 RES1    0.0000
     65 H27        9.8665    7.3733   -0.1475 H         1 RES1    0.0000
     66 H28        9.3797    7.8289    1.2717 H         1 RES1    0.0000
     67 H29        8.4314    6.9863    0.3505 H         1 RES1    0.0000
     68 O10       17.3765    1.9030    4.3402 O.3       2 RES2    0.0000
     69 O11       19.2535    0.7109    4.6221 O.2       2 RES2    0.0000
     70 O12       17.3810   -0.1434    3.6982 O.3       2 RES2    0.0000
     71 O13       17.2389    7.5033    2.3208 O.2       2 RES2    0.0000
     72 O14       15.2694    7.6340    3.3367 O.3       2 RES2    0.0000
     73 O15       16.0647    4.2701    2.1408 O.2       2 RES2    0.0000
     74 O16       18.1374    3.4812    2.0680 O.3       2 RES2    0.0000
     75 O17       17.1442    3.2917   11.1041 O.2       2 RES2    0.0000
     76 O18       19.2399    3.6500   11.0662 O.2       2 RES2    0.0000
     77 N4        16.0698    4.5278    4.8102 N.2       2 RES2    0.0000
     78 N5        15.8735    5.7274    5.0360 N.2       2 RES2    0.0000
     79 N6        18.1892    3.4208   10.5125 N.pl3     2 RES2    0.0000
     80 C27       18.1776    3.2819    9.0474 C.ar      2 RES2    0.0000
     81 C28       19.3174    3.5871    8.3393 C.ar      2 RES2    0.0000
     82 H30       20.1011    3.8315    8.7773 H         2 RES2    0.0000
     83 C29       19.2667    3.5213    6.9667 C.ar      2 RES2    0.0000
     84 H31       20.0223    3.7415    6.4714 H         2 RES2    0.0000
     85 C30       18.1115    3.1331    6.3092 C.ar      2 RES2    0.0000
     86 C31       16.9881    2.8124    7.0602 C.ar      2 RES2    0.0000
     87 H32       16.2110    2.5340    6.6304 H         2 RES2    0.0000
     88 C32       17.0134    2.9031    8.4278 C.ar      2 RES2    0.0000
     89 H33       16.2534    2.7105    8.9286 H         2 RES2    0.0000
     90 C33       18.0940    3.0797    4.8002 C.3       2 RES2    0.0000
     91 H34       19.0170    3.0355    4.4739 H         2 RES2    0.0000
     92 C34       17.3933    4.2748    4.1439 C.3       2 RES2    0.0000
     93 C35       18.1387    5.5999    4.2948 C.3       2 RES2    0.0000
     94 H35       18.7519    5.5756    5.0465 H         2 RES2    0.0000
     95 H36       18.6316    5.8206    3.4895 H         2 RES2    0.0000
     96 C36       17.0098    6.5859    4.5363 C.3       2 RES2    0.0000
     97 C37       17.2893    7.7232    5.5368 C.3       2 RES2    0.0000
     98 H37       17.9490    8.3168    5.1442 H         2 RES2    0.0000
     99 H38       16.4734    8.2339    5.6517 H         2 RES2    0.0000
    100 C38       17.7802    7.3059    6.8978 C.ar      2 RES2    0.0000
    101 C39       16.9042    6.9759    7.9069 C.ar      2 RES2    0.0000
    102 H39       15.9924    6.9401    7.7297 H         2 RES2    0.0000
    103 C40       17.3665    6.6974    9.1834 C.ar      2 RES2    0.0000
    104 H40       16.7635    6.4855    9.8594 H         2 RES2    0.0000
    105 C41       18.7004    6.7334    9.4513 C.ar      2 RES2    0.0000
    106 H41       19.0080    6.5595   10.3114 H         2 RES2    0.0000
    107 C42       19.5833    7.0223    8.4598 C.ar      2 RES2    0.0000
    108 H42       20.4948    7.0258    8.6395 H         2 RES2    0.0000
    109 C43       19.1335    7.3120    7.1893 C.ar      2 RES2    0.0000
    110 H43       19.7475    7.5132    6.5193 H         2 RES2    0.0000
    111 C44       18.1325    0.7915    4.2554 C.2       2 RES2    0.0000
    112 C45       17.8961   -1.5256    3.5674 C.3       2 RES2    0.0000
    113 C46       16.7976   -2.1866    2.7560 C.3       2 RES2    0.0000
    114 H44       15.9583   -2.0825    3.2099 H         2 RES2    0.0000
    115 H45       16.9929   -3.1202    2.6525 H         2 RES2    0.0000
    116 H46       16.7467   -1.7732    1.8903 H         2 RES2    0.0000
    117 C47       19.1842   -1.5479    2.8000 C.3       2 RES2    0.0000
    118 H47       19.4015   -2.4530    2.5664 H         2 RES2    0.0000
    119 H48       19.8864   -1.1799    3.3420 H         2 RES2    0.0000
    120 H49       19.0888   -1.0259    1.9995 H         2 RES2    0.0000
    121 C48       18.0282   -2.1032    4.9380 C.3       2 RES2    0.0000
    122 H50       17.2104   -1.9662    5.4238 H         2 RES2    0.0000
    123 H51       18.7496   -1.6708    5.3989 H         2 RES2    0.0000
    124 H52       18.2070   -3.0443    4.8723 H         2 RES2    0.0000
    125 C49       17.0947    4.0012    2.6761 C.2       2 RES2    0.0000
    126 C50       18.0338    3.2513    0.6538 C.3       2 RES2    0.0000
    127 H53       17.9018    4.0876    0.2030 H         2 RES2    0.0000
    128 H54       17.2886    2.6720    0.4788 H         2 RES2    0.0000
    129 H55       18.8405    2.8394    0.3371 H         2 RES2    0.0000
    130 C51       16.5344    7.2702    3.2516 C.2       2 RES2    0.0000
    131 C52       14.7366    8.4106    2.2404 C.3       2 RES2    0.0000
    132 H56       14.8146    7.9092    1.4249 H         2 RES2    0.0000
    133 H57       15.2285    9.2308    2.1603 H         2 RES2    0.0000
    134 H58       13.8114    8.6064    2.4074 H         2 RES2    0.0000
@<TRIPOS>BOND
     1    1   23 1
     2    2   44 2
     3    3   44 1
     4    4   58 2
     5    5   58 1
     6    6   63 2
     7    7   63 1
     8    8   12 2
     9    9   12 2
    10   10   11 2
    11   11   29 1
    12   12   13 1
    13   13   14 ar
    14   14   15 1
    15   16   14 ar
    16   17   16 1
    17   18   16 ar
    18   19   18 ar
    19   20   19 1
    20   21   13 ar
    21   22   21 1
    22   23   18 1
    23   24   23 1
    24   25   10 1
    25   26   25 1
    26   27   26 1
    27   28   26 1
    28   29   26 1
    29   30   29 1
    30   31   30 1
    31   32   30 1
    32   33   30 1
    33   34   33 ar
    34   35   34 1
    35   36   34 ar
    36   37   36 1
    37   38   36 ar
    38   39   38 1
    39   40   38 ar
    40   41   40 1
    41   42   33 ar
    42   43   42 1
    43   44    1 1
    44   45    3 1
    45   46   45 1
    46   47   46 1
    47   48   46 1
    48   49   46 1
    49   50   45 1
    50   51   50 1
    51   52   50 1
    52   53   50 1
    53   54   45 1
    54   55   54 1
    55   56   54 1
    56   57   54 1
    57   58   25 1
    58   59    5 1
    59   60   59 1
    60   61   59 1
    61   62   59 1
    62   63   29 1
    63   64    7 1
    64   65   64 1
    65   66   64 1
    66   67   64 1
    67   68   90 1
    68   69  111 2
    69   70  111 1
    70   71  130 2
    71   72  130 1
    72   73  125 2
    73   74  125 1
    74   75   79 2
    75   76   79 2
    76   77   78 2
    77   78   96 1
    78   79   80 1
    79   80   81 ar
    80   81   82 1
    81   83   81 ar
    82   84   83 1
    83   85   83 ar
    84   86   85 ar
    85   87   86 1
    86   88   80 ar
    87   89   88 1
    88   90   85 1
    89   91   90 1
    90   92   77 1
    91   93   92 1
    92   94   93 1
    93   95   93 1
    94   96   93 1
    95   97   96 1
    96   98   97 1
    97   99   97 1
    98  100   97 1
    99  101  100 ar
   100  102  101 1
   101  103  101 ar
   102  104  103 1
   103  105  103 ar
   104  106  105 1
   105  107  105 ar
   106  108  107 1
   107  109  100 ar
   108  110  109 1
   109  111   68 1
   110  112   70 1
   111  113  112 1
   112  114  113 1
   113  115  113 1
   114  116  113 1
   115  117  112 1
   116  118  117 1
   117  119  117 1
   118  120  117 1
   119  121  112 1
   120  122  121 1
   121  123  121 1
   122  124  121 1
   123  125   92 1
   124  126   74 1
   125  127  126 1
   126  128  126 1
   127  129  126 1
   128  130   96 1
   129  131   72 1
   130  132  131 1
   131  133  131 1
   132  134  131 1
   133   19   21 ar
   134   23   25 1
   135   40   42 ar
   136   86   88 ar
   137   90   92 1
   138  107  109 ar
@<TRIPOS>SUBSTRUCTURE
     1 RES1 1
     2 RES2 68

@<TRIPOS>CRYSIN
  10.8003   13.2507   20.1596  77.1360  74.7870  77.3150   2 1

