# MOL2 file generated by ConQuest
# Please check atom types

@<TRIPOS>MOLECULE
GILYEG
   126   134     2
SMALL
NO_CHARGES
****
Generated from CSD

@<TRIPOS>ATOM
      1 N1        -0.0867    3.8615    8.9607 N.2       1 RES1    0.0000
      2 N2        -0.5078    3.4200    7.7218 N.pl3     1 RES1    0.0000
      3 C1         0.0324    4.1912    6.8232 C.2       1 RES1    0.0000
      4 H1        -0.0877    4.0849    5.9069 H         1 RES1    0.0000
      5 C2         0.7838    5.1641    7.3724 C.2       1 RES1    0.0000
      6 C3         0.6629    4.8888    8.7559 C.2       1 RES1    0.0000
      7 C4         1.5919    6.2078    6.6411 C.3       1 RES1    0.0000
      8 H2         2.3888    6.4013    7.1775 H         1 RES1    0.0000
      9 N3         0.8780    7.4204    6.4610 N.3       1 RES1    0.0000
     10 O1        -0.0057    7.0253    5.2963 O.3       1 RES1    0.0000
     11 C5         0.9411    6.3141    4.3532 C.3       1 RES1    0.0000
     12 H3         1.2961    6.9218    3.6724 H         1 RES1    0.0000
     13 C6         2.0469    5.7881    5.2666 C.3       1 RES1    0.0000
     14 H4         2.1229    4.8234    5.2043 H         1 RES1    0.0000
     15 H5         2.9024    6.1887    5.0449 H         1 RES1    0.0000
     16 C7        -1.3846    2.3191    7.6416 C.ar      1 RES1    0.0000
     17 C8        -1.5188    1.7005    6.4145 C.ar      1 RES1    0.0000
     18 H6        -1.0518    1.9920    5.6654 H         1 RES1    0.0000
     19 C9        -2.3817    0.6213    6.3551 C.ar      1 RES1    0.0000
     20 H7        -2.4564    0.1717    5.5437 H         1 RES1    0.0000
     21 C10       -3.1287    0.1717    7.3962 C.ar      1 RES1    0.0000
     22 H8        -3.7061   -0.5505    7.2923 H         1 RES1    0.0000
     23 C11       -3.0081    0.8066    8.6084 C.ar      1 RES1    0.0000
     24 H9        -3.5153    0.5532    9.3447 H         1 RES1    0.0000
     25 C12       -2.0566    1.8912    8.6837 C.ar      1 RES1    0.0000
     26 H10       -1.9130    2.3000    9.5050 H         1 RES1    0.0000
     27 C13        1.4962    8.5977    6.1553 C.ar      1 RES1    0.0000
     28 C14        1.1197    9.4697    5.1251 C.ar      1 RES1    0.0000
     29 H11        0.4042    9.2381    4.5788 H         1 RES1    0.0000
     30 C15        1.7660   10.6415    4.9005 C.ar      1 RES1    0.0000
     31 H12        1.4344   11.2220    4.2542 H         1 RES1    0.0000
     32 C16        2.8731   10.9903    5.5882 C.ar      1 RES1    0.0000
     33 H13        3.3588   11.7534    5.3705 H         1 RES1    0.0000
     34 C17        3.2370   10.2355    6.5412 C.ar      1 RES1    0.0000
     35 H14        3.9004   10.5434    7.1132 H         1 RES1    0.0000
     36 C18        2.7191    9.0065    6.7807 C.ar      1 RES1    0.0000
     37 H15        3.1613    8.4233    7.3546 H         1 RES1    0.0000
     38 O2         0.2143    5.2731    3.7792 O.3       1 RES1    0.0000
     39 C19       -0.5779    5.6655    2.6986 C.3       1 RES1    0.0000
     40 H16       -0.0152    6.0170    1.9911 H         1 RES1    0.0000
     41 H17       -1.1891    6.3631    2.9777 H         1 RES1    0.0000
     42 C20       -1.3601    4.4801    2.1830 C.3       1 RES1    0.0000
     43 H18       -1.9118    4.7553    1.4478 H         1 RES1    0.0000
     44 H19       -1.9135    4.1313    2.8856 H         1 RES1    0.0000
     45 H20       -0.7509    3.7988    1.8881 H         1 RES1    0.0000
     46 C21        1.3229    5.5592    9.8682 C.ar      1 RES1    0.0000
     47 C22        1.5250    6.9190    9.9157 C.ar      1 RES1    0.0000
     48 H21        1.1530    7.4586    9.2566 H         1 RES1    0.0000
     49 C23        2.3160    7.5322   10.9904 C.ar      1 RES1    0.0000
     50 H22        2.4772    8.4478   11.0042 H         1 RES1    0.0000
     51 C24        2.8119    6.7065   11.9750 C.ar      1 RES1    0.0000
     52 C25        2.5826    5.3521   11.9256 C.ar      1 RES1    0.0000
     53 H23        2.9110    4.8098   12.6044 H         1 RES1    0.0000
     54 C26        1.8690    4.7826   10.8815 C.ar      1 RES1    0.0000
     55 H24        1.7546    3.8587   10.8588 H         1 RES1    0.0000
     56 O3         3.5434    7.1643   13.0438 O.3       1 RES1    0.0000
     57 C27        3.7012    8.5704   13.1190 C.3       1 RES1    0.0000
     58 H25        2.8602    9.0037   13.3278 H         1 RES1    0.0000
     59 H26        4.0432    8.9274   12.2848 H         1 RES1    0.0000
     60 C28        4.7587    8.7639   14.3045 C.3       1 RES1    0.0000
     61 H27        4.9493    9.6986   14.4144 H         1 RES1    0.0000
     62 H28        5.5693    8.2952   14.0908 H         1 RES1    0.0000
     63 H29        4.3930    8.4124   15.1200 H         1 RES1    0.0000
     64 N4         4.8039   15.9827    4.1800 N.2       2 RES2    0.0000
     65 N5         4.4126   16.4051    2.9519 N.pl3     2 RES2    0.0000
     66 C29        4.9926   15.6693    1.8852 C.2       2 RES2    0.0000
     67 H30        4.8793   15.8029    0.9718 H         2 RES2    0.0000
     68 C30        5.7677   14.7074    2.5155 C.2       2 RES2    0.0000
     69 C31        5.5968   14.9063    3.9485 C.2       2 RES2    0.0000
     70 C32        6.5884   13.6746    1.7823 C.3       2 RES2    0.0000
     71 H31        7.3817   13.4266    2.3008 H         2 RES2    0.0000
     72 N6         5.7144   12.4346    1.4883 N.3       2 RES2    0.0000
     73 O4         4.9970   12.8161    0.3751 O.3       2 RES2    0.0000
     74 C33        5.8226   13.5792   -0.5136 C.3       2 RES2    0.0000
     75 H32        6.1610   13.0042   -1.2320 H         2 RES2    0.0000
     76 C34        6.9741   14.0642    0.3493 C.3       2 RES2    0.0000
     77 H33        7.0791   15.0262    0.2711 H         2 RES2    0.0000
     78 H34        7.8044   13.6364    0.0881 H         2 RES2    0.0000
     79 C35        3.5625   17.5197    2.7996 C.ar      2 RES2    0.0000
     80 C36        2.7673   17.9611    3.8980 C.ar      2 RES2    0.0000
     81 H35        2.7568   17.4842    4.6966 H         2 RES2    0.0000
     82 C37        2.0517   19.0484    3.7624 C.ar      2 RES2    0.0000
     83 H36        1.6594   19.4082    4.5244 H         2 RES2    0.0000
     84 C38        1.8422   19.6943    2.5640 C.ar      2 RES2    0.0000
     85 H37        1.2356   20.3974    2.4957 H         2 RES2    0.0000
     86 C39        2.5808   19.2556    1.4478 C.ar      2 RES2    0.0000
     87 H38        2.5003   19.6970    0.6314 H         2 RES2    0.0000
     88 C40        3.4015   18.2037    1.5665 C.ar      2 RES2    0.0000
     89 H39        3.8770   17.9121    0.8214 H         2 RES2    0.0000
     90 C41        6.5201   11.2247    1.2073 C.ar      2 RES2    0.0000
     91 C42        6.0069   10.4017    0.1920 C.ar      2 RES2    0.0000
     92 H40        5.2349   10.6470   -0.2652 H         2 RES2    0.0000
     93 C43        6.6669    9.2108   -0.1257 C.ar      2 RES2    0.0000
     94 H41        6.3688    8.6849   -0.8332 H         2 RES2    0.0000
     95 C44        7.7666    8.8157    0.6185 C.ar      2 RES2    0.0000
     96 H42        8.1936    8.0091    0.4404 H         2 RES2    0.0000
     97 C45        8.2502    9.6959    1.7001 C.ar      2 RES2    0.0000
     98 H43        9.0168    9.4724    2.1771 H         2 RES2    0.0000
     99 C46        7.5649   10.8459    1.9970 C.ar      2 RES2    0.0000
    100 H44        7.8101   11.3637    2.7303 H         2 RES2    0.0000
    101 O5         5.1068   14.6093   -1.0391 O.3       2 RES2    0.0000
    102 C47        4.2197   14.1814   -2.1068 C.3       2 RES2    0.0000
    103 H45        4.7252   13.7263   -2.7996 H         2 RES2    0.0000
    104 H46        3.5525   13.5683   -1.7615 H         2 RES2    0.0000
    105 C48        3.5941   15.3314   -2.6323 C.3       2 RES2    0.0000
    106 H47        3.0223   15.0807   -3.3616 H         2 RES2    0.0000
    107 H48        4.2668   15.9418   -2.9529 H         2 RES2    0.0000
    108 H49        3.0770   15.7565   -1.9485 H         2 RES2    0.0000
    109 C49        6.3750   14.2850    5.0717 C.ar      2 RES2    0.0000
    110 C50        6.5771   12.9470    5.0746 C.ar      2 RES2    0.0000
    111 H50        6.2599   12.4401    4.3631 H         2 RES2    0.0000
    112 C51        7.2162   12.3420    6.0682 C.ar      2 RES2    0.0000
    113 H51        7.3355   11.4209    6.0603 H         2 RES2    0.0000
    114 C52        7.7119   13.1186    7.1359 C.ar      2 RES2    0.0000
    115 C53        7.4792   14.4621    7.1735 C.ar      2 RES2    0.0000
    116 H52        7.8159   14.9717    7.8752 H         2 RES2    0.0000
    117 C54        6.7334   15.0753    6.1592 C.ar      2 RES2    0.0000
    118 H53        6.4888   15.9691    6.2107 H         2 RES2    0.0000
    119 O6         8.5131   12.6608    8.1433 O.3       2 RES2    0.0000
    120 C55        8.8306   11.2901    8.3017 C.3       2 RES2    0.0000
    121 H54        9.2557   10.9658    7.4932 H         2 RES2    0.0000
    122 H55        8.0115   10.7859    8.4323 H         2 RES2    0.0000
    123 C56        9.7001   11.0721    9.4130 C.3       2 RES2    0.0000
    124 H56        9.8684   10.1292    9.5070 H         2 RES2    0.0000
    125 H57        9.2881   11.4045   10.2136 H         2 RES2    0.0000
    126 H58       10.5306   11.5299    9.2655 H         2 RES2    0.0000
@<TRIPOS>BOND
     1    1    2 1
     2    2    3 1
     3    3    4 1
     4    5    3 2
     5    6    1 2
     6    7    5 1
     7    8    7 1
     8    9    7 1
     9   10    9 1
    10   11   10 1
    11   12   11 1
    12   13    7 1
    13   14   13 1
    14   15   13 1
    15   16    2 1
    16   17   16 ar
    17   18   17 1
    18   19   17 ar
    19   20   19 1
    20   21   19 ar
    21   22   21 1
    22   23   21 ar
    23   24   23 1
    24   25   16 ar
    25   26   25 1
    26   27    9 1
    27   28   27 ar
    28   29   28 1
    29   30   28 ar
    30   31   30 1
    31   32   30 ar
    32   33   32 1
    33   34   32 ar
    34   35   34 1
    35   36   27 ar
    36   37   36 1
    37   38   11 1
    38   39   38 1
    39   40   39 1
    40   41   39 1
    41   42   39 1
    42   43   42 1
    43   44   42 1
    44   45   42 1
    45   46    6 1
    46   47   46 ar
    47   48   47 1
    48   49   47 ar
    49   50   49 1
    50   51   49 ar
    51   52   51 ar
    52   53   52 1
    53   54   46 ar
    54   55   54 1
    55   56   51 1
    56   57   56 1
    57   58   57 1
    58   59   57 1
    59   60   57 1
    60   61   60 1
    61   62   60 1
    62   63   60 1
    63   64   65 1
    64   65   66 1
    65   66   67 1
    66   68   66 2
    67   69   64 2
    68   70   68 1
    69   71   70 1
    70   72   70 1
    71   73   72 1
    72   74   73 1
    73   75   74 1
    74   76   70 1
    75   77   76 1
    76   78   76 1
    77   79   65 1
    78   80   79 ar
    79   81   80 1
    80   82   80 ar
    81   83   82 1
    82   84   82 ar
    83   85   84 1
    84   86   84 ar
    85   87   86 1
    86   88   79 ar
    87   89   88 1
    88   90   72 1
    89   91   90 ar
    90   92   91 1
    91   93   91 ar
    92   94   93 1
    93   95   93 ar
    94   96   95 1
    95   97   95 ar
    96   98   97 1
    97   99   90 ar
    98  100   99 1
    99  101   74 1
   100  102  101 1
   101  103  102 1
   102  104  102 1
   103  105  102 1
   104  106  105 1
   105  107  105 1
   106  108  105 1
   107  109   69 1
   108  110  109 ar
   109  111  110 1
   110  112  110 ar
   111  113  112 1
   112  114  112 ar
   113  115  114 ar
   114  116  115 1
   115  117  109 ar
   116  118  117 1
   117  119  114 1
   118  120  119 1
   119  121  120 1
   120  122  120 1
   121  123  120 1
   122  124  123 1
   123  125  123 1
   124  126  123 1
   125    5    6 1
   126   11   13 1
   127   23   25 ar
   128   34   36 ar
   129   52   54 ar
   130   68   69 1
   131   74   76 1
   132   86   88 ar
   133   97   99 ar
   134  115  117 ar
@<TRIPOS>SUBSTRUCTURE
     1 RES1 1
     2 RES2 64

@<TRIPOS>CRYSIN
   8.8384   27.2510    9.9448  90.0000  95.6840  90.0000   4 1

