# MOL2 file generated by ConQuest
# Please check atom types

@<TRIPOS>MOLECULE
GILYUV
    60    70     2
SMALL
NO_CHARGES
****
Generated from CSD

@<TRIPOS>ATOM
      1 O1         6.3780    3.7338   -1.4081 O.2       1 RES1    0.0000
      2 O2         7.4031    5.1489   -0.1604 O.2       1 RES1    0.0000
      3 O3        -0.7937    4.1178    2.6339 O.2       1 RES1    0.0000
      4 O4         0.8168    3.0721    3.5581 O.2       1 RES1    0.0000
      5 O5         6.0283    4.2471    4.7688 O.2       2 RES2    0.0000
      6 O6         7.3888    3.2462    6.0905 O.2       2 RES2    0.0000
      7 N1         6.3778    4.6632   -0.6143 N.pl3     1 RES1    0.0000
      8 N2         0.3911    3.9309    2.8053 N.pl3     1 RES1    0.0000
      9 N3         7.1462    4.0399    5.1979 N.pl3     2 RES2    0.0000
     10 C1         5.0620    5.2616   -0.2139 C.3       1 RES1    0.0000
     11 C2         4.8651    5.2286    1.3012 C.3       1 RES1    0.0000
     12 C3         3.4204    5.7171    1.4369 C.3       1 RES1    0.0000
     13 C4         2.7580    4.9207    2.5750 C.3       1 RES1    0.0000
     14 C5         1.3468    4.7795    2.0265 C.3       1 RES1    0.0000
     15 C6         1.7510    4.1050    0.7034 C.3       1 RES1    0.0000
     16 C7         2.7229    5.1388    0.1467 C.3       1 RES1    0.0000
     17 C8         3.8546    4.4093   -0.5759 C.3       1 RES1    0.0000
     18 C9         4.7063    3.7375    1.5960 C.3       1 RES1    0.0000
     19 C10        3.4048    3.5496    2.3844 C.3       1 RES1    0.0000
     20 C11        2.6988    2.9924    1.1120 C.3       1 RES1    0.0000
     21 C12        4.0147    3.1830    0.3181 C.3       1 RES1    0.0000
     22 C13        8.4693    4.4799    3.1275 C.3       2 RES2    0.0000
     23 C14        8.2539    4.8455    4.5768 C.3       2 RES2    0.0000
     24 C15        9.6486    4.4716    5.0334 C.3       2 RES2    0.0000
     25 C16        9.8575    3.0813    4.4863 C.3       2 RES2    0.0000
     26 C17        9.0492    3.0831    3.1879 C.3       2 RES2    0.0000
     27 C18        9.6946    5.3010    2.7724 C.3       2 RES2    0.0000
     28 H1         5.1203    6.1589   -0.7404 H         1 RES1    0.0000
     29 H2         5.5197    5.6915    1.8373 H         1 RES1    0.0000
     30 H3         3.3397    6.6355    1.4260 H         1 RES1    0.0000
     31 H4         2.8808    5.2790    3.4278 H         1 RES1    0.0000
     32 H5         0.8104    5.7190    1.9059 H         1 RES1    0.0000
     33 H6         0.9851    3.8768    0.1097 H         1 RES1    0.0000
     34 H7         2.3079    5.8473   -0.3565 H         1 RES1    0.0000
     35 H8         3.7287    4.2251   -1.6179 H         1 RES1    0.0000
     36 H9         5.5033    3.2994    1.8921 H         1 RES1    0.0000
     37 H10        3.3341    3.0336    3.1673 H         1 RES1    0.0000
     38 H11        2.2706    2.1904    1.1929 H         1 RES1    0.0000
     39 H12        4.3785    2.4287   -0.0686 H         1 RES1    0.0000
     40 H13        7.7943    4.5642    2.5914 H         2 RES2    0.0000
     41 H14        8.0332    5.7556    4.8126 H         2 RES2    0.0000
     42 H15        9.7903    4.5642    5.9781 H         2 RES2    0.0000
     43 H16        9.6307    2.4562    5.0869 H         2 RES2    0.0000
     44 H17        8.3756    2.4196    3.0302 H         2 RES2    0.0000
     45 H18        9.5517    6.2322    2.5229 H         2 RES2    0.0000
     46 C18B      10.5214    5.3010    4.0832 C.3       2 RES2    0.0000
     47 C17B      11.1667    3.0831    3.6677 C.3       2 RES2    0.0000
     48 C16B      10.3585    3.0813    2.3693 C.3       2 RES2    0.0000
     49 C15B      10.5673    4.4716    1.8222 C.3       2 RES2    0.0000
     50 C13B      11.7467    4.4799    3.7281 C.3       2 RES2    0.0000
     51 H18B      10.6643    6.2322    4.3327 H         2 RES2    0.0000
     52 H17B      11.8404    2.4196    3.8254 H         2 RES2    0.0000
     53 H16B      10.5852    2.4562    1.7687 H         2 RES2    0.0000
     54 C14B      11.9621    4.8455    2.2788 C.3       2 RES2    0.0000
     55 H15B      10.4256    4.5642    0.8775 H         2 RES2    0.0000
     56 H13B      12.4216    4.5642    4.2642 H         2 RES2    0.0000
     57 N3B       13.0698    4.0399    1.6577 N.pl3     2 RES2    0.0000
     58 H14B      12.1828    5.7556    2.0430 H         2 RES2    0.0000
     59 O5B       14.1877    4.2471    2.0868 O.2       2 RES2    0.0000
     60 O6B       12.8272    3.2462    0.7651 O.2       2 RES2    0.0000
@<TRIPOS>BOND
     1    1    7 2
     2    2    7 2
     3    3    8 2
     4    4    8 2
     5    5    9 2
     6    6    9 2
     7    7   10 1
     8    8   14 1
     9    9   23 1
    10   10   11 1
    11   11   12 1
    12   12   13 1
    13   13   14 1
    14   14   15 1
    15   15   16 1
    16   16   12 1
    17   17   10 1
    18   18   11 1
    19   19   13 1
    20   20   15 1
    21   21   17 1
    22   22   23 1
    23   23   24 1
    24   24   25 1
    25   25   26 1
    26   26   22 1
    27   27   22 1
    28   28   10 1
    29   29   11 1
    30   30   12 1
    31   31   13 1
    32   32   14 1
    33   33   15 1
    34   34   16 1
    35   35   17 1
    36   36   18 1
    37   37   19 1
    38   38   20 1
    39   39   21 1
    40   40   22 1
    41   41   23 1
    42   42   24 1
    43   43   25 1
    44   44   26 1
    45   45   27 1
    46   46   24 1
    47   47   25 1
    48   48   26 1
    49   49   27 1
    50   50   46 1
    51   51   46 1
    52   52   47 1
    53   53   48 1
    54   54   49 1
    55   55   49 1
    56   56   50 1
    57   57   54 1
    58   58   54 1
    59   59   57 2
    60   60   57 2
    61   16   17 1
    62   18   19 1
    63   18   21 1
    64   19   20 1
    65   20   21 1
    66   27   46 1
    67   47   50 1
    68   47   48 1
    69   48   49 1
    70   50   54 1
@<TRIPOS>SUBSTRUCTURE
     1 RES1 1
     2 RES2 5

@<TRIPOS>CRYSIN
  25.4480    9.1650   17.2480  90.0000 127.3500  90.0000  15 1

