# MOL2 file generated by ConQuest
# Please check atom types

@<TRIPOS>MOLECULE
GILZOR
    86    92     1
SMALL
NO_CHARGES
****
Generated from CSD

@<TRIPOS>ATOM
      1 C1         3.3508    3.6916   -0.4277 C.3       1 RES1    0.0000
      2 C2         4.1938    4.0002   -1.6789 C.3       1 RES1    0.0000
      3 H1         3.6746    4.5228   -2.2939 H         1 RES1    0.0000
      4 H2         4.4557    3.1783   -2.0987 H         1 RES1    0.0000
      5 H3         4.9773    4.4926   -1.4226 H         1 RES1    0.0000
      6 C3         4.0614    2.7326    0.5313 C.ar      1 RES1    0.0000
      7 C4         3.4385    2.2661    1.6617 C.ar      1 RES1    0.0000
      8 H4         2.5698    2.5466    1.8383 H         1 RES1    0.0000
      9 C5         4.0378    1.4078    2.5370 C.ar      1 RES1    0.0000
     10 H5         3.5957    1.1325    3.3074 H         1 RES1    0.0000
     11 C6         5.2968    0.9600    2.2621 C.ar      1 RES1    0.0000
     12 C7         5.9792    1.3995    1.1848 C.ar      1 RES1    0.0000
     13 H6         6.8478    1.1086    1.0241 H         1 RES1    0.0000
     14 C8         5.3596    2.3024    0.3135 C.ar      1 RES1    0.0000
     15 H7         5.8275    2.6183   -0.4250 H         1 RES1    0.0000
     16 N1         5.9386    0.0364    3.1972 N.pl3     1 RES1    0.0000
     17 O1         7.0672   -0.3481    2.9342 O.2       1 RES1    0.0000
     18 O2         5.3362   -0.2816    4.2000 O.2       1 RES1    0.0000
     19 C9         2.0529    3.0339   -0.8873 C.2       1 RES1    0.0000
     20 C10        1.8161    2.2359   -1.9738 C.2       1 RES1    0.0000
     21 H8         2.4194    2.0312   -2.6512 H         1 RES1    0.0000
     22 C11        0.4917    1.7860   -1.8742 C.2       1 RES1    0.0000
     23 H9         0.0656    1.2343   -2.4905 H         1 RES1    0.0000
     24 C12       -0.0748    2.2785   -0.7425 C.2       1 RES1    0.0000
     25 N2         0.8896    3.0443   -0.1421 N.pl3     1 RES1    0.0000
     26 H10        0.7856    3.4713    0.5964 H         1 RES1    0.0000
     27 C13       -1.4862    2.0697   -0.1554 C.3       1 RES1    0.0000
     28 C14       -2.0779    0.8291   -0.7930 C.3       1 RES1    0.0000
     29 H11       -2.9180    0.6244   -0.3746 H         1 RES1    0.0000
     30 H12       -1.4744    0.0914   -0.6761 H         1 RES1    0.0000
     31 H13       -2.2155    0.9850   -1.7294 H         1 RES1    0.0000
     32 C15       -1.3770    1.8370    1.3641 C.3       1 RES1    0.0000
     33 H14       -0.9074    2.5715    1.7666 H         1 RES1    0.0000
     34 H15       -0.8997    1.0213    1.5288 H         1 RES1    0.0000
     35 H16       -2.2576    1.7746    1.7414 H         1 RES1    0.0000
     36 C16       -2.3393    3.2552   -0.4569 C.2       1 RES1    0.0000
     37 C17       -3.3155    3.4484   -1.4080 C.2       1 RES1    0.0000
     38 H17       -3.6273    2.8115   -2.0097 H         1 RES1    0.0000
     39 C18       -3.7553    4.7815   -1.3097 C.2       1 RES1    0.0000
     40 H18       -4.3917    5.1846   -1.8556 H         1 RES1    0.0000
     41 C19        3.0970    5.0069    0.2829 C.2       1 RES1    0.0000
     42 N3        -2.2375    4.4500    0.2258 N.pl3     1 RES1    0.0000
     43 H19       -1.7029    4.5893    0.8846 H         1 RES1    0.0000
     44 C1B       -3.3508    6.6984    0.4277 C.3       1 RES1    0.0000
     45 C2B       -4.1938    6.3899    1.6789 C.3       1 RES1    0.0000
     46 H1B       -3.6746    5.8672    2.2939 H         1 RES1    0.0000
     47 H2B       -4.4557    7.2117    2.0987 H         1 RES1    0.0000
     48 H3B       -4.9773    5.8974    1.4226 H         1 RES1    0.0000
     49 C3B       -4.0614    7.6574   -0.5313 C.ar      1 RES1    0.0000
     50 C4B       -3.4385    8.1239   -1.6617 C.ar      1 RES1    0.0000
     51 H4B       -2.5698    7.8434   -1.8383 H         1 RES1    0.0000
     52 C5B       -4.0378    8.9822   -2.5370 C.ar      1 RES1    0.0000
     53 H5B       -3.5957    9.2575   -3.3074 H         1 RES1    0.0000
     54 C6B       -5.2968    9.4300   -2.2621 C.ar      1 RES1    0.0000
     55 C7B       -5.9792    8.9905   -1.1848 C.ar      1 RES1    0.0000
     56 H6B       -6.8478    9.2814   -1.0241 H         1 RES1    0.0000
     57 C8B       -5.3596    8.0876   -0.3135 C.ar      1 RES1    0.0000
     58 H7B       -5.8275    7.7717    0.4250 H         1 RES1    0.0000
     59 N1B       -5.9386   10.3536   -3.1972 N.pl3     1 RES1    0.0000
     60 O1B       -7.0672   10.7381   -2.9342 O.2       1 RES1    0.0000
     61 O2B       -5.3362   10.6716   -4.2000 O.2       1 RES1    0.0000
     62 C9B       -2.0529    7.3561    0.8873 C.2       1 RES1    0.0000
     63 C10B      -1.8161    8.1541    1.9738 C.2       1 RES1    0.0000
     64 H8B       -2.4194    8.3588    2.6512 H         1 RES1    0.0000
     65 C11B      -0.4917    8.6040    1.8742 C.2       1 RES1    0.0000
     66 H9B       -0.0656    9.1557    2.4905 H         1 RES1    0.0000
     67 C12B       0.0748    8.1115    0.7425 C.2       1 RES1    0.0000
     68 N2B       -0.8896    7.3457    0.1421 N.pl3     1 RES1    0.0000
     69 H10B      -0.7856    6.9187   -0.5964 H         1 RES1    0.0000
     70 C13B       1.4862    8.3203    0.1554 C.3       1 RES1    0.0000
     71 C14B       2.0779    9.5609    0.7930 C.3       1 RES1    0.0000
     72 H11B       2.9180    9.7656    0.3746 H         1 RES1    0.0000
     73 H12B       1.4744   10.2986    0.6761 H         1 RES1    0.0000
     74 H13B       2.2155    9.4050    1.7294 H         1 RES1    0.0000
     75 C15B       1.3770    8.5530   -1.3641 C.3       1 RES1    0.0000
     76 H14B       0.9074    7.8185   -1.7666 H         1 RES1    0.0000
     77 H15B       0.8997    9.3687   -1.5288 H         1 RES1    0.0000
     78 H16B       2.2576    8.6154   -1.7414 H         1 RES1    0.0000
     79 C16B       2.3393    7.1348    0.4569 C.2       1 RES1    0.0000
     80 C17B       3.3155    6.9416    1.4080 C.2       1 RES1    0.0000
     81 H17B       3.6273    7.5785    2.0097 H         1 RES1    0.0000
     82 C18B       3.7553    5.6085    1.3097 C.2       1 RES1    0.0000
     83 H18B       4.3917    5.2054    1.8556 H         1 RES1    0.0000
     84 C19B      -3.0970    5.3831   -0.2829 C.2       1 RES1    0.0000
     85 N3B        2.2375    5.9400   -0.2258 N.pl3     1 RES1    0.0000
     86 H19B       1.7029    5.8007   -0.8846 H         1 RES1    0.0000
@<TRIPOS>BOND
     1    1    2 1
     2    2    3 1
     3    4    2 1
     4    5    2 1
     5    6    1 1
     6    7    6 ar
     7    8    7 1
     8    9    7 ar
     9   10    9 1
    10   11    9 ar
    11   12   11 ar
    12   13   12 1
    13   14    6 ar
    14   15   14 1
    15   16   11 1
    16   17   16 2
    17   18   16 2
    18   19    1 1
    19   20   19 2
    20   21   20 1
    21   22   20 1
    22   23   22 1
    23   24   22 2
    24   25   19 1
    25   26   25 1
    26   27   24 1
    27   28   27 1
    28   29   28 1
    29   30   28 1
    30   31   28 1
    31   32   27 1
    32   33   32 1
    33   34   32 1
    34   35   32 1
    35   36   27 1
    36   37   36 2
    37   38   37 1
    38   39   37 1
    39   40   39 1
    40   41    1 1
    41   42   36 1
    42   43   42 1
    43   44   45 1
    44   45   46 1
    45   47   45 1
    46   48   45 1
    47   49   44 1
    48   50   49 ar
    49   51   50 1
    50   52   50 ar
    51   53   52 1
    52   54   52 ar
    53   55   54 ar
    54   56   55 1
    55   57   49 ar
    56   58   57 1
    57   59   54 1
    58   60   59 2
    59   61   59 2
    60   62   44 1
    61   63   62 2
    62   64   63 1
    63   65   63 1
    64   66   65 1
    65   67   65 2
    66   68   62 1
    67   69   68 1
    68   70   67 1
    69   71   70 1
    70   72   71 1
    71   73   71 1
    72   74   71 1
    73   75   70 1
    74   76   75 1
    75   77   75 1
    76   78   75 1
    77   79   70 1
    78   80   79 2
    79   81   80 1
    80   82   41 2
    81   83   82 1
    82   84   39 2
    83   85   41 1
    84   86   85 1
    85   12   14 ar
    86   24   25 1
    87   42   84 1
    88   44   84 1
    89   55   57 ar
    90   67   68 1
    91   79   85 1
    92   80   82 1
@<TRIPOS>SUBSTRUCTURE
     1 RES1 1

@<TRIPOS>CRYSIN
  11.7780   10.3900   13.3220  90.0000  94.4000  90.0000 231 1

