# MOL2 file generated by ConQuest
# Please check atom types

@<TRIPOS>MOLECULE
GIMBOT
    76    78     2
SMALL
NO_CHARGES
****
Generated from CSD

@<TRIPOS>ATOM
      1 C1         9.3316    2.9669    0.5222 C.ar      1 RES1    0.0000
      2 C2         8.7861    3.6588    1.6135 C.ar      1 RES1    0.0000
      3 C3         7.5508    3.3390    2.1785 C.ar      1 RES1    0.0000
      4 H1         7.1505    3.9067    3.0066 H         1 RES1    0.0000
      5 C4         6.8622    2.2756    1.6425 C.ar      1 RES1    0.0000
      6 C5         7.3249    1.5514    0.5760 C.ar      1 RES1    0.0000
      7 H2         6.7716    0.7125    0.1833 H         1 RES1    0.0000
      8 C6         8.5267    1.9408    0.0234 C.ar      1 RES1    0.0000
      9 C7        10.6744    3.2276   -0.0620 C.2       1 RES1    0.0000
     10 H3        10.8550    4.1495   -0.5939 H         1 RES1    0.0000
     11 N1         9.4843    4.7929    2.2212 N.pl3     1 RES1    0.0000
     12 N2         5.5639    1.8957    2.2212 N.pl3     1 RES1    0.0000
     13 N3         8.9103    1.2339   -1.2057 N.pl3     1 RES1    0.0000
     14 O1        10.4984    5.1974    1.6934 O.2       1 RES1    0.0000
     15 O2         9.0024    5.2932    3.2119 O.2       1 RES1    0.0000
     16 O3         5.0106    2.7073    2.9363 O.2       1 RES1    0.0000
     17 O4         5.1501    0.7732    1.9663 O.2       1 RES1    0.0000
     18 O5         8.8341    0.0156   -1.1988 O.2       1 RES1    0.0000
     19 O6         9.2457    1.9107   -2.1619 O.2       1 RES1    0.0000
     20 C8         1.1426    2.7942    1.5253 C.ar      2 RES2    0.0000
     21 C9         2.0403    3.8632    1.5432 C.ar      2 RES2    0.0000
     22 C10        2.6005    4.3974    2.6883 C.ar      2 RES2    0.0000
     23 H4         3.2553    5.2553    2.6497 H         2 RES2    0.0000
     24 C11        2.2928    3.7852    3.8746 C.ar      2 RES2    0.0000
     25 C12        1.4581    2.6912    3.9656 C.ar      2 RES2    0.0000
     26 H5         1.2602    2.2121    4.9122 H         2 RES2    0.0000
     27 C13        0.8837    2.2294    2.7861 C.ar      2 RES2    0.0000
     28 C14        0.4604    2.3981    0.2618 C.2       2 RES2    0.0000
     29 H6         0.7232    1.4712   -0.2260 H         2 RES2    0.0000
     30 N4         2.5067    4.4353    0.2770 N.pl3     2 RES2    0.0000
     31 N5         2.9273    4.3089    5.0913 N.pl3     2 RES2    0.0000
     32 N6        -0.0357    1.0868    2.9074 N.pl3     2 RES2    0.0000
     33 O7         2.7914    3.6543   -0.6201 O.2       2 RES2    0.0000
     34 O8         2.6122    5.6480    0.2081 O.2       2 RES2    0.0000
     35 O9         2.9940    3.5747    6.0655 O.2       2 RES2    0.0000
     36 O10        3.3227    5.4642    5.0541 O.2       2 RES2    0.0000
     37 O11       -0.4170    0.7888    4.0138 O.2       2 RES2    0.0000
     38 O12       -0.3354    0.4819    1.8987 O.2       2 RES2    0.0000
     39 C7B       11.6516    2.3430    0.0620 C.2       1 RES1    0.0000
     40 C1B       12.9944    2.6037   -0.5222 C.ar      1 RES1    0.0000
     41 H3B       11.4710    1.4211    0.5939 H         1 RES1    0.0000
     42 C2B       13.5399    1.9118   -1.6135 C.ar      1 RES1    0.0000
     43 C6B       13.7993    3.6298   -0.0234 C.ar      1 RES1    0.0000
     44 C3B       14.7752    2.2316   -2.1785 C.ar      1 RES1    0.0000
     45 N1B       12.8417    0.7777   -2.2212 N.pl3     1 RES1    0.0000
     46 C5B       15.0011    4.0192   -0.5760 C.ar      1 RES1    0.0000
     47 N3B       13.4157    4.3367    1.2057 N.pl3     1 RES1    0.0000
     48 H1B       15.1755    1.6639   -3.0066 H         1 RES1    0.0000
     49 C4B       15.4638    3.2950   -1.6425 C.ar      1 RES1    0.0000
     50 O1B       11.8276    0.3732   -1.6934 O.2       1 RES1    0.0000
     51 O2B       13.3236    0.2774   -3.2119 O.2       1 RES1    0.0000
     52 H2B       15.5544    4.8581   -0.1833 H         1 RES1    0.0000
     53 O5B       13.4919    5.5550    1.1988 O.2       1 RES1    0.0000
     54 O6B       13.0803    3.6599    2.1619 O.2       1 RES1    0.0000
     55 N2B       16.7621    3.6749   -2.2212 N.pl3     1 RES1    0.0000
     56 O3B       17.3154    2.8633   -2.9363 O.2       1 RES1    0.0000
     57 O4B       17.1759    4.7974   -1.9663 O.2       1 RES1    0.0000
     58 C14B      -0.4604    3.1725   -0.2618 C.2       2 RES2    0.0000
     59 C8B       -1.1426    2.7764   -1.5253 C.ar      2 RES2    0.0000
     60 H6B       -0.7232    4.0994    0.2260 H         2 RES2    0.0000
     61 C9B       -2.0403    1.7074   -1.5432 C.ar      2 RES2    0.0000
     62 C13B      -0.8837    3.3412   -2.7861 C.ar      2 RES2    0.0000
     63 C10B      -2.6005    1.1732   -2.6883 C.ar      2 RES2    0.0000
     64 N4B       -2.5067    1.1353   -0.2770 N.pl3     2 RES2    0.0000
     65 C12B      -1.4581    2.8794   -3.9656 C.ar      2 RES2    0.0000
     66 N6B        0.0357    4.4838   -2.9074 N.pl3     2 RES2    0.0000
     67 H4B       -3.2553    0.3153   -2.6497 H         2 RES2    0.0000
     68 C11B      -2.2928    1.7854   -3.8746 C.ar      2 RES2    0.0000
     69 O7B       -2.7914    1.9163    0.6201 O.2       2 RES2    0.0000
     70 O8B       -2.6122   -0.0774   -0.2081 O.2       2 RES2    0.0000
     71 H5B       -1.2602    3.3585   -4.9122 H         2 RES2    0.0000
     72 O11B       0.4170    4.7818   -4.0138 O.2       2 RES2    0.0000
     73 O12B       0.3354    5.0887   -1.8987 O.2       2 RES2    0.0000
     74 N5B       -2.9273    1.2617   -5.0913 N.pl3     2 RES2    0.0000
     75 O9B       -2.9940    1.9959   -6.0655 O.2       2 RES2    0.0000
     76 O10B      -3.3227    0.1064   -5.0541 O.2       2 RES2    0.0000
@<TRIPOS>BOND
     1    1    2 ar
     2    2    3 ar
     3    3    4 1
     4    5    3 ar
     5    6    5 ar
     6    7    6 1
     7    8    1 ar
     8    9    1 1
     9   10    9 1
    10   11    2 1
    11   12    5 1
    12   13    8 1
    13   14   11 2
    14   15   11 2
    15   16   12 2
    16   17   12 2
    17   18   13 2
    18   19   13 2
    19   20   21 ar
    20   21   22 ar
    21   22   23 1
    22   24   22 ar
    23   25   24 ar
    24   26   25 1
    25   27   20 ar
    26   28   20 1
    27   29   28 1
    28   30   21 1
    29   31   24 1
    30   32   27 1
    31   33   30 2
    32   34   30 2
    33   35   31 2
    34   36   31 2
    35   37   32 2
    36   38   32 2
    37   39    9 2
    38   40   39 1
    39   41   39 1
    40   42   40 ar
    41   43   40 ar
    42   44   42 ar
    43   45   42 1
    44   46   43 ar
    45   47   43 1
    46   48   44 1
    47   49   44 ar
    48   50   45 2
    49   51   45 2
    50   52   46 1
    51   53   47 2
    52   54   47 2
    53   55   49 1
    54   56   55 2
    55   57   55 2
    56   58   28 2
    57   59   58 1
    58   60   58 1
    59   61   59 ar
    60   62   59 ar
    61   63   61 ar
    62   64   61 1
    63   65   62 ar
    64   66   62 1
    65   67   63 1
    66   68   63 ar
    67   69   64 2
    68   70   64 2
    69   71   65 1
    70   72   66 2
    71   73   66 2
    72   74   68 1
    73   75   74 2
    74   76   74 2
    75    6    8 ar
    76   25   27 ar
    77   46   49 ar
    78   65   68 ar
@<TRIPOS>SUBSTRUCTURE
     1 RES1 1
     2 RES2 20

@<TRIPOS>CRYSIN
  22.3260    5.5706   14.6670  90.0000 110.0400  90.0000  14 1

