# MOL2 file generated by ConQuest
# Please check atom types

@<TRIPOS>MOLECULE
GIMNAU
    15    13     2
SMALL
NO_CHARGES
****
Generated from CSD

@<TRIPOS>ATOM
      1 O1         3.7972    0.6532   -0.9839 O.2       1 RES1    0.0000
      2 O2         5.8385    1.3464   -0.7358 O.2       1 RES1    0.0000
      3 O3         5.8370    5.3619    2.3794 O.2       1 RES1    0.0000
      4 O4         3.7852    6.0693    2.5409 O.2       1 RES1    0.0000
      5 N1         4.9877    3.3513    0.8143 N.2       1 RES1    0.0000
      6 C1         4.2272    4.0494    1.4588 C.2       1 RES1    0.0000
      7 N2         4.1014    2.5205    0.3813 N.pl3     1 RES1    0.0000
      8 N3         4.6401    5.2740    2.1967 N.pl3     1 RES1    0.0000
      9 N4         4.6438    1.3986   -0.5304 N.pl3     1 RES1    0.0000
     10 C2         2.8112    3.7117    1.4603 C.2       1 RES1    0.0000
     11 C3         2.8203    2.6048    0.6908 C.2       1 RES1    0.0000
     12 H1         2.1782    2.0469    0.4443 H         1 RES1    0.0000
     13 H2         2.1207    4.1597    1.9175 H         1 RES1    0.0000
     14 N5         4.0586    4.1708    1.5439 Du        2 SUP2    0.0000
     15 C4         4.2048    2.3147    0.2487 Du        2 SUP2    0.0000
@<TRIPOS>BOND
     1    1    9 2
     2    2    9 2
     3    3    8 2
     4    4    8 2
     5    5    6 2
     6    6    8 1
     7    7    5 1
     8    9    7 1
     9   10    6 1
    10   11    7 1
    11   12   11 1
    12   13   10 1
    13   10   11 2
@<TRIPOS>SUBSTRUCTURE
     1 RES1 1
     2 SUP2 14

@<TRIPOS>CRYSIN
   5.7084    9.2664   11.3570  90.0000 103.3150  90.0000  14 1

