# MOL2 file generated by ConQuest
# Please check atom types

@<TRIPOS>MOLECULE
GIMQUP
    29    30     1
SMALL
NO_CHARGES
****
Generated from CSD

@<TRIPOS>ATOM
      1 N1         9.0164    1.7247    6.6948 N.ar      1 RES1    0.0000
      2 C1         8.5530    1.7247    7.9385 C.ar      1 RES1    0.0000
      3 C2         9.4243    1.7247    9.0683 C.ar      1 RES1    0.0000
      4 H1         8.9885    1.7247    9.9861 H         1 RES1    0.0000
      5 C3        10.7763    1.7247    8.8905 C.ar      1 RES1    0.0000
      6 H2        11.3891    1.7247    9.6923 H         1 RES1    0.0000
      7 C4        11.3042    1.7247    7.5771 C.ar      1 RES1    0.0000
      8 C5        12.6879    1.7247    7.2874 C.ar      1 RES1    0.0000
      9 H3        13.2996    1.7247    8.0401 H         1 RES1    0.0000
     10 C6        13.1321    1.7247    5.9905 C.ar      1 RES1    0.0000
     11 H4        14.1236    1.7247    5.7149 H         1 RES1    0.0000
     12 C7        12.2114    1.7247    4.9201 C.ar      1 RES1    0.0000
     13 H5        12.5252    1.7247    3.9606 H         1 RES1    0.0000
     14 C8        10.8789    1.7247    5.2090 C.ar      1 RES1    0.0000
     15 C9        10.3604    1.7247    6.5251 C.ar      1 RES1    0.0000
     16 C10        7.1099    1.7247    8.2012 C.2       1 RES1    0.0000
     17 H6         6.8653    1.7247    9.1704 H         1 RES1    0.0000
     18 C11        6.0632    1.7247    7.3530 C.2       1 RES1    0.0000
     19 C12        6.1256    1.7247    5.8568 C.3       1 RES1    0.0000
     20 H7         5.6182    0.9451    5.5302 H         1 RES1    0.0000
     21 H8         7.0225    1.7247    5.4897 H         1 RES1    0.0000
     22 C13        4.6707    1.7247    7.9069 C.3       1 RES1    0.0000
     23 H9         4.2070    0.9244    7.6329 H         1 RES1    0.0000
     24 H10        4.6936    1.7247    8.8725 H         1 RES1    0.0000
     25 N2         9.9005    1.7247    4.1166 N.pl3     1 RES1    0.0000
     26 O1         9.5241    0.6541    3.6907 O.2       1 RES1    0.0000
     27 H7F        5.6182    2.5042    5.5302 H         1 RES1    0.0000
     28 H9F        4.2070    2.5249    7.6329 H         1 RES1    0.0000
     29 O1F        9.5241    2.7952    3.6907 O.2       1 RES1    0.0000
@<TRIPOS>BOND
     1    1    2 ar
     2    2    3 ar
     3    3    4 1
     4    5    3 ar
     5    6    5 1
     6    7    5 ar
     7    8    7 ar
     8    9    8 1
     9   10    8 ar
    10   11   10 1
    11   12   10 ar
    12   13   12 1
    13   14   12 ar
    14   15    1 ar
    15   16    2 1
    16   17   16 1
    17   18   16 2
    18   19   18 1
    19   20   19 1
    20   21   19 1
    21   22   18 1
    22   23   22 1
    23   24   22 1
    24   25   14 1
    25   26   25 2
    26   27   19 1
    27   28   22 1
    28   29   25 2
    29    7   15 ar
    30   14   15 ar
@<TRIPOS>SUBSTRUCTURE
     1 RES1 1

@<TRIPOS>CRYSIN
  11.5578    6.8987   13.9900  90.0000  90.0000  90.0000  62 1

