# MOL2 file generated by ConQuest
# Please check atom types

@<TRIPOS>MOLECULE
GIMVAB
   134   130     3
SMALL
NO_CHARGES
****
Generated from CSD

@<TRIPOS>ATOM
      1 C1         4.8418    6.3864    7.3803 C.3       1 RES1    0.0000
      2 C2         6.3357    6.1896    7.9110 C.3       1 RES1    0.0000
      3 C3         4.9354    4.9905    9.3681 C.3       1 RES1    0.0000
      4 H1         4.9122    5.6554   10.0739 H         1 RES1    0.0000
      5 H2         4.7091    4.1222    9.7377 H         1 RES1    0.0000
      6 C4         4.0122    5.3640    8.2205 C.3       1 RES1    0.0000
      7 H3         3.9191    4.5607    7.6663 H         1 RES1    0.0000
      8 C5         4.7612    6.0700    5.8810 C.2       1 RES1    0.0000
      9 C6         5.1647    7.1496    4.9492 C.ar      1 RES1    0.0000
     10 C7         5.3479    6.8544    3.6136 C.ar      1 RES1    0.0000
     11 H4         5.1437    6.0001    3.3064 H         1 RES1    0.0000
     12 C8         5.8284    7.7974    2.7154 C.ar      1 RES1    0.0000
     13 H5         5.9290    7.5867    1.8147 H         1 RES1    0.0000
     14 C9         6.1549    9.0496    3.1792 C.ar      1 RES1    0.0000
     15 H6         6.4867    9.6877    2.5876 H         1 RES1    0.0000
     16 C10        5.9969    9.3723    4.5129 C.ar      1 RES1    0.0000
     17 C11        5.4589    8.4496    5.4516 C.ar      1 RES1    0.0000
     18 C12        4.3417    7.8276    7.4973 C.3       1 RES1    0.0000
     19 H7         3.4366    7.8879    7.1541 H         1 RES1    0.0000
     20 H8         4.3310    8.0950    8.4300 H         1 RES1    0.0000
     21 C13        7.4533    6.0779    6.8974 C.ar      1 RES1    0.0000
     22 C14        7.6958    5.1356    5.9289 C.ar      1 RES1    0.0000
     23 H9         7.0852    4.4517    5.7749 H         1 RES1    0.0000
     24 C15        8.8594    5.2166    5.1845 C.ar      1 RES1    0.0000
     25 H10        9.0328    4.5812    4.5280 H         1 RES1    0.0000
     26 C16        9.7561    6.2262    5.4069 C.ar      1 RES1    0.0000
     27 H11       10.5258    6.2718    4.8867 H         1 RES1    0.0000
     28 C17        9.5476    7.1780    6.3877 C.ar      1 RES1    0.0000
     29 H12       10.1638    7.8575    6.5426 H         1 RES1    0.0000
     30 C18        8.3879    7.0767    7.1235 C.ar      1 RES1    0.0000
     31 C19        6.8258    7.4142    8.7473 C.2       1 RES1    0.0000
     32 C20        2.6118    5.7747    8.6194 C.ar      1 RES1    0.0000
     33 C21        2.3270    6.6264    9.6776 C.ar      1 RES1    0.0000
     34 H13        3.0305    6.9933   10.1639 H         1 RES1    0.0000
     35 C22        1.0209    6.9481   10.0332 C.ar      1 RES1    0.0000
     36 H14        0.8579    7.5267   10.7423 H         1 RES1    0.0000
     37 C23       -0.0326    6.4002    9.3230 C.ar      1 RES1    0.0000
     38 C24        0.2243    5.5519    8.2617 C.ar      1 RES1    0.0000
     39 H15       -0.4803    5.1860    7.7775 H         1 RES1    0.0000
     40 C25        1.5282    5.2478    7.9221 C.ar      1 RES1    0.0000
     41 H16        1.6869    4.6744    7.2070 H         1 RES1    0.0000
     42 C26       -1.6634    7.4026   10.7251 C.3       1 RES1    0.0000
     43 H17       -1.2628    7.0087   11.5034 H         1 RES1    0.0000
     44 H18       -2.6163    7.4408   10.8376 H         1 RES1    0.0000
     45 H19       -1.3204    8.2919   10.6047 H         1 RES1    0.0000
     46 C27        7.3665    4.6937    9.5882 C.3       1 RES1    0.0000
     47 H20        8.1771    4.6870    9.0759 H         1 RES1    0.0000
     48 H21        7.2480    3.8399   10.0104 H         1 RES1    0.0000
     49 H22        7.4175    5.3784   10.2606 H         1 RES1    0.0000
     50 N1         6.2352    4.9627    8.7066 N.3       1 RES1    0.0000
     51 N2         5.2134    8.7153    6.7422 N.3       1 RES1    0.0000
     52 H23        5.3182    9.5818    7.0799 H         1 RES1    0.0000
     53 N3         7.9847    7.8499    8.2155 N.am      1 RES1    0.0000
     54 H24        8.4823    8.5419    8.5041 H         1 RES1    0.0000
     55 N4         6.4166   10.6877    4.9268 N.pl3     1 RES1    0.0000
     56 O1         4.4033    4.9886    5.4580 O.2       1 RES1    0.0000
     57 O2         6.2861    7.8702    9.7514 O.2       1 RES1    0.0000
     58 O3        -1.3549    6.6230    9.5929 O.3       1 RES1    0.0000
     59 O4         6.4051   10.9963    6.1156 O.2       1 RES1    0.0000
     60 O5         6.8058   11.4738    4.0628 O.2       1 RES1    0.0000
     61 C28        2.0158   11.7892   12.3087 C.3       2 RES2    0.0000
     62 C29        3.5102   11.3450   12.5765 C.3       2 RES2    0.0000
     63 C30        2.3840   10.9536   14.5834 C.3       2 RES2    0.0000
     64 H25        2.2809   11.2197   15.5100 H         2 RES2    0.0000
     65 H26        2.3480    9.9857   14.5252 H         2 RES2    0.0000
     66 C31        1.3089   11.6001   13.6997 C.3       2 RES2    0.0000
     67 H27        1.1614   12.4992   14.0593 H         2 RES2    0.0000
     68 C32        1.9748   13.2737   11.8984 C.2       2 RES2    0.0000
     69 C33        2.1880   13.5875   10.4710 C.ar      2 RES2    0.0000
     70 C34        2.3465   14.9071   10.0911 C.ar      2 RES2    0.0000
     71 H28        2.1864   15.5796   10.7145 H         2 RES2    0.0000
     72 C35        2.7318   15.2565    8.8165 C.ar      2 RES2    0.0000
     73 H29        2.7971   16.1498    8.5677 H         2 RES2    0.0000
     74 C36        3.0216   14.2528    7.9169 C.ar      2 RES2    0.0000
     75 H30        3.3212   14.4730    7.0641 H         2 RES2    0.0000
     76 C37        2.8705   12.9249    8.2656 C.ar      2 RES2    0.0000
     77 C38        2.3773   12.5334    9.5346 C.ar      2 RES2    0.0000
     78 C39        1.3574   11.0428   11.1478 C.3       2 RES2    0.0000
     79 H31        1.3382   10.0926   11.3433 H         2 RES2    0.0000
     80 H32        0.4431   11.3481   11.0428 H         2 RES2    0.0000
     81 C40        4.6095   12.0901   11.8510 C.ar      2 RES2    0.0000
     82 C41        5.0346   13.4060   11.9336 C.ar      2 RES2    0.0000
     83 H33        4.6303   13.9988   12.5252 H         2 RES2    0.0000
     84 C42        6.0815   13.8254   11.1116 C.ar      2 RES2    0.0000
     85 H34        6.3764   14.7062   11.1513 H         2 RES2    0.0000
     86 C43        6.6730   12.9524   10.2513 C.ar      2 RES2    0.0000
     87 H35        7.3516   13.2586    9.6927 H         2 RES2    0.0000
     88 C44        6.2960   11.6289   10.1825 C.ar      2 RES2    0.0000
     89 H36        6.7140   11.0383    9.5974 H         2 RES2    0.0000
     90 C45        5.2752   11.2103   11.0110 C.ar      2 RES2    0.0000
     91 C46        3.7582    9.8810   12.0699 C.2       2 RES2    0.0000
     92 C47       -0.0333   10.9349   13.6582 C.ar      2 RES2    0.0000
     93 C48        4.8399   10.9064   14.6169 C.3       2 RES2    0.0000
     94 H37        4.9238   11.2059   15.5245 H         2 RES2    0.0000
     95 H38        5.6005   11.2023   14.1109 H         2 RES2    0.0000
     96 H39        4.7960    9.9477   14.5993 H         2 RES2    0.0000
     97 C49        0.1065    9.5769   13.7501 C.ar      2 RES2    0.0000
     98 H40        0.9165    9.1311   13.8555 H         2 RES2    0.0000
     99 C50       -1.1506    8.9516   13.6626 C.ar      2 RES2    0.0000
    100 H41       -1.2133    8.0255   13.7257 H         2 RES2    0.0000
    101 C51       -2.2803    9.7022   13.4858 C.ar      2 RES2    0.0000
    102 C52       -2.2078   11.0988   13.4674 C.ar      2 RES2    0.0000
    103 H42       -2.9839   11.6011   13.3684 H         2 RES2    0.0000
    104 C53       -0.9626   11.7497   13.5984 C.ar      2 RES2    0.0000
    105 H43       -0.8549   12.6730   13.6357 H         2 RES2    0.0000
    106 O6        -3.4273    8.9386   13.3320 O.3       2 RES2    0.0000
    107 C54       -4.4777    9.5650   12.6289 C.3       2 RES2    0.0000
    108 H44       -4.5887   10.4622   12.9514 H         2 RES2    0.0000
    109 H45       -5.2915    9.0730   12.7648 H         2 RES2    0.0000
    110 H46       -4.2692    9.5851   11.6927 H         2 RES2    0.0000
    111 N5         3.6179   11.4615   14.0302 N.3       2 RES2    0.0000
    112 N6         4.7573    9.9239   11.1634 N.am      2 RES2    0.0000
    113 H47        5.0495    9.1462   10.8032 H         2 RES2    0.0000
    114 N7         2.0913   11.2709    9.9106 N.3       2 RES2    0.0000
    115 H48        2.0706   10.5253    9.2824 H         2 RES2    0.0000
    116 N8         3.2478   11.9471    7.2778 N.pl3     2 RES2    0.0000
    117 O7         1.8139   14.1627   12.7149 O.2       2 RES2    0.0000
    118 O8         3.1733    8.8741   12.4368 O.2       2 RES2    0.0000
    119 O9         3.2431   10.7510    7.5914 O.2       2 RES2    0.0000
    120 O10        3.5794   12.3246    6.1615 O.2       2 RES2    0.0000
    121 C55       -0.5710    9.5023   13.6029 Du        3 SUP3    0.0000
    122 H49        0.0676    8.8269   13.6331 Du        3 SUP3    0.0000
    123 C56       -1.9351    9.0731   13.5115 Du        3 SUP3    0.0000
    124 H50       -2.1291    8.1632   13.5126 Du        3 SUP3    0.0000
    125 C57       -2.7167   11.3565   13.4351 Du        3 SUP3    0.0000
    126 H51       -3.4013   11.9835   13.3909 Du        3 SUP3    0.0000
    127 C58       -2.9661    9.9849   13.4221 Du        3 SUP3    0.0000
    128 C59       -1.3790   11.7272   13.5183 Du        3 SUP3    0.0000
    129 H52       -1.2551   12.6480   13.4835 Du        3 SUP3    0.0000
    130 O11       -4.3101    9.6625   13.3419 Du        3 SUP3    0.0000
    131 C60       -4.6583    8.2864   13.2594 Du        3 SUP3    0.0000
    132 H53       -4.3139    7.9178   12.4432 Du        3 SUP3    0.0000
    133 H54       -5.6141    8.1965   13.2731 Du        3 SUP3    0.0000
    134 H55       -4.2825    7.8150   14.0077 Du        3 SUP3    0.0000
@<TRIPOS>BOND
     1    1    2 1
     2    2   21 1
     3    3    4 1
     4    5    3 1
     5    6    1 1
     6    7    6 1
     7    8    1 1
     8    9    8 1
     9   10    9 ar
    10   11   10 1
    11   12   10 ar
    12   13   12 1
    13   14   12 ar
    14   15   14 1
    15   16   14 ar
    16   17    9 ar
    17   18    1 1
    18   19   18 1
    19   20   18 1
    20   21   22 ar
    21   22   23 1
    22   24   22 ar
    23   25   24 1
    24   26   24 ar
    25   27   26 1
    26   28   26 ar
    27   29   28 1
    28   30   21 ar
    29   31    2 1
    30   32    6 1
    31   33   32 ar
    32   34   33 1
    33   35   33 ar
    34   36   35 1
    35   37   35 ar
    36   38   37 ar
    37   39   38 1
    38   40   32 ar
    39   41   40 1
    40   42   43 1
    41   44   42 1
    42   45   42 1
    43   46   47 1
    44   48   46 1
    45   49   46 1
    46   50    2 1
    47   51   17 1
    48   52   51 1
    49   53   30 1
    50   54   53 1
    51   55   16 1
    52   56    8 2
    53   57   31 2
    54   58   37 1
    55   59   55 2
    56   60   55 2
    57   61   62 1
    58   62   81 1
    59   63   64 1
    60   65   63 1
    61   66   61 1
    62   67   66 1
    63   68   61 1
    64   69   68 1
    65   70   69 ar
    66   71   70 1
    67   72   70 ar
    68   73   72 1
    69   74   72 ar
    70   75   74 1
    71   76   74 ar
    72   77   69 ar
    73   78   61 1
    74   79   78 1
    75   80   78 1
    76   81   82 ar
    77   82   83 1
    78   84   82 ar
    79   85   84 1
    80   86   84 ar
    81   87   86 1
    82   88   86 ar
    83   89   88 1
    84   90   81 ar
    85   91   62 1
    86   92   66 1
    87   93   94 1
    88   95   93 1
    89   96   93 1
    90   97   92 ar
    91   98   97 1
    92   99   97 ar
    93  100   99 1
    94  101   99 ar
    95  102  101 ar
    96  103  102 1
    97  104   92 ar
    98  105  104 1
    99  106  101 1
   100  107  106 1
   101  108  107 1
   102  109  107 1
   103  110  107 1
   104  111   62 1
   105  112   90 1
   106  113  112 1
   107  114   77 1
   108  115  114 1
   109  116   76 1
   110  117   68 2
   111  118   91 2
   112  119  116 2
   113  120  116 2
   114    3    6 1
   115    3   50 1
   116   16   17 ar
   117   18   51 1
   118   28   30 ar
   119   31   53 1
   120   38   40 ar
   121   42   58 1
   122   46   50 1
   123   63   66 1
   124   63  111 1
   125   76   77 ar
   126   78  114 1
   127   88   90 ar
   128   91  112 1
   129   93  111 1
   130  102  104 ar
@<TRIPOS>SUBSTRUCTURE
     1 RES1 1
     2 RES2 61
     3 SUP3 121

@<TRIPOS>CRYSIN
  12.1313   14.8533   15.2002 116.4700  96.2010 102.2760   2 1

