# MOL2 file generated by ConQuest
# Please check atom types

@<TRIPOS>MOLECULE
GINMIA
    35    37     1
SMALL
NO_CHARGES
****
Generated from CSD

@<TRIPOS>ATOM
      1 O1         4.0392    2.4820    3.6267 O.3       1 RES1    0.0000
      2 O2         3.4107    0.3265    3.8482 O.2       1 RES1    0.0000
      3 O3         3.6018    1.6562    6.5403 O.2       1 RES1    0.0000
      4 O4         4.7343    0.7744    8.1573 O.2       1 RES1    0.0000
      5 N1         4.4280    1.8511    0.9969 N.ar      1 RES1    0.0000
      6 N2         4.6113    1.1196    6.9891 N.pl3     1 RES1    0.0000
      7 C1         4.6053    1.5527   -0.2771 C.ar      1 RES1    0.0000
      8 C2         3.5882    1.7405   -1.2598 C.ar      1 RES1    0.0000
      9 H1         3.7502    1.4959   -2.1637 H         1 RES1    0.0000
     10 C3         2.3927    2.2668   -0.9070 C.ar      1 RES1    0.0000
     11 H2         1.7176    2.4037   -1.5615 H         1 RES1    0.0000
     12 C4         0.9356    3.1481    0.9161 C.ar      1 RES1    0.0000
     13 H3         0.2320    3.3146    0.3005 H         1 RES1    0.0000
     14 C5         0.7511    3.4300    2.2397 C.ar      1 RES1    0.0000
     15 H4        -0.0771    3.7864    2.5384 H         1 RES1    0.0000
     16 C6         1.7918    3.1912    3.1663 C.ar      1 RES1    0.0000
     17 H5         1.6664    3.3815    4.0881 H         1 RES1    0.0000
     18 C7         2.9773    2.6850    2.7228 C.ar      1 RES1    0.0000
     19 C8         3.2166    2.3725    1.3616 C.ar      1 RES1    0.0000
     20 C9         2.1554    2.6132    0.4482 C.ar      1 RES1    0.0000
     21 C10        5.9345    1.0011   -0.6940 C.3       1 RES1    0.0000
     22 H6         6.4981    0.8725    0.0978 H         1 RES1    0.0000
     23 H7         6.3709    1.6284   -1.3069 H         1 RES1    0.0000
     24 H8         5.8044    0.1412   -1.1455 H         1 RES1    0.0000
     25 C11        4.1907    1.2117    4.0502 C.2       1 RES1    0.0000
     26 C12        5.5274    1.0101    4.6998 C.ar      1 RES1    0.0000
     27 C13        6.6106    0.8069    3.8548 C.ar      1 RES1    0.0000
     28 H9         6.5015    0.8950    2.9156 H         1 RES1    0.0000
     29 C14        7.8541    0.4750    4.3806 C.ar      1 RES1    0.0000
     30 H10        8.5900    0.3378    3.7971 H         1 RES1    0.0000
     31 C15        8.0284    0.3433    5.7443 C.ar      1 RES1    0.0000
     32 H11        8.8819    0.1138    6.0927 H         1 RES1    0.0000
     33 C16        6.9611    0.5455    6.6061 C.ar      1 RES1    0.0000
     34 H12        7.0724    0.4551    7.5458 H         1 RES1    0.0000
     35 C17        5.7287    0.8820    6.0689 C.ar      1 RES1    0.0000
@<TRIPOS>BOND
     1    1   18 1
     2    2   25 2
     3    3    6 2
     4    4    6 2
     5    5    7 ar
     6    6   35 1
     7    7    8 ar
     8    8    9 1
     9   10    8 ar
    10   11   10 1
    11   12   13 1
    12   14   12 ar
    13   15   14 1
    14   16   14 ar
    15   17   16 1
    16   18   16 ar
    17   19    5 ar
    18   20   10 ar
    19   21    7 1
    20   22   21 1
    21   23   21 1
    22   24   21 1
    23   25    1 1
    24   26   25 1
    25   27   26 ar
    26   28   27 1
    27   29   27 ar
    28   30   29 1
    29   31   29 ar
    30   32   31 1
    31   33   31 ar
    32   34   33 1
    33   35   26 ar
    34   12   20 ar
    35   18   19 ar
    36   19   20 ar
    37   33   35 ar
@<TRIPOS>SUBSTRUCTURE
     1 RES1 1

@<TRIPOS>CRYSIN
   7.6661    8.1331   12.3871  95.9790 105.3890 100.7490   2 1

