# MOL2 file generated by ConQuest
# Please check atom types

@<TRIPOS>MOLECULE
GINRED
    43    43     1
SMALL
USER_CHARGES
****
Generated from CSD

@<TRIPOS>ATOM
      1 O1         5.7932    1.3778    2.5260 O.3       1 RES1    0.0000
      2 O2         2.4798    2.7021    3.1784 O.3       1 RES1    0.0000
      3 O3         5.4406    2.0919    5.2233 O.3       1 RES1    0.0000
      4 O4         5.6480    5.6676    3.5271 O.2       1 RES1   -1.0000
      5 O5         6.2642    3.1557    0.4204 O.3       1 RES1    0.0000
      6 N1         5.1334    4.4716    3.5162 N.pl3     1 RES1    1.0000
      7 O6         5.0519    0.2421    0.7193 O.2       1 RES1    0.0000
      8 O7         7.1750    4.6542   -0.9501 O.2       1 RES1    0.0000
      9 O8         1.2234    1.1372    4.1990 O.2       1 RES1    0.0000
     10 C1         1.2994    2.1270    3.5381 C.2       1 RES1    0.0000
     11 C2         6.7622    3.5636   -0.7606 C.2       1 RES1    0.0000
     12 O9         4.4456    0.3437    6.2074 O.2       1 RES1    0.0000
     13 C3         3.6969    2.0323    3.5794 C.3       1 RES1    0.0000
     14 H1         3.5416    1.0501    3.6875 H         1 RES1    0.0000
     15 C4         4.1390    2.6555    4.8952 C.3       1 RES1    0.0000
     16 H2         3.4760    2.4668    5.6193 H         1 RES1    0.0000
     17 C5         5.2712    3.6728    2.5090 C.2       1 RES1    0.0000
     18 C6         4.6774    2.3026    2.4494 C.3       1 RES1    0.0000
     19 H3         4.2105    2.1835    1.5734 H         1 RES1    0.0000
     20 C7         5.4452    0.8943    5.8198 C.2       1 RES1    0.0000
     21 C8         5.9311    0.4911    1.5078 C.2       1 RES1    0.0000
     22 C9         4.3459    4.1387    4.7288 C.3       1 RES1    0.0000
     23 H4         3.4635    4.5847    4.6753 H         1 RES1    0.0000
     24 H5         4.8152    4.4907    5.5270 H         1 RES1    0.0000
     25 C10        6.0976    4.2188    1.3863 C.3       1 RES1    0.0000
     26 H6         5.6419    4.9925    0.9696 H         1 RES1    0.0000
     27 H7         6.9798    4.5175    1.7229 H         1 RES1    0.0000
     28 C11        0.1666    2.9121    2.9755 C.3       1 RES1    0.0000
     29 H8         0.2439    3.8469    3.2610 H         1 RES1    0.0000
     30 H9        -0.6811    2.5409    3.2975 H         1 RES1    0.0000
     31 H10        0.1930    2.8670    1.9962 H         1 RES1    0.0000
     32 C12        7.2861   -0.1199    1.5127 C.3       1 RES1    0.0000
     33 H11        7.9180    0.4827    1.0680 H         1 RES1    0.0000
     34 H12        7.2606   -0.9760    1.0364 H         1 RES1    0.0000
     35 H13        7.5724   -0.2688    2.4385 H         1 RES1    0.0000
     36 C13        6.8339    0.3506    5.9462 C.3       1 RES1    0.0000
     37 H14        7.3106    0.4705    5.0981 H         1 RES1    0.0000
     38 H15        6.7927   -0.6033    6.1661 H         1 RES1    0.0000
     39 H16        7.3087    0.8294    6.6582 H         1 RES1    0.0000
     40 C14        6.6998    2.4416   -1.7605 C.3       1 RES1    0.0000
     41 H17        7.1987    1.6710   -1.4179 H         1 RES1    0.0000
     42 H18        7.0938    2.7364   -2.6074 H         1 RES1    0.0000
     43 H19        5.7650    2.1858   -1.9063 H         1 RES1    0.0000
@<TRIPOS>BOND
     1    1   18 1
     2    2   10 1
     3    3   15 1
     4    4    6 1
     5    5   11 1
     6    6   17 2
     7    7   21 2
     8    8   11 2
     9    9   10 2
    10   10   28 1
    11   11   40 1
    12   12   20 2
    13   13    2 1
    14   14   13 1
    15   15   13 1
    16   16   15 1
    17   17   18 1
    18   18   13 1
    19   19   18 1
    20   20    3 1
    21   21    1 1
    22   22    6 1
    23   23   22 1
    24   24   22 1
    25   25    5 1
    26   26   25 1
    27   27   25 1
    28   28   29 1
    29   30   28 1
    30   31   28 1
    31   32   21 1
    32   33   32 1
    33   34   32 1
    34   35   32 1
    35   36   20 1
    36   37   36 1
    37   38   36 1
    38   39   36 1
    39   40   41 1
    40   42   40 1
    41   43   40 1
    42   15   22 1
    43   17   25 1
@<TRIPOS>SUBSTRUCTURE
     1 RES1 1

@<TRIPOS>CRYSIN
   8.8584    7.6373   12.5170  90.0000 103.9100  90.0000   4 1

