# MOL2 file generated by ConQuest
# Please check atom types

@<TRIPOS>MOLECULE
GINSAY
    46    51     1
SMALL
NO_CHARGES
****
Generated from CSD

@<TRIPOS>ATOM
      1 C1         2.6704    8.8380    8.2100 C.ar      1 RES1    0.0000
      2 C2         1.9984    9.8486    7.5183 C.ar      1 RES1    0.0000
      3 H1         1.3914    9.6270    6.8491 H         1 RES1    0.0000
      4 C3         2.2270   11.1422    7.8164 C.ar      1 RES1    0.0000
      5 H2         1.7492   11.8039    7.3707 H         1 RES1    0.0000
      6 C4         3.1767   11.5105    8.7884 C.ar      1 RES1    0.0000
      7 H3         3.3482   12.4073    8.9654 H         1 RES1    0.0000
      8 C5         3.8358   10.5373    9.4611 C.ar      1 RES1    0.0000
      9 H4         4.4595   10.7813   10.1060 H         1 RES1    0.0000
     10 C6         3.6096    9.1539    9.2190 C.ar      1 RES1    0.0000
     11 C7         3.9403    6.8212    9.6592 C.ar      1 RES1    0.0000
     12 C8         4.5167    5.7388   10.3588 C.ar      1 RES1    0.0000
     13 H5         5.1189    5.9094   11.0466 H         1 RES1    0.0000
     14 C9         4.2122    4.4542   10.0485 C.ar      1 RES1    0.0000
     15 H6         4.6000    3.7520   10.5196 H         1 RES1    0.0000
     16 C10        3.3092    4.1922    9.0141 C.ar      1 RES1    0.0000
     17 H7         3.1114    3.3088    8.7978 H         1 RES1    0.0000
     18 C11        2.7219    5.1788    8.3192 C.ar      1 RES1    0.0000
     19 H8         2.1172    4.9797    7.6410 H         1 RES1    0.0000
     20 C12        3.0290    6.5158    8.6243 C.ar      1 RES1    0.0000
     21 C13        4.2356    8.1627    9.9509 C.ar      1 RES1    0.0000
     22 C14        5.2025    8.5011   11.0323 C.ar      1 RES1    0.0000
     23 C15        6.5825    8.3768   10.8069 C.ar      1 RES1    0.0000
     24 C16        7.1318    7.9591    9.5522 C.ar      1 RES1    0.0000
     25 H9         6.5627    7.7690    8.8411 H         1 RES1    0.0000
     26 C17        8.4726    7.8408    9.3881 C.ar      1 RES1    0.0000
     27 H10        8.8159    7.5698    8.5681 H         1 RES1    0.0000
     28 C18        9.3424    8.1223   10.4515 C.ar      1 RES1    0.0000
     29 H11       10.2589    8.0205   10.3277 H         1 RES1    0.0000
     30 C19        8.8790    8.5400   11.6537 C.ar      1 RES1    0.0000
     31 H12        9.4730    8.7362   12.3413 H         1 RES1    0.0000
     32 C20        7.4930    8.6763   11.8526 C.ar      1 RES1    0.0000
     33 C21        5.6866    9.2557   13.3097 C.ar      1 RES1    0.0000
     34 C22        5.2544    9.7168   14.5671 C.ar      1 RES1    0.0000
     35 H13        5.8743    9.9204   15.2307 H         1 RES1    0.0000
     36 C23        3.9325    9.8636   14.8061 C.ar      1 RES1    0.0000
     37 H14        3.6515   10.1720   15.6361 H         1 RES1    0.0000
     38 C24        2.9774    9.5611   13.8276 C.ar      1 RES1    0.0000
     39 H15        2.0719    9.6719   14.0063 H         1 RES1    0.0000
     40 C25        3.3852    9.1015   12.6081 C.ar      1 RES1    0.0000
     41 H16        2.7450    8.8874   11.9683 H         1 RES1    0.0000
     42 C26        4.7562    8.9413   12.2913 C.ar      1 RES1    0.0000
     43 N1         7.0318    9.1060   13.0822 N.pl3     1 RES1    0.0000
     44 N2         2.4203    7.5129    7.9070 N.pl3     1 RES1    0.0000
     45 O1         7.8801    9.3680   14.0274 O.2       1 RES1    0.0000
     46 O2         1.5884    7.2225    6.9569 O.2       1 RES1    0.0000
@<TRIPOS>BOND
     1    1    2 ar
     2    2    3 1
     3    4    2 ar
     4    5    4 1
     5    6    4 ar
     6    7    6 1
     7    8    6 ar
     8    9    8 1
     9   10    1 ar
    10   11   12 ar
    11   12   13 1
    12   14   12 ar
    13   15   14 1
    14   16   14 ar
    15   17   16 1
    16   18   16 ar
    17   19   18 1
    18   20   11 ar
    19   21   10 ar
    20   22   21 1
    21   23   22 ar
    22   24   23 ar
    23   25   24 1
    24   26   24 ar
    25   27   26 1
    26   28   26 ar
    27   29   28 1
    28   30   28 ar
    29   31   30 1
    30   32   23 ar
    31   33   34 ar
    32   34   35 1
    33   36   34 ar
    34   37   36 1
    35   38   36 ar
    36   39   38 1
    37   40   38 ar
    38   41   40 1
    39   42   22 ar
    40   43   32 ar
    41   44    1 ar
    42   45   43 1
    43   46   44 1
    44    8   10 ar
    45   11   21 ar
    46   18   20 ar
    47   20   44 ar
    48   30   32 ar
    49   33   42 ar
    50   33   43 ar
    51   40   42 ar
@<TRIPOS>SUBSTRUCTURE
     1 RES1 1

@<TRIPOS>CRYSIN
   9.2510   14.9720   27.3500  90.0000  98.7910  90.0000  15 1

