# MOL2 file generated by ConQuest
# Please check atom types

@<TRIPOS>MOLECULE
GINXUY
    43    45     1
SMALL
NO_CHARGES
****
Generated from CSD

@<TRIPOS>ATOM
      1 N1         9.7089    4.6616   14.1307 N.am      1 RES1    0.0000
      2 O1         8.4807    3.2040   12.8013 O.2       1 RES1    0.0000
      3 O2        11.1619    6.3498   14.7895 O.2       1 RES1    0.0000
      4 O3        10.1713    3.6890   15.0040 O.3       1 RES1    0.0000
      5 O4        10.0310    2.1517   18.0226 O.2       1 RES1    0.0000
      6 O5         9.3730    5.6477   17.6105 O.2       1 RES1    0.0000
      7 C1         9.0156    4.2699   12.9595 C.2       1 RES1    0.0000
      8 C2         9.1012    5.4587   12.0725 C.ar      1 RES1    0.0000
      9 C3         8.5523    5.6616   10.8215 C.ar      1 RES1    0.0000
     10 H1         8.0067    5.0039   10.4062 H         1 RES1    0.0000
     11 C4         8.8354    6.8800   10.1911 C.ar      1 RES1    0.0000
     12 H2         8.4736    7.0566    9.3310 H         1 RES1    0.0000
     13 C5         9.6379    7.8355   10.8053 C.ar      1 RES1    0.0000
     14 H3         9.8057    8.6563   10.3577 H         1 RES1    0.0000
     15 C6        10.2038    7.6167   12.0652 C.ar      1 RES1    0.0000
     16 H4        10.7621    8.2654   12.4777 H         1 RES1    0.0000
     17 C7         9.9158    6.4160   12.6831 C.ar      1 RES1    0.0000
     18 C8        10.3896    5.8889   13.9870 C.2       1 RES1    0.0000
     19 C9         9.4519    3.6541   16.2804 C.3       1 RES1    0.0000
     20 C10        7.9296    3.7859   16.0790 C.3       1 RES1    0.0000
     21 H5         7.7222    4.7342   15.8851 H         1 RES1    0.0000
     22 H6         7.6737    3.2571   15.2809 H         1 RES1    0.0000
     23 C11        7.0691    3.3363   17.2467 C.ar      1 RES1    0.0000
     24 C12        6.5877    2.0265   17.3053 C.ar      1 RES1    0.0000
     25 H7         6.8441    1.4021   16.6370 H         1 RES1    0.0000
     26 C13        5.7359    1.6268   18.3320 C.ar      1 RES1    0.0000
     27 H8         5.4089    0.7357   18.3568 H         1 RES1    0.0000
     28 C14        5.3627    2.5272   19.3202 C.ar      1 RES1    0.0000
     29 H9         4.7820    2.2531   20.0201 H         1 RES1    0.0000
     30 C15        5.8412    3.8286   19.2796 C.ar      1 RES1    0.0000
     31 H10        5.5938    4.4457   19.9595 H         1 RES1    0.0000
     32 C16        6.6849    4.2355   18.2461 C.ar      1 RES1    0.0000
     33 H11        7.0017    5.1309   18.2214 H         1 RES1    0.0000
     34 C17        9.7973    2.2599   16.8376 C.2       1 RES1    0.0000
     35 C18        9.7986    1.1049   15.8807 C.3       1 RES1    0.0000
     36 H12        9.5521    0.2856   16.3581 H         1 RES1    0.0000
     37 H13       10.6933    1.0011   15.4951 H         1 RES1    0.0000
     38 H14        9.1515    1.2737   15.1636 H         1 RES1    0.0000
     39 C19       10.0671    4.7587   17.1713 C.2       1 RES1    0.0000
     40 C20       11.5510    4.6984   17.4092 C.3       1 RES1    0.0000
     41 H15       11.8879    5.5982   17.6030 H         1 RES1    0.0000
     42 H16       11.9958    4.3490   16.6087 H         1 RES1    0.0000
     43 H17       11.7362    4.1096   18.1689 H         1 RES1    0.0000
@<TRIPOS>BOND
     1    1    4 1
     2    2    7 2
     3    3   18 2
     4    4   19 1
     5    5   34 2
     6    6   39 2
     7    7    1 1
     8    8    7 1
     9    9    8 ar
    10   10    9 1
    11   11    9 ar
    12   12   11 1
    13   13   11 ar
    14   14   13 1
    15   15   13 ar
    16   16   15 1
    17   17    8 ar
    18   18    1 1
    19   19   20 1
    20   20   21 1
    21   22   20 1
    22   23   20 1
    23   24   23 ar
    24   25   24 1
    25   26   24 ar
    26   27   26 1
    27   28   26 ar
    28   29   28 1
    29   30   28 ar
    30   31   30 1
    31   32   23 ar
    32   33   32 1
    33   34   19 1
    34   35   34 1
    35   36   35 1
    36   37   35 1
    37   38   35 1
    38   39   19 1
    39   40   39 1
    40   41   40 1
    41   42   40 1
    42   43   40 1
    43   15   17 ar
    44   17   18 1
    45   30   32 ar
@<TRIPOS>SUBSTRUCTURE
     1 RES1 1

@<TRIPOS>CRYSIN
  11.8512   14.4247   20.2101  90.0000  90.0000  90.0000  61 1

