# MOL2 file generated by ConQuest
# Please check atom types

@<TRIPOS>MOLECULE
GIPCOZ
    36    38     1
SMALL
NO_CHARGES
****
Generated from CSD

@<TRIPOS>ATOM
      1 N1         2.2189    4.4858    2.0797 N.ar      1 RES1    0.0000
      2 N2         4.5494    2.0006    3.5937 N.pl3     1 RES1    0.0000
      3 O1         4.4403    1.2711    4.5841 O.2       1 RES1    0.0000
      4 O2         5.4294    1.8808    2.7533 O.2       1 RES1    0.0000
      5 C1         3.5516    3.0765    3.4373 C.ar      1 RES1    0.0000
      6 C2         3.1635    3.5273    2.1839 C.ar      1 RES1    0.0000
      7 C3         1.6891    5.0332    3.1975 C.ar      1 RES1    0.0000
      8 C4         2.0720    4.6091    4.4689 C.ar      1 RES1    0.0000
      9 H1         1.6856    5.0030    5.2425 H         1 RES1    0.0000
     10 C5         3.0190    3.6091    4.5933 C.ar      1 RES1    0.0000
     11 H2         3.2935    3.2983    5.4481 H         1 RES1    0.0000
     12 C6         0.6841    6.1044    2.9901 C.ar      1 RES1    0.0000
     13 C7        -0.0988    6.1252    1.8449 C.ar      1 RES1    0.0000
     14 H3        -0.0031    5.4342    1.2011 H         1 RES1    0.0000
     15 C8        -1.0154    7.1358    1.6285 C.ar      1 RES1    0.0000
     16 H4        -1.5378    7.1412    0.8350 H         1 RES1    0.0000
     17 C9        -1.1685    8.1412    2.5681 C.ar      1 RES1    0.0000
     18 H5        -1.7958    8.8393    2.4220 H         1 RES1    0.0000
     19 C10       -0.4084    8.1234    3.7168 C.ar      1 RES1    0.0000
     20 H6        -0.5198    8.8055    4.3679 H         1 RES1    0.0000
     21 C11        0.5184    7.1163    3.9260 C.ar      1 RES1    0.0000
     22 H7         1.0446    7.1180    4.7159 H         1 RES1    0.0000
     23 C12        3.7165    3.0178    0.8855 C.ar      1 RES1    0.0000
     24 C13        4.7844    3.7195    0.3210 C.ar      1 RES1    0.0000
     25 C14        5.3032    3.2598   -0.8963 C.ar      1 RES1    0.0000
     26 H8         6.0318    3.7135   -1.3039 H         1 RES1    0.0000
     27 C15        4.7540    2.1435   -1.5059 C.ar      1 RES1    0.0000
     28 H9         5.1189    1.8369   -2.3282 H         1 RES1    0.0000
     29 C16        3.7010    1.4763   -0.9504 C.ar      1 RES1    0.0000
     30 H10        3.3407    0.7135   -1.3868 H         1 RES1    0.0000
     31 C17        3.1539    1.9134    0.2561 C.ar      1 RES1    0.0000
     32 H11        2.4097    1.4644    0.6420 H         1 RES1    0.0000
     33 C18        5.3928    4.8796    1.0045 C.3       1 RES1    0.0000
     34 H12        4.7282    5.5973    1.0839 H         1 RES1    0.0000
     35 H13        6.1597    5.1993    0.4869 H         1 RES1    0.0000
     36 H14        5.6914    4.6127    1.8990 H         1 RES1    0.0000
@<TRIPOS>BOND
     1    1    6 ar
     2    2    3 2
     3    4    2 2
     4    5    2 1
     5    6    5 ar
     6    7    1 ar
     7    8    7 ar
     8    9    8 1
     9   10    5 ar
    10   11   10 1
    11   12    7 1
    12   13   12 ar
    13   14   13 1
    14   15   13 ar
    15   16   15 1
    16   17   15 ar
    17   18   17 1
    18   19   17 ar
    19   20   19 1
    20   21   12 ar
    21   22   21 1
    22   23    6 1
    23   24   23 ar
    24   25   24 ar
    25   26   25 1
    26   27   25 ar
    27   28   27 1
    28   29   27 ar
    29   30   29 1
    30   31   23 ar
    31   32   31 1
    32   33   24 1
    33   34   33 1
    34   35   33 1
    35   36   33 1
    36    8   10 ar
    37   19   21 ar
    38   29   31 ar
@<TRIPOS>SUBSTRUCTURE
     1 RES1 1

@<TRIPOS>CRYSIN
  13.6284    5.9312   18.7585  90.0000 105.9740  90.0000  14 1

