# MOL2 file generated by ConQuest
# Please check atom types

@<TRIPOS>MOLECULE
GIPKAU
    86    88     2
SMALL
NO_CHARGES
****
Generated from CSD

@<TRIPOS>ATOM
      1 O1         2.6542    6.4580    0.9727 O.2       1 RES1    0.0000
      2 O2         1.4471    6.5121    6.1039 O.2       1 RES1    0.0000
      3 O3         0.9680    2.4106   -3.4702 O.2       1 RES1    0.0000
      4 O4         0.7951    2.6914   -1.3880 O.2       1 RES1    0.0000
      5 O5        -1.5670    6.0888    6.6119 O.2       1 RES1    0.0000
      6 O6        -1.0155    7.9872    7.4784 O.2       1 RES1    0.0000
      7 N1         2.2383    4.5194   -0.1459 N.am      1 RES1    0.0000
      8 H1         1.8024    3.7817   -0.0404 H         1 RES1    0.0000
      9 N2         0.8410    4.5161    6.9775 N.am      1 RES1    0.0000
     10 H2         0.8660    3.6622    6.8562 H         1 RES1    0.0000
     11 N3         1.2830    3.0015   -2.4622 N.pl3     1 RES1    0.0000
     12 N4        -0.9998    6.7586    7.4543 N.pl3     1 RES1    0.0000
     13 C1         2.7061    4.8034   -1.4273 C.ar      1 RES1    0.0000
     14 C2         2.2753    4.0729   -2.5509 C.ar      1 RES1    0.0000
     15 C3         2.7683    4.3458   -3.8272 C.ar      1 RES1    0.0000
     16 H3         2.4743    3.8433   -4.5530 H         1 RES1    0.0000
     17 C4         3.6804    5.3451   -4.0198 C.ar      1 RES1    0.0000
     18 H4         4.0012    5.5333   -4.8729 H         1 RES1    0.0000
     19 C5         4.1183    6.0721   -2.9302 C.ar      1 RES1    0.0000
     20 H5         4.7402    6.7530   -3.0568 H         1 RES1    0.0000
     21 C6         3.6543    5.8110   -1.6648 C.ar      1 RES1    0.0000
     22 H6         3.9751    6.3116   -0.9503 H         1 RES1    0.0000
     23 C7         2.2342    5.3206    0.9656 C.2       1 RES1    0.0000
     24 C8         1.6364    4.6483    2.1668 C.3       1 RES1    0.0000
     25 H7         2.0545    3.7798    2.2756 H         1 RES1    0.0000
     26 H8         0.6928    4.4993    1.9999 H         1 RES1    0.0000
     27 C9         1.7813    5.4214    3.4678 C.3       1 RES1    0.0000
     28 H9         2.7112    5.6679    3.5954 H         1 RES1    0.0000
     29 H10        1.2600    6.2379    3.4171 H         1 RES1    0.0000
     30 C10        1.3198    4.6089    4.6306 C.3       1 RES1    0.0000
     31 H11        1.9200    3.8516    4.7277 H         1 RES1    0.0000
     32 H12        0.4407    4.2552    4.4225 H         1 RES1    0.0000
     33 C11        1.2415    5.3144    5.9509 C.2       1 RES1    0.0000
     34 C12        0.5451    4.9714    8.2780 C.ar      1 RES1    0.0000
     35 C13       -0.2839    6.0607    8.5416 C.ar      1 RES1    0.0000
     36 C14       -0.5453    6.5023    9.8239 C.ar      1 RES1    0.0000
     37 H13       -1.0940    7.2408    9.9590 H         1 RES1    0.0000
     38 C15        0.0057    5.8493   10.8966 C.ar      1 RES1    0.0000
     39 H14       -0.1603    6.1427   11.7640 H         1 RES1    0.0000
     40 C16        0.8136    4.7485   10.6710 C.ar      1 RES1    0.0000
     41 H15        1.1784    4.2900   11.3927 H         1 RES1    0.0000
     42 C17        1.0866    4.3207    9.3761 C.ar      1 RES1    0.0000
     43 H16        1.6417    3.5867    9.2439 H         1 RES1    0.0000
     44 O7         2.7861    1.6033    1.0486 O.2       2 RES2    0.0000
     45 O8         1.4806    1.6859    6.2066 O.2       2 RES2    0.0000
     46 O9         1.2606   -2.2834   -3.6356 O.2       2 RES2    0.0000
     47 O10        1.0800   -2.1870   -1.5052 O.2       2 RES2    0.0000
     48 O11        4.5017    1.4947    6.2632 O.2       2 RES2    0.0000
     49 O12        3.9429    3.2997    7.3132 O.2       2 RES2    0.0000
     50 N5         2.3407   -0.3043   -0.1298 N.am      2 RES2    0.0000
     51 H17        1.9531   -1.0746   -0.0772 H         2 RES2    0.0000
     52 N6         2.3242   -0.3127    6.8373 N.am      2 RES2    0.0000
     53 H18        2.2441   -1.1588    6.7147 H         2 RES2    0.0000
     54 N7         1.5768   -1.7899   -2.5592 N.pl3     2 RES2    0.0000
     55 N8         4.0034    2.0764    7.2174 N.pl3     2 RES2    0.0000
     56 C18        2.9173   -0.0198   -1.3670 C.ar      2 RES2    0.0000
     57 C19        2.5743   -0.7197   -2.5465 C.ar      2 RES2    0.0000
     58 C20        3.1743   -0.4274   -3.7647 C.ar      2 RES2    0.0000
     59 H19        2.9323   -0.9063   -4.5236 H         2 RES2    0.0000
     60 C21        4.1192    0.5575   -3.8582 C.ar      2 RES2    0.0000
     61 H20        4.5194    0.7500   -4.6762 H         2 RES2    0.0000
     62 C22        4.4704    1.2646   -2.7228 C.ar      2 RES2    0.0000
     63 H21        5.1016    1.9448   -2.7829 H         2 RES2    0.0000
     64 C23        3.8953    0.9721   -1.5025 C.ar      2 RES2    0.0000
     65 H22        4.1659    1.4468   -0.7500 H         2 RES2    0.0000
     66 C24        2.3111    0.4834    1.0010 C.2       2 RES2    0.0000
     67 C25        1.6198   -0.1707    2.1738 C.3       2 RES2    0.0000
     68 H23        1.9367   -1.0833    2.2591 H         2 RES2    0.0000
     69 H24        0.6660   -0.2022    2.0017 H         2 RES2    0.0000
     70 C26        1.8633    0.5640    3.4827 C.3       2 RES2    0.0000
     71 H25        1.4979    1.4602    3.4171 H         2 RES2    0.0000
     72 H26        2.8184    0.6414    3.6303 H         2 RES2    0.0000
     73 C27        1.2303   -0.1452    4.6758 C.3       2 RES2    0.0000
     74 H27        0.2640   -0.1070    4.6008 H         2 RES2    0.0000
     75 H28        1.4957   -1.0778    4.6780 H         2 RES2    0.0000
     76 C28        1.6619    0.5052    5.9664 C.2       2 RES2    0.0000
     77 C29        2.7538    0.1124    8.1195 C.ar      2 RES2    0.0000
     78 C30        3.4885    1.2752    8.3331 C.ar      2 RES2    0.0000
     79 C31        3.8297    1.6976    9.6147 C.ar      2 RES2    0.0000
     80 H29        4.3076    2.4870    9.7329 H         2 RES2    0.0000
     81 C32        3.4591    0.9479   10.7076 C.ar      2 RES2    0.0000
     82 H30        3.6803    1.2267   11.5673 H         2 RES2    0.0000
     83 C33        2.7571   -0.2207   10.5137 C.ar      2 RES2    0.0000
     84 H31        2.5157   -0.7384   11.2475 H         2 RES2    0.0000
     85 C34        2.4064   -0.6340    9.2388 C.ar      2 RES2    0.0000
     86 H32        1.9310   -1.4253    9.1300 H         2 RES2    0.0000
@<TRIPOS>BOND
     1    1   23 2
     2    2   33 2
     3    3   11 2
     4    4   11 2
     5    5   12 2
     6    6   12 2
     7    7    8 1
     8    9   10 1
     9   11   14 1
    10   12   35 1
    11   13    7 1
    12   14   13 ar
    13   15   14 ar
    14   16   15 1
    15   17   15 ar
    16   18   17 1
    17   19   17 ar
    18   20   19 1
    19   21   13 ar
    20   22   21 1
    21   23    7 1
    22   24   23 1
    23   25   24 1
    24   26   24 1
    25   27   24 1
    26   28   27 1
    27   29   27 1
    28   30   27 1
    29   31   30 1
    30   32   30 1
    31   33    9 1
    32   34    9 1
    33   35   34 ar
    34   36   35 ar
    35   37   36 1
    36   38   36 ar
    37   39   38 1
    38   40   38 ar
    39   41   40 1
    40   42   34 ar
    41   43   42 1
    42   44   66 2
    43   45   76 2
    44   46   54 2
    45   47   54 2
    46   48   55 2
    47   49   55 2
    48   50   51 1
    49   52   53 1
    50   54   57 1
    51   55   78 1
    52   56   50 1
    53   57   56 ar
    54   58   57 ar
    55   59   58 1
    56   60   58 ar
    57   61   60 1
    58   62   60 ar
    59   63   62 1
    60   64   56 ar
    61   65   64 1
    62   66   50 1
    63   67   66 1
    64   68   67 1
    65   69   67 1
    66   70   67 1
    67   71   70 1
    68   72   70 1
    69   73   70 1
    70   74   73 1
    71   75   73 1
    72   76   52 1
    73   77   52 1
    74   78   77 ar
    75   79   78 ar
    76   80   79 1
    77   81   79 ar
    78   82   81 1
    79   83   81 ar
    80   84   83 1
    81   85   77 ar
    82   86   85 1
    83   19   21 ar
    84   30   33 1
    85   40   42 ar
    86   62   64 ar
    87   73   76 1
    88   83   85 ar
@<TRIPOS>SUBSTRUCTURE
     1 RES1 1
     2 RES2 44

@<TRIPOS>CRYSIN
   9.6250    9.6730   18.5000  95.3700  93.3800  92.7700   2 1

