# MOL2 file generated by ConQuest
# Please check atom types

@<TRIPOS>MOLECULE
GIQVEJ
    28    30     1
SMALL
NO_CHARGES
****
Generated from CSD

@<TRIPOS>ATOM
      1 O1         2.0979    3.0407   -4.2622 O.2       1 RES1    0.0000
      2 O2         2.2136    0.9929   -3.6006 O.2       1 RES1    0.0000
      3 N1         0.6600    1.1836    1.1421 N.ar      1 RES1    0.0000
      4 N2        -0.4731    3.7750    1.3774 N.ar      1 RES1    0.0000
      5 N3         1.8911    2.1598   -3.4338 N.pl3     1 RES1    0.0000
      6 C1         0.6639    2.0661    0.0800 C.ar      1 RES1    0.0000
      7 C2         1.2535    1.6608   -1.1293 C.ar      1 RES1    0.0000
      8 H1         1.6409    0.7978   -1.2204 H         1 RES1    0.0000
      9 C3         1.2530    2.5487   -2.1738 C.ar      1 RES1    0.0000
     10 C4         0.6987    3.8401   -2.0762 C.ar      1 RES1    0.0000
     11 H2         0.7209    4.4287   -2.8222 H         1 RES1    0.0000
     12 C5         0.1298    4.2377   -0.9033 C.ar      1 RES1    0.0000
     13 H3        -0.2479    5.1062   -0.8313 H         1 RES1    0.0000
     14 C6         0.0999    3.3576    0.2107 C.ar      1 RES1    0.0000
     15 C7        -0.4837    2.9139    2.3890 C.ar      1 RES1    0.0000
     16 C8         0.0993    1.6155    2.2381 C.ar      1 RES1    0.0000
     17 H4         0.0768    1.0295    2.9851 H         1 RES1    0.0000
     18 C9        -1.0720    3.3463    3.6761 C.ar      1 RES1    0.0000
     19 C10       -1.5136    2.4280    4.6344 C.ar      1 RES1    0.0000
     20 H5        -1.4404    1.4957    4.4640 H         1 RES1    0.0000
     21 C11       -2.0569    2.8689    5.8299 C.ar      1 RES1    0.0000
     22 H6        -2.3551    2.2360    6.4731 H         1 RES1    0.0000
     23 C12       -2.1690    4.2151    6.0959 C.ar      1 RES1    0.0000
     24 H7        -2.5422    4.5085    6.9191 H         1 RES1    0.0000
     25 C13       -1.7357    5.1427    5.1612 C.ar      1 RES1    0.0000
     26 H8        -1.8077    6.0717    5.3431 H         1 RES1    0.0000
     27 C14       -1.1980    4.7078    3.9623 C.ar      1 RES1    0.0000
     28 H9        -0.9093    5.3470    3.3225 H         1 RES1    0.0000
@<TRIPOS>BOND
     1    1    5 2
     2    2    5 2
     3    3    6 ar
     4    4   14 ar
     5    5    9 1
     6    6    7 ar
     7    7    8 1
     8    9    7 ar
     9   10    9 ar
    10   11   10 1
    11   12   10 ar
    12   13   12 1
    13   14    6 ar
    14   15    4 ar
    15   16    3 ar
    16   17   16 1
    17   18   15 1
    18   19   18 ar
    19   20   19 1
    20   21   19 ar
    21   22   21 1
    22   23   21 ar
    23   24   23 1
    24   25   23 ar
    25   26   25 1
    26   27   18 ar
    27   28   27 1
    28   12   14 ar
    29   15   16 ar
    30   25   27 ar
@<TRIPOS>SUBSTRUCTURE
     1 RES1 1

@<TRIPOS>CRYSIN
   3.8860   11.3360   13.2440  78.3600  83.6800  81.2300   2 1

