# MOL2 file generated by ConQuest
# Please check atom types

@<TRIPOS>MOLECULE
GIRREF
    38    40     2
SMALL
NO_CHARGES
****
Generated from CSD

@<TRIPOS>ATOM
      1 O1         6.1715    9.3633    2.0038 O.3       1 RES1    0.0000
      2 O2        -2.2081    9.6684    7.4295 O.3       2 RES2    0.0000
      3 N1        11.8918    9.0973   -0.7329 N.ar      1 RES1    0.0000
      4 N2         7.2642    8.8317    1.2509 N.2       1 RES1    0.0000
      5 N3         5.5317   11.2809    3.0477 N.pl3     1 RES1    0.0000
      6 H1         4.7814   10.8726    3.2603 H         1 RES1    0.0000
      7 H2         5.6658   12.1139    3.2986 H         1 RES1    0.0000
      8 N4         3.0152    9.9366    3.8716 N.ar      2 RES2    0.0000
      9 N5        -1.0693   10.1974    6.7585 N.2       2 RES2    0.0000
     10 N6        -3.2648    7.6972    7.7872 N.pl3     2 RES2    0.0000
     11 H3        -3.8730    8.1495    8.2355 H         2 RES2    0.0000
     12 H4        -3.3409    6.8251    7.7015 H         2 RES2    0.0000
     13 C1        10.8638    8.2480   -0.8493 C.ar      1 RES1    0.0000
     14 H5        10.9918    7.4633   -1.3684 H         1 RES1    0.0000
     15 C2         9.6328    8.4406   -0.2631 C.ar      1 RES1    0.0000
     16 H6         8.9391    7.8031   -0.3809 H         1 RES1    0.0000
     17 C3         9.4195    9.5788    0.5018 C.ar      1 RES1    0.0000
     18 C4        10.4735   10.4709    0.6258 C.ar      1 RES1    0.0000
     19 H7        10.3729   11.2659    1.1369 H         1 RES1    0.0000
     20 C5        11.6724   10.1899   -0.0026 C.ar      1 RES1    0.0000
     21 H8        12.3832   10.8136    0.0919 H         1 RES1    0.0000
     22 C6         8.1332    9.8186    1.1931 C.2       1 RES1    0.0000
     23 C7         6.4639   10.6390    2.3455 C.2       1 RES1    0.0000
     24 C8         7.7004   10.9691    1.8632 C.2       1 RES1    0.0000
     25 H9         8.1623   11.7937    1.9608 H         1 RES1    0.0000
     26 C9         2.9158    8.8397    4.6269 C.ar      2 RES2    0.0000
     27 H10        3.6509    8.2391    4.6364 H         2 RES2    0.0000
     28 C10        1.8107    8.5222    5.3957 C.ar      2 RES2    0.0000
     29 H11        1.7863    7.7201    5.9043 H         2 RES2    0.0000
     30 C11        0.7353    9.4057    5.4071 C.ar      2 RES2    0.0000
     31 C12        0.8242   10.5494    4.6307 C.ar      2 RES2    0.0000
     32 H12        0.1107   11.1752    4.6125 H         2 RES2    0.0000
     33 C13        1.9648   10.7672    3.8821 C.ar      2 RES2    0.0000
     34 H13        2.0058   11.5501    3.3455 H         2 RES2    0.0000
     35 C14       -0.4806    9.1524    6.2204 C.2       2 RES2    0.0000
     36 C15       -1.1427    7.9549    6.4985 C.2       2 RES2    0.0000
     37 H14       -0.8955    7.0765    6.2335 H         2 RES2    0.0000
     38 C16       -2.2303    8.3331    7.2395 C.2       2 RES2    0.0000
@<TRIPOS>BOND
     1    1    4 1
     2    2    9 1
     3    3   13 ar
     4    4   22 2
     5    5    6 1
     6    7    5 1
     7    8   26 ar
     8    9   35 2
     9   10   11 1
    10   12   10 1
    11   13   14 1
    12   15   13 ar
    13   16   15 1
    14   17   15 ar
    15   18   17 ar
    16   19   18 1
    17   20    3 ar
    18   21   20 1
    19   22   17 1
    20   23    1 1
    21   24   22 1
    22   25   24 1
    23   26   27 1
    24   28   26 ar
    25   29   28 1
    26   30   28 ar
    27   31   30 ar
    28   32   31 1
    29   33    8 ar
    30   34   33 1
    31   35   30 1
    32   36   35 1
    33   37   36 1
    34   38    2 1
    35    5   23 1
    36   10   38 1
    37   18   20 ar
    38   23   24 2
    39   31   33 ar
    40   36   38 2
@<TRIPOS>SUBSTRUCTURE
     1 RES1 1
     2 RES2 2

@<TRIPOS>CRYSIN
  14.6411   10.9272   10.0060  90.0000 106.9870  90.0000  14 1

