# MOL2 file generated by ConQuest
# Please check atom types

@<TRIPOS>MOLECULE
GIRVEJ
    76   102     2
SMALL
NO_CHARGES
****
Generated from CSD

@<TRIPOS>ATOM
      1 N1        -1.1318    9.0276   15.5629 N.2       1 RES1    0.0000
      2 O1        -0.5245    9.8066   16.2582 O.2       1 RES1    0.0000
      3 O2        -2.0063    8.2972   15.9989 O.2       1 RES1    0.0000
      4 C1        -0.8231    8.9703   14.1359 C.2       1 RES1    0.0000
      5 C2        -1.7427    8.3933   13.2856 C.2       1 RES1    0.0000
      6 H1        -2.5565    8.0367   13.6221 H         1 RES1    0.0000
      7 C3        -1.4577    8.3453   11.9379 C.2       1 RES1    0.0000
      8 H2        -2.0770    7.9612   11.3288 H         1 RES1    0.0000
      9 C4        -0.2653    8.8592   11.4872 C.2       1 RES1    0.0000
     10 C5         0.6520    9.4404   12.3379 C.2       1 RES1    0.0000
     11 H3         1.4674    9.7899   11.9977 H         1 RES1    0.0000
     12 C6         0.3741    9.5102   13.6884 C.2       1 RES1    0.0000
     13 H4         0.9842    9.9154   14.2935 H         1 RES1    0.0000
     14 O3        -0.0387    8.8381   10.1022 O.3       1 RES1    0.0000
     15 C7         0.8406    7.9417    9.6449 C.2       1 RES1    0.0000
     16 O4         1.5058    7.2182   10.3103 O.2       1 RES1    0.0000
     17 O5         0.8024    8.0523    8.3227 O.3       1 RES1    0.0000
     18 C8         1.5332    6.9072    7.6548 C.3       1 RES1    0.0000
     19 H5         1.7035    6.1851    8.3262 H         1 RES1    0.0000
     20 C9         2.8510    7.5145    7.2269 C.3       1 RES1    0.0000
     21 H6         3.3958    7.7209    8.0271 H         1 RES1    0.0000
     22 H7         2.6836    8.3606    6.7410 H         1 RES1    0.0000
     23 C10        0.6424    6.9463    6.2980 C.3       1 RES1    0.0000
     24 H8        -0.2877    6.6386    6.4406 H         1 RES1    0.0000
     25 H9         0.6272    7.8586    5.9143 H         1 RES1    0.0000
     26 C11        1.4365    6.9072    7.5891 C.3       1 RES1    0.0000
     27 H10        1.2827    6.0475    8.0738 H         1 RES1    0.0000
     28 C12        2.9150    7.1906    7.4554 C.3       1 RES1    0.0000
     29 H11        3.4507    7.3647    8.2202 H         1 RES1    0.0000
     30 C13        0.7942    6.3079    6.4393 C.3       1 RES1    0.0000
     31 H12       -0.0671    5.9274    6.5668 H         1 RES1    0.0000
     32 C14        1.9619    7.4659    7.5955 Du        2 SUP2    0.0000
     33 H13        2.8068    7.5644    8.1255 Du        2 SUP2    0.0000
     34 C15        1.6052    6.0191    7.4200 Du        2 SUP2    0.0000
     35 H14        0.6886    5.9516    7.0515 Du        2 SUP2    0.0000
     36 H15        1.6141    5.5697    8.3022 Du        2 SUP2    0.0000
     37 C16        2.5728    5.3146    6.4886 Du        2 SUP2    0.0000
     38 H16        2.4098    4.3376    6.4860 Du        2 SUP2    0.0000
     39 H17        3.5091    5.4820    6.7637 Du        2 SUP2    0.0000
     40 C17        2.2990    5.9098    5.1179 Du        2 SUP2    0.0000
     41 H18        1.4392    5.5657    4.7443 Du        2 SUP2    0.0000
     42 C18        2.3567    7.3943    5.0447 Du        2 SUP2    0.0000
     43 H19        2.5527    7.8465    4.2319 Du        2 SUP2    0.0000
     44 C19        2.1069    8.0961    6.2273 Du        2 SUP2    0.0000
     45 H20        2.0192    9.0395    6.1680 Du        2 SUP2    0.0000
     46 N1B        5.3917    4.4682   -2.9416 N.2       1 RES1    0.0000
     47 O1B        4.7844    3.6892   -3.6369 O.2       1 RES1    0.0000
     48 O2B        6.2662    5.1986   -3.3777 O.2       1 RES1    0.0000
     49 C1B        5.0830    4.5255   -1.5147 C.2       1 RES1    0.0000
     50 C2B        6.0026    5.1025   -0.6644 C.2       1 RES1    0.0000
     51 H1B        6.8164    5.4591   -1.0009 H         1 RES1    0.0000
     52 C3B        5.7176    5.1505    0.6833 C.2       1 RES1    0.0000
     53 H2B        6.3369    5.5346    1.2924 H         1 RES1    0.0000
     54 C4B        4.5252    4.6366    1.1340 C.2       1 RES1    0.0000
     55 C5B        3.6079    4.0554    0.2833 C.2       1 RES1    0.0000
     56 H3B        2.7925    3.7059    0.6235 H         1 RES1    0.0000
     57 C6B        3.8858    3.9856   -1.0671 C.2       1 RES1    0.0000
     58 H4B        3.2757    3.5804   -1.6723 H         1 RES1    0.0000
     59 O3B        4.2986    4.6577    2.5191 O.3       1 RES1    0.0000
     60 C7B        3.4193    5.5541    2.9763 C.2       1 RES1    0.0000
     61 O4B        2.7541    6.2776    2.3109 O.2       1 RES1    0.0000
     62 O5B        3.4575    5.4435    4.2985 O.3       1 RES1    0.0000
     63 C8B        2.7267    6.5886    4.9665 C.3       1 RES1    0.0000
     64 H5B        2.5564    7.3107    4.2950 H         1 RES1    0.0000
     65 C9B        1.4089    5.9813    5.3943 C.3       1 RES1    0.0000
     66 H6B        0.8641    5.7749    4.5941 H         1 RES1    0.0000
     67 H7B        1.5763    5.1352    5.8802 H         1 RES1    0.0000
     68 C10B       3.6175    6.5495    6.3232 C.3       1 RES1    0.0000
     69 H8B        4.5476    6.8572    6.1806 H         1 RES1    0.0000
     70 H9B        3.6327    5.6372    6.7069 H         1 RES1    0.0000
     71 C11B       2.8234    6.5886    5.0321 C.3       1 RES1    0.0000
     72 H10B       2.9772    7.4483    4.5474 H         1 RES1    0.0000
     73 C12B       1.3449    6.3052    5.1659 C.3       1 RES1    0.0000
     74 H11B       0.8092    6.1311    4.4010 H         1 RES1    0.0000
     75 C13B       3.4657    7.1879    6.1819 C.3       1 RES1    0.0000
     76 H12B       4.3270    7.5684    6.0544 H         1 RES1    0.0000
@<TRIPOS>BOND
     1    1    2 1
     2    3    1 1
     3    4    1 1
     4    5    4 1
     5    6    5 1
     6    7    5 1
     7    8    7 1
     8    9    7 1
     9   10    9 1
    10   11   10 1
    11   12    4 1
    12   13   12 1
    13   14    9 1
    14   15   14 1
    15   16   15 1
    16   17   15 1
    17   18   17 1
    18   19   18 1
    19   20   18 1
    20   21   20 1
    21   22   20 1
    22   23   18 1
    23   24   23 1
    24   25   23 1
    25   26   17 1
    26   27   18 1
    27   28   18 1
    28   29   20 1
    29   30   18 1
    30   31   23 1
    31   46   47 1
    32   48   46 1
    33   49   46 1
    34   50   49 1
    35   51   50 1
    36   52   50 1
    37   53   52 1
    38   54   52 1
    39   55   54 1
    40   56   55 1
    41   57   49 1
    42   58   57 1
    43   59   54 1
    44   60   59 1
    45   61   60 1
    46   62   60 1
    47   63   62 1
    48   64   63 1
    49   65   23 1
    50   66   65 1
    51   67   65 1
    52   68   20 1
    53   69   68 1
    54   70   68 1
    55   71   62 1
    56   72   63 1
    57   73   23 1
    58   74   65 1
    59   75   20 1
    60   76   68 1
    61   10   12 1
    62   18   26 1
    63   19   26 1
    64   19   27 1
    65   20   26 1
    66   20   28 1
    67   21   28 1
    68   21   29 1
    69   23   26 1
    70   23   30 1
    71   24   30 1
    72   24   31 1
    73   26   27 1
    74   26   28 1
    75   26   30 1
    76   28   29 1
    77   28   68 1
    78   28   75 1
    79   30   31 1
    80   30   65 1
    81   30   73 1
    82   55   57 1
    83   63   65 1
    84   63   68 1
    85   63   71 1
    86   63   73 1
    87   63   75 1
    88   64   71 1
    89   64   72 1
    90   65   71 1
    91   65   73 1
    92   66   73 1
    93   66   74 1
    94   68   71 1
    95   68   75 1
    96   69   75 1
    97   69   76 1
    98   71   72 1
    99   71   73 1
   100   71   75 1
   101   73   74 1
   102   75   76 1
@<TRIPOS>SUBSTRUCTURE
     1 RES1 1
     2 SUP2 32

@<TRIPOS>CRYSIN
   5.6874   13.4958   12.7017  90.0000  96.4530  90.0000 231 1

