# MOL2 file generated by ConQuest
# Please check atom types

@<TRIPOS>MOLECULE
GIRVUA
    65    50     2
SMALL
USER_CHARGES
****
Generated from CSD

@<TRIPOS>ATOM
      1 O1         4.7623    2.6317    9.0357 O.3       1 RES1    0.0000
      2 O2         2.8899    1.4031    9.1573 O.2       1 RES1   -1.0000
      3 O3         0.9671    2.1286    7.1646 O.2       1 RES1    0.0000
      4 O4         1.7487    3.7576    5.8570 O.3       1 RES1    0.0000
      5 O5         5.4954    1.8319    6.1420 O.3       1 RES1    0.0000
      6 O6         6.7942    5.5235    6.6521 O.2       1 RES1    0.0000
      7 O7         7.8564    6.1421    8.5066 O.3       1 RES1    0.0000
      8 N1         3.4461    2.2985    8.5384 N.pl3     1 RES1    1.0000
      9 C1         5.4074    3.4350    7.9879 C.3       1 RES1    0.0000
     10 C2         6.1850    2.4894    7.1157 C.2       1 RES1    0.0000
     11 C3         7.4479    2.0579    7.1732 C.2       1 RES1    0.0000
     12 H1         8.1152    2.3486    7.7506 H         1 RES1    0.0000
     13 C4         7.5571    1.0540    6.1579 C.2       1 RES1    0.0000
     14 H2         8.3173    0.5613    5.9463 H         1 RES1    0.0000
     15 C5         6.3954    0.9638    5.5903 C.2       1 RES1    0.0000
     16 H3         6.1983    0.3792    4.8930 H         1 RES1    0.0000
     17 C6         6.3397    4.3982    8.6949 C.2       1 RES1    0.0000
     18 C7         6.5570    4.3380   10.0038 C.2       1 RES1    0.0000
     19 C8         7.0020    5.3887    7.8313 C.2       1 RES1    0.0000
     20 C9         8.3339    7.3748    7.8032 C.3       1 RES1    0.0000
     21 H4         8.5694    7.1426    6.8919 H         1 RES1    0.0000
     22 H5         7.6067    8.0146    7.7665 H         1 RES1    0.0000
     23 C10        9.2942    7.9010    8.3341 C.3       1 RES1    0.0000
     24 H6         9.5319    8.6961    7.8497 H         1 RES1    0.0000
     25 H7        10.0358    7.2913    8.3329 H         1 RES1    0.0000
     26 H8         9.0727    8.1332    9.2393 H         1 RES1    0.0000
     27 C11        4.1958    4.0719    7.2368 C.3       1 RES1    0.0000
     28 H9         4.3820    4.0908    6.2753 H         1 RES1    0.0000
     29 C12        3.7728    5.4599    7.6992 C.ar      1 RES1    0.0000
     30 C13        3.7233    6.5095    6.8099 C.ar      1 RES1    0.0000
     31 H10        3.9511    6.3709    5.9181 H         1 RES1    0.0000
     32 C14        3.3354    7.7724    7.2368 C.ar      1 RES1    0.0000
     33 H11        3.3068    8.4823    6.6350 H         1 RES1    0.0000
     34 C15        2.9893    7.9728    8.5714 C.ar      1 RES1    0.0000
     35 H12        2.7337    8.8180    8.8638 H         1 RES1    0.0000
     36 C16        3.0250    6.9455    9.4362 C.ar      1 RES1    0.0000
     37 H13        2.7923    7.0875   10.3256 H         1 RES1    0.0000
     38 C17        3.4013    5.6810    9.0264 C.ar      1 RES1    0.0000
     39 H14        3.4079    4.9778    9.6344 H         1 RES1    0.0000
     40 C18        3.1277    3.0583    7.5194 C.2       1 RES1    0.0000
     41 C19        1.8230    2.9065    6.8649 C.2       1 RES1    0.0000
     42 C20        0.5346    3.6866    5.0472 C.3       1 RES1    0.0000
     43 H15        0.4438    2.7946    4.6778 H         1 RES1    0.0000
     44 H16       -0.2368    3.8670    5.6013 H         1 RES1    0.0000
     45 C21        0.6007    4.6086    4.0196 C.3       1 RES1    0.0000
     46 H17       -0.2026    4.5619    3.4973 H         1 RES1    0.0000
     47 H18        1.3583    4.4149    3.4618 H         1 RES1    0.0000
     48 H19        0.6914    5.4906    4.3878 H         1 RES1    0.0000
     49 C22        9.1008    6.7434    7.6454 Du        2 SUP2    0.0000
     50 H20        8.8450    7.0591    6.7634 Du        2 SUP2    0.0000
     51 H21        9.8651    6.1538    7.5977 Du        2 SUP2    0.0000
     52 C23        9.2584    8.0497    8.8650 Du        2 SUP2    0.0000
     53 H22        9.9613    8.6477    8.6020 Du        2 SUP2    0.0000
     54 H23        9.4668    7.6655    9.7188 Du        2 SUP2    0.0000
     55 H24        8.4322    8.5357    8.9249 Du        2 SUP2    0.0000
     56 C24        0.3961    3.9756    5.2845 Du        2 SUP2    0.0000
     57 H25        0.1715    3.2456    4.6790 Du        2 SUP2    0.0000
     58 H26       -0.2677    3.9923    5.9903 Du        2 SUP2    0.0000
     59 C25        0.3630    5.1983    4.5738 Du        2 SUP2    0.0000
     60 H27       -0.5233    5.3553    4.2398 Du        2 SUP2    0.0000
     61 H28        0.9804    5.1582    3.8386 Du        2 SUP2    0.0000
     62 H29        0.6139    5.9132    5.1634 Du        2 SUP2    0.0000
     63 H30        7.1703    5.0312   10.2583 Du        2 SUP2    0.0000
     64 H31        6.9310    3.4828   10.2277 Du        2 SUP2    0.0000
     65 H32        5.7278    4.4566   10.4723 Du        2 SUP2    0.0000
@<TRIPOS>BOND
     1    1    8 1
     2    2    8 1
     3    3   41 2
     4    4   41 1
     5    5   10 1
     6    6   19 2
     7    7   19 1
     8    8   40 2
     9    9    1 1
    10   10    9 1
    11   11   10 2
    12   12   11 1
    13   13   11 1
    14   14   13 1
    15   15    5 1
    16   16   15 1
    17   17    9 1
    18   18   17 2
    19   19   17 1
    20   20    7 1
    21   21   20 1
    22   22   20 1
    23   23   20 1
    24   24   23 1
    25   25   23 1
    26   26   23 1
    27   27    9 1
    28   28   27 1
    29   29   27 1
    30   30   29 ar
    31   31   30 1
    32   32   30 ar
    33   33   32 1
    34   34   32 ar
    35   35   34 1
    36   36   34 ar
    37   37   36 1
    38   38   29 ar
    39   39   38 1
    40   40   27 1
    41   41   40 1
    42   42    4 1
    43   43   42 1
    44   44   42 1
    45   45   42 1
    46   46   45 1
    47   47   45 1
    48   48   45 1
    49   13   15 2
    50   36   38 ar
@<TRIPOS>SUBSTRUCTURE
     1 RES1 1
     2 SUP2 49

@<TRIPOS>CRYSIN
   9.9010   16.7040   12.2430  90.0000  92.3600  90.0000  14 1

