# MOL2 file generated by ConQuest
# Please check atom types

@<TRIPOS>MOLECULE
GIRVIN
   100   104     2
SMALL
NO_CHARGES
****
Generated from CSD

@<TRIPOS>ATOM
      1 O1         1.4090    2.6150    2.9399 O.3       1 RES1    0.0000
      2 O2         3.3699    1.5063    3.2090 O.2       1 RES1    0.0000
      3 O3         2.7693    2.5975    1.2985 O.3       1 RES1    0.0000
      4 O4         7.0363    0.5870   -2.7762 O.2       1 RES1    0.0000
      5 O5         8.3102    0.9621   -1.0733 O.2       1 RES1    0.0000
      6 N1         7.2176    0.9634   -1.6270 N.pl3     1 RES1    0.0000
      7 C1         1.6469    3.3063    5.2557 C.3       1 RES1    0.0000
      8 H1         1.4568    4.2260    4.9415 H         1 RES1    0.0000
      9 H2         2.6280    3.1785    5.2612 H         1 RES1    0.0000
     10 C2        -0.5078    2.3986    4.3274 C.3       1 RES1    0.0000
     11 H3        -0.8892    1.7073    3.7309 H         1 RES1    0.0000
     12 H4        -0.7803    3.2850    3.9813 H         1 RES1    0.0000
     13 C3         1.0010    2.2973    4.3142 C.3       1 RES1    0.0000
     14 H5         1.2862    1.3689    4.5537 H         1 RES1    0.0000
     15 C4         2.6049    2.1736    2.5718 C.2       1 RES1    0.0000
     16 C5         3.9277    2.1970    0.6141 C.ar      1 RES1    0.0000
     17 C6         5.1720    2.3340    1.1579 C.ar      1 RES1    0.0000
     18 H6         5.2840    2.7031    2.0258 H         1 RES1    0.0000
     19 C7         6.2630    1.9243    0.4208 C.ar      1 RES1    0.0000
     20 H7         7.1404    1.9865    0.7789 H         1 RES1    0.0000
     21 C8         6.0574    1.4240   -0.8415 C.ar      1 RES1    0.0000
     22 C9         4.8204    1.3172   -1.3919 C.ar      1 RES1    0.0000
     23 H8         4.7150    0.9732   -2.2719 H         1 RES1    0.0000
     24 C10        3.7177    1.7137   -0.6603 C.ar      1 RES1    0.0000
     25 H9         2.8423    1.6546   -1.0239 H         1 RES1    0.0000
     26 O6         8.5693    7.1192    1.8544 O.3       2 RES2    0.0000
     27 O7         7.8670    6.3189    3.8429 O.2       2 RES2    0.0000
     28 O8         7.7640    8.5091    3.2552 O.3       2 RES2    0.0000
     29 O9         4.8935   10.2972    8.5603 O.2       2 RES2    0.0000
     30 O10        5.1220   12.1882    7.5243 O.2       2 RES2    0.0000
     31 N2         5.2701   10.9778    7.6001 N.pl3     2 RES2    0.0000
     32 C11        9.8945    5.9844    0.2351 C.3       2 RES2    0.0000
     33 H10       10.6187    6.5988    0.5109 H         2 RES2    0.0000
     34 H11       10.3071    5.1180   -0.0088 H         2 RES2    0.0000
     35 C12        7.7381    4.9856    0.9942 C.3       2 RES2    0.0000
     36 H12        7.1039    4.9645    1.7545 H         2 RES2    0.0000
     37 H13        8.0091    4.0540    0.7998 H         2 RES2    0.0000
     38 C13        8.9542    5.7745    1.3941 C.3       2 RES2    0.0000
     39 H14        9.4344    5.2960    2.1291 H         2 RES2    0.0000
     40 C14        8.0336    7.1979    3.0684 C.2       2 RES2    0.0000
     41 C15        7.1383    9.0116    4.3999 C.ar      2 RES2    0.0000
     42 C16        6.9838    8.3289    5.5996 C.ar      2 RES2    0.0000
     43 H15        7.2976    7.4384    5.7007 H         2 RES2    0.0000
     44 C17        6.3529    8.9947    6.6509 C.ar      2 RES2    0.0000
     45 H16        6.2214    8.5515    7.4815 H         2 RES2    0.0000
     46 C18        5.9224   10.2880    6.4873 C.ar      2 RES2    0.0000
     47 C19        6.0956   10.9509    5.2942 C.ar      2 RES2    0.0000
     48 H17        5.7915   11.8449    5.1931 H         2 RES2    0.0000
     49 C20        6.7129   10.3057    4.2538 C.ar      2 RES2    0.0000
     50 H18        6.8454   10.7568    3.4276 H         2 RES2    0.0000
     51 O1A       -0.8192    2.9055    8.0462 O.3       1 RES1    0.0000
     52 O2A       -2.7801    4.0142    7.7770 O.2       1 RES1    0.0000
     53 O3A       -2.1796    2.9229    9.6875 O.3       1 RES1    0.0000
     54 O4A       -6.4466    4.9335   13.7622 O.2       1 RES1    0.0000
     55 O5A       -7.7204    4.5583   12.0594 O.2       1 RES1    0.0000
     56 N1A       -6.6279    4.5571   12.6131 N.pl3     1 RES1    0.0000
     57 C1A       -1.0572    2.2142    5.7303 C.3       1 RES1    0.0000
     58 H1A       -0.8671    1.2945    6.0445 H         1 RES1    0.0000
     59 H2A       -2.0383    2.3420    5.7248 H         1 RES1    0.0000
     60 C2A        1.0975    3.1219    6.6586 C.3       1 RES1    0.0000
     61 H3A        1.4789    3.8132    7.2552 H         1 RES1    0.0000
     62 H4A        1.3700    2.2355    7.0047 H         1 RES1    0.0000
     63 C3A       -0.4112    3.2232    6.6718 C.3       1 RES1    0.0000
     64 H5A       -0.6965    4.1516    6.4323 H         1 RES1    0.0000
     65 C4A       -2.0152    3.3469    8.4142 C.2       1 RES1    0.0000
     66 C5A       -3.3380    3.3235   10.3719 C.ar      1 RES1    0.0000
     67 C6A       -4.5822    3.1865    9.8281 C.ar      1 RES1    0.0000
     68 H6A       -4.6943    2.8174    8.9602 H         1 RES1    0.0000
     69 C7A       -5.6733    3.5962   10.5653 C.ar      1 RES1    0.0000
     70 H7A       -6.5506    3.5340   10.2071 H         1 RES1    0.0000
     71 C8A       -5.4677    4.0965   11.8276 C.ar      1 RES1    0.0000
     72 C9A       -4.2307    4.2033   12.3780 C.ar      1 RES1    0.0000
     73 H8A       -4.1253    4.5473   13.2579 H         1 RES1    0.0000
     74 C10A      -3.1280    3.8068   11.6463 C.ar      1 RES1    0.0000
     75 H9A       -2.2526    3.8659   12.0099 H         1 RES1    0.0000
     76 O6A        8.3510    4.4308   -1.8544 O.3       2 RES2    0.0000
     77 O7A        9.0533    5.2311   -3.8429 O.2       2 RES2    0.0000
     78 O8A        9.1563    3.0409   -3.2552 O.3       2 RES2    0.0000
     79 O9A       12.0269    1.2528   -8.5603 O.2       2 RES2    0.0000
     80 O10A      11.7984   -0.6382   -7.5243 O.2       2 RES2    0.0000
     81 N2A       11.6503    0.5722   -7.6001 N.pl3     2 RES2    0.0000
     82 C11A       7.0259    5.5656   -0.2351 C.3       2 RES2    0.0000
     83 H10A       6.3017    4.9512   -0.5109 H         2 RES2    0.0000
     84 H11A       6.6133    6.4320    0.0088 H         2 RES2    0.0000
     85 C12A       9.1822    6.5644   -0.9942 C.3       2 RES2    0.0000
     86 H12A       9.8164    6.5854   -1.7545 H         2 RES2    0.0000
     87 H13A       8.9113    7.4960   -0.7998 H         2 RES2    0.0000
     88 C13A       7.9662    5.7755   -1.3941 C.3       2 RES2    0.0000
     89 H14A       7.4859    6.2540   -2.1291 H         2 RES2    0.0000
     90 C14A       8.8868    4.3521   -3.0684 C.2       2 RES2    0.0000
     91 C15A       9.7821    2.5384   -4.3999 C.ar      2 RES2    0.0000
     92 C16A       9.9366    3.2211   -5.5996 C.ar      2 RES2    0.0000
     93 H15A       9.6228    4.1116   -5.7007 H         2 RES2    0.0000
     94 C17A      10.5674    2.5553   -6.6509 C.ar      2 RES2    0.0000
     95 H16A      10.6990    2.9984   -7.4815 H         2 RES2    0.0000
     96 C18A      10.9980    1.2620   -6.4873 C.ar      2 RES2    0.0000
     97 C19A      10.8248    0.5991   -5.2942 C.ar      2 RES2    0.0000
     98 H17A      11.1289   -0.2949   -5.1931 H         2 RES2    0.0000
     99 C20A      10.2074    1.2443   -4.2538 C.ar      2 RES2    0.0000
    100 H18A      10.0749    0.7932   -3.4276 H         2 RES2    0.0000
@<TRIPOS>BOND
     1    1   13 1
     2    2   15 2
     3    3   15 1
     4    4    6 2
     5    5    6 2
     6    6   21 1
     7    7    8 1
     8    9    7 1
     9   10   11 1
    10   12   10 1
    11   13    7 1
    12   14   13 1
    13   15    1 1
    14   16    3 1
    15   17   16 ar
    16   18   17 1
    17   19   17 ar
    18   20   19 1
    19   21   19 ar
    20   22   21 ar
    21   23   22 1
    22   24   16 ar
    23   25   24 1
    24   26   38 1
    25   27   40 2
    26   28   40 1
    27   29   31 2
    28   30   31 2
    29   31   46 1
    30   32   33 1
    31   34   32 1
    32   35   36 1
    33   37   35 1
    34   38   32 1
    35   39   38 1
    36   40   26 1
    37   41   28 1
    38   42   41 ar
    39   43   42 1
    40   44   42 ar
    41   45   44 1
    42   46   44 ar
    43   47   46 ar
    44   48   47 1
    45   49   41 ar
    46   50   49 1
    47   51   63 1
    48   52   65 2
    49   53   65 1
    50   54   56 2
    51   55   56 2
    52   56   71 1
    53   57   10 1
    54   58   57 1
    55   59   57 1
    56   60    7 1
    57   61   60 1
    58   62   60 1
    59   63   57 1
    60   64   63 1
    61   65   51 1
    62   66   53 1
    63   67   66 ar
    64   68   67 1
    65   69   67 ar
    66   70   69 1
    67   71   69 ar
    68   72   71 ar
    69   73   72 1
    70   74   66 ar
    71   75   74 1
    72   76   88 1
    73   77   90 2
    74   78   90 1
    75   79   81 2
    76   80   81 2
    77   81   96 1
    78   82   35 1
    79   83   82 1
    80   84   82 1
    81   85   32 1
    82   86   85 1
    83   87   85 1
    84   88   82 1
    85   89   88 1
    86   90   76 1
    87   91   78 1
    88   92   91 ar
    89   93   92 1
    90   94   92 ar
    91   95   94 1
    92   96   94 ar
    93   97   96 ar
    94   98   97 1
    95   99   91 ar
    96  100   99 1
    97   10   13 1
    98   22   24 ar
    99   35   38 1
   100   47   49 ar
   101   60   63 1
   102   72   74 ar
   103   85   88 1
   104   97   99 ar
@<TRIPOS>SUBSTRUCTURE
     1 RES1 1
     2 RES2 26

@<TRIPOS>CRYSIN
   7.6804   11.6548   12.3092  63.2010  87.2540  82.3100   2 1

