# MOL2 file generated by ConQuest
# Please check atom types

@<TRIPOS>MOLECULE
GIRWAH
    37    38     1
SMALL
USER_CHARGES
****
Generated from CSD

@<TRIPOS>ATOM
      1 O1         4.1498    7.1628    6.0666 O.3       1 RES1    0.0000
      2 O2         4.1224    5.0228    6.8079 O.2       1 RES1    0.0000
      3 O3         3.5008    3.2209    4.6608 O.2       1 RES1   -1.0000
      4 O4         3.3419    4.2729    2.6595 O.3       1 RES1    0.0000
      5 O5         4.8278    7.4291    0.3543 O.2       1 RES1    0.0000
      6 O6         6.8678    6.4798    0.2589 O.3       1 RES1    0.0000
      7 N1         3.5650    4.3218    4.0978 N.pl3     1 RES1    1.0000
      8 C1         4.3907    7.6322    7.4103 C.3       1 RES1    0.0000
      9 H1         3.7146    7.2854    7.9965 H         1 RES1    0.0000
     10 H2         4.3641    8.5915    7.4236 H         1 RES1    0.0000
     11 H3         5.2541    7.3322    7.7039 H         1 RES1    0.0000
     12 C2         4.0322    5.8354    5.9205 C.2       1 RES1    0.0000
     13 C3         3.7707    5.5575    4.4945 C.2       1 RES1    0.0000
     14 C4         3.7139    6.5311    3.3547 C.3       1 RES1    0.0000
     15 H4         4.5317    7.0706    3.3695 H         1 RES1    0.0000
     16 C5         2.5075    7.4845    3.3629 C.ar      1 RES1    0.0000
     17 C6         2.4680    8.5212    2.4432 C.ar      1 RES1    0.0000
     18 H5         3.1567    8.6075    1.8243 H         1 RES1    0.0000
     19 C7         1.4215    9.4337    2.4289 C.ar      1 RES1    0.0000
     20 H6         1.4004   10.1108    1.7911 H         1 RES1    0.0000
     21 C8         0.4126    9.3343    3.3643 C.ar      1 RES1    0.0000
     22 H7        -0.2816    9.9522    3.3719 H         1 RES1    0.0000
     23 C9         0.4405    8.3122    4.2882 C.ar      1 RES1    0.0000
     24 H8        -0.2384    8.2437    4.9196 H         1 RES1    0.0000
     25 C10        1.4766    7.3782    4.2851 C.ar      1 RES1    0.0000
     26 H9         1.4769    6.6833    4.9024 H         1 RES1    0.0000
     27 C11        3.7949    5.5541    2.1440 C.3       1 RES1    0.0000
     28 H10        3.1885    5.8564    1.4358 H         1 RES1    0.0000
     29 C12        5.2090    5.4349    1.5904 C.2       1 RES1    0.0000
     30 C13        6.0338    4.4559    1.9021 C.2       1 RES1    0.0000
     31 H11        6.8947    4.4429    1.5501 H         1 RES1    0.0000
     32 H12        5.7555    3.7781    2.4745 H         1 RES1    0.0000
     33 C14        5.5935    6.5480    0.6816 C.2       1 RES1    0.0000
     34 C15        7.2910    7.5375   -0.6487 C.3       1 RES1    0.0000
     35 H13        6.9083    7.3864   -1.5157 H         1 RES1    0.0000
     36 H14        8.2483    7.5368   -0.7167 H         1 RES1    0.0000
     37 H15        6.9943    8.3861   -0.3122 H         1 RES1    0.0000
@<TRIPOS>BOND
     1    1    8 1
     2    2   12 2
     3    3    7 1
     4    4    7 1
     5    5   33 2
     6    6   33 1
     7    7   13 2
     8    8    9 1
     9   10    8 1
    10   11    8 1
    11   12    1 1
    12   13   12 1
    13   14   13 1
    14   15   14 1
    15   16   14 1
    16   17   16 ar
    17   18   17 1
    18   19   17 ar
    19   20   19 1
    20   21   19 ar
    21   22   21 1
    22   23   21 ar
    23   24   23 1
    24   25   16 ar
    25   26   25 1
    26   27    4 1
    27   28   27 1
    28   29   27 1
    29   30   29 2
    30   31   30 1
    31   32   30 1
    32   33   29 1
    33   34    6 1
    34   35   34 1
    35   36   34 1
    36   37   34 1
    37   14   27 1
    38   23   25 ar
@<TRIPOS>SUBSTRUCTURE
     1 RES1 1

@<TRIPOS>CRYSIN
   6.3843    9.7800   12.4520  87.5700  80.8300  73.5000   2 1

