# MOL2 file generated by ConQuest
# Please check atom types

@<TRIPOS>MOLECULE
GISDIX
    29    30     1
SMALL
NO_CHARGES
****
Generated from CSD

@<TRIPOS>ATOM
      1 C1         9.9126    0.8218    1.5737 C.ar      1 RES1    0.0000
      2 C2        10.6761    1.1448    0.4819 C.ar      1 RES1    0.0000
      3 H1        10.2789    1.2443   -0.3534 H         1 RES1    0.0000
      4 C3        12.0365    1.3213    0.6269 C.ar      1 RES1    0.0000
      5 H2        12.5599    1.5399   -0.1099 H         1 RES1    0.0000
      6 C4        12.6069    1.1742    1.8507 C.ar      1 RES1    0.0000
      7 H3        13.5208    1.3101    1.9488 H         1 RES1    0.0000
      8 C5        11.8483    0.8253    2.9501 C.ar      1 RES1    0.0000
      9 H4        12.2547    0.7104    3.7785 H         1 RES1    0.0000
     10 C6        10.4770    0.6467    2.8189 C.ar      1 RES1    0.0000
     11 H5         9.9530    0.4148    3.5521 H         1 RES1    0.0000
     12 C7         5.5088    0.6151    3.1400 C.ar      1 RES1    0.0000
     13 C8         5.8603    0.7623    4.4762 C.ar      1 RES1    0.0000
     14 H6         6.7558    0.8127    4.7248 H         1 RES1    0.0000
     15 C9         4.8688    0.8323    5.4287 C.ar      1 RES1    0.0000
     16 H7         5.0915    0.9297    6.3268 H         1 RES1    0.0000
     17 C10        3.5486    0.7602    5.0511 C.ar      1 RES1    0.0000
     18 C11        3.1951    0.5997    3.7355 C.ar      1 RES1    0.0000
     19 H8         2.2987    0.5458    3.4932 H         1 RES1    0.0000
     20 C12        4.1771    0.5191    2.7824 C.ar      1 RES1    0.0000
     21 H9         3.9461    0.3993    1.8899 H         1 RES1    0.0000
     22 N1         2.5065    0.8772    6.0629 N.pl3     1 RES1    0.0000
     23 N2         8.4913    0.6867    1.3824 N.pl3     1 RES1    0.0000
     24 N3         7.7494    0.6948    2.4303 N.2       1 RES1    0.0000
     25 N4         6.4565    0.5829    2.1284 N.pl3     1 RES1    0.0000
     26 H10        6.2104    0.4904    1.3088 H         1 RES1    0.0000
     27 O1         8.0083    0.6078    0.1934 O.2       1 RES1    0.0000
     28 O2         1.3434    1.0159    5.6809 O.2       1 RES1    0.0000
     29 O3         2.8308    0.8099    7.2424 O.2       1 RES1    0.0000
@<TRIPOS>BOND
     1    1    2 ar
     2    2    3 1
     3    4    2 ar
     4    5    4 1
     5    6    4 ar
     6    7    6 1
     7    8    6 ar
     8    9    8 1
     9   10    1 ar
    10   11   10 1
    11   12   13 ar
    12   13   14 1
    13   15   13 ar
    14   16   15 1
    15   17   15 ar
    16   18   17 ar
    17   19   18 1
    18   20   12 ar
    19   21   20 1
    20   22   17 1
    21   23    1 1
    22   24   23 2
    23   25   12 1
    24   26   25 1
    25   27   23 1
    26   28   22 2
    27   29   22 2
    28    8   10 ar
    29   18   20 ar
    30   24   25 1
@<TRIPOS>SUBSTRUCTURE
     1 RES1 1

@<TRIPOS>CRYSIN
  13.0730    7.0060   13.1160  90.0000  93.7400  90.0000  14 1

