# MOL2 file generated by ConQuest
# Please check atom types

@<TRIPOS>MOLECULE
GISJAV
    43    44     1
SMALL
NO_CHARGES
****
Generated from CSD

@<TRIPOS>ATOM
      1 O1         3.6361    5.1105   11.2474 O.2       1 RES1    0.0000
      2 O2         3.2901    5.4536    9.1639 O.2       1 RES1    0.0000
      3 O3         1.5685    9.4811    7.4742 O.2       1 RES1    0.0000
      4 O4         1.1515   11.1460    8.7810 O.2       1 RES1    0.0000
      5 O5         5.1971    5.8499   19.6789 O.3       1 RES1    0.0000
      6 O6         4.7323    8.3847   20.4623 O.3       1 RES1    0.0000
      7 O7         3.9021   10.2348   18.7497 O.3       1 RES1    0.0000
      8 N1         3.5367    7.1134   12.9402 N.pl3     1 RES1    0.0000
      9 H1         3.8856    6.3854   12.8141 H         1 RES1    0.0000
     10 N2         3.6413    7.7134   14.1746 N.2       1 RES1    0.0000
     11 N3         3.3148    5.8429   10.3147 N.pl3     1 RES1    0.0000
     12 N4         1.5647   10.0075    8.5783 N.pl3     1 RES1    0.0000
     13 C1         3.0278    7.7854   11.8929 C.ar      1 RES1    0.0000
     14 C2         2.9389    7.2263   10.5878 C.ar      1 RES1    0.0000
     15 C3         2.4786    7.9528    9.5102 C.ar      1 RES1    0.0000
     16 H2         2.4502    7.5732    8.6623 H         1 RES1    0.0000
     17 C4         2.0594    9.2519    9.7126 C.ar      1 RES1    0.0000
     18 C5         2.0721    9.8304   10.9848 C.ar      1 RES1    0.0000
     19 H3         1.7553   10.6957   11.1113 H         1 RES1    0.0000
     20 C6         2.5526    9.1114   12.0409 C.ar      1 RES1    0.0000
     21 H4         2.5690    9.5051   12.8835 H         1 RES1    0.0000
     22 C7         4.2383    6.9957   15.0420 C.2       1 RES1    0.0000
     23 H5         4.5948    6.1779   14.7785 H         1 RES1    0.0000
     24 C8         4.3841    7.4142   16.4425 C.ar      1 RES1    0.0000
     25 C9         4.7883    6.4443   17.3483 C.ar      1 RES1    0.0000
     26 H6         5.0192    5.5940   17.0499 H         1 RES1    0.0000
     27 C10        4.8473    6.7473   18.7056 C.ar      1 RES1    0.0000
     28 C11        4.5626    8.0411   19.1397 C.ar      1 RES1    0.0000
     29 C12        4.1689    9.0158   18.2129 C.ar      1 RES1    0.0000
     30 C13        4.0695    8.7003   16.8673 C.ar      1 RES1    0.0000
     31 H7         3.7960    9.3434   16.2534 H         1 RES1    0.0000
     32 C14        5.4392    4.5010   19.2592 C.3       1 RES1    0.0000
     33 H8         5.7366    3.9812   20.0095 H         1 RES1    0.0000
     34 H9         6.1139    4.4935   18.5765 H         1 RES1    0.0000
     35 H10        4.6277    4.1243   18.9109 H         1 RES1    0.0000
     36 C15        3.6032    8.0926   21.2888 C.3       1 RES1    0.0000
     37 H11        3.7907    8.3574   22.1920 H         1 RES1    0.0000
     38 H12        3.4231    7.1496   21.2631 H         1 RES1    0.0000
     39 H13        2.8373    8.5735   20.9658 H         1 RES1    0.0000
     40 C16        3.4904   11.2662   17.8539 C.3       1 RES1    0.0000
     41 H14        3.3581   12.0810   18.3439 H         1 RES1    0.0000
     42 H15        2.6684   11.0120   17.4279 H         1 RES1    0.0000
     43 H16        4.1681   11.3998   17.1872 H         1 RES1    0.0000
@<TRIPOS>BOND
     1    1   11 2
     2    2   11 2
     3    3   12 2
     4    4   12 2
     5    5   27 1
     6    6   28 1
     7    7   29 1
     8    8    9 1
     9   10    8 1
    10   11   14 1
    11   12   17 1
    12   13    8 1
    13   14   13 ar
    14   15   14 ar
    15   16   15 1
    16   17   15 ar
    17   18   17 ar
    18   19   18 1
    19   20   13 ar
    20   21   20 1
    21   22   10 2
    22   23   22 1
    23   24   22 1
    24   25   24 ar
    25   26   25 1
    26   27   25 ar
    27   28   27 ar
    28   29   28 ar
    29   30   24 ar
    30   31   30 1
    31   32    5 1
    32   33   32 1
    33   34   32 1
    34   35   32 1
    35   36    6 1
    36   37   36 1
    37   38   36 1
    38   39   36 1
    39   40    7 1
    40   41   40 1
    41   42   40 1
    42   43   40 1
    43   18   20 ar
    44   29   30 ar
@<TRIPOS>SUBSTRUCTURE
     1 RES1 1

@<TRIPOS>CRYSIN
   7.4724   14.3106   16.1549  90.0000  90.0000  90.0000  19 1

