# MOL2 file generated by ConQuest
# Please check atom types

@<TRIPOS>MOLECULE
GISTAE
    29    30     1
SMALL
NO_CHARGES
****
Generated from CSD

@<TRIPOS>ATOM
      1 C1         5.1047    3.9411   16.0336 C.ar      1 RES1    0.0000
      2 N1         4.0790    4.0783   15.0527 N.am      1 RES1    0.0000
      3 H1         3.8210    4.8903   14.8320 H         1 RES1    0.0000
      4 N2        -0.0140   -0.5511   10.6724 N.pl3     1 RES1    0.0000
      5 O1         3.6581    1.8614   14.6793 O.2       1 RES1    0.0000
      6 O2         2.6287    3.4898   13.4834 O.3       1 RES1    0.0000
      7 O3        -1.1444   -0.8671   11.0618 O.2       1 RES1    0.0000
      8 O4         0.5650   -1.1016    9.7459 O.2       1 RES1    0.0000
      9 C2         6.1699    4.8350   15.9762 C.ar      1 RES1    0.0000
     10 H2         6.1892    5.5122   15.3096 H         1 RES1    0.0000
     11 C3         7.2089    4.7312   16.9017 C.ar      1 RES1    0.0000
     12 H3         7.9361    5.3415   16.8670 H         1 RES1    0.0000
     13 C4         7.1837    3.7476   17.8639 C.ar      1 RES1    0.0000
     14 H4         7.8987    3.6716   18.4848 H         1 RES1    0.0000
     15 C5         6.1129    2.8668   17.9262 C.ar      1 RES1    0.0000
     16 H5         6.0941    2.1931   18.5962 H         1 RES1    0.0000
     17 C6         5.0644    2.9645   17.0107 C.ar      1 RES1    0.0000
     18 H6         4.3288    2.3648   17.0596 H         1 RES1    0.0000
     19 C7         3.4826    3.0360   14.4447 C.2       1 RES1    0.0000
     20 C8         1.9703    2.4859   12.7529 C.ar      1 RES1    0.0000
     21 C9         2.5920    1.9257   11.6495 C.ar      1 RES1    0.0000
     22 H7         3.4537    2.2190   11.3774 H         1 RES1    0.0000
     23 C10        1.9287    0.9244   10.9501 C.ar      1 RES1    0.0000
     24 H8         2.3310    0.5151   10.1938 H         1 RES1    0.0000
     25 C11        0.6714    0.5344   11.3776 C.ar      1 RES1    0.0000
     26 C12        0.0345    1.1209   12.4578 C.ar      1 RES1    0.0000
     27 H9        -0.8385    0.8469   12.7140 H         1 RES1    0.0000
     28 C13        0.7013    2.1207   13.1591 C.ar      1 RES1    0.0000
     29 H10        0.2911    2.5447   13.9033 H         1 RES1    0.0000
@<TRIPOS>BOND
     1    1    2 1
     2    2    3 1
     3    4    7 2
     4    5   19 2
     5    6   19 1
     6    8    4 2
     7    9    1 ar
     8   10    9 1
     9   11    9 ar
    10   12   11 1
    11   13   11 ar
    12   14   13 1
    13   15   13 ar
    14   16   15 1
    15   17    1 ar
    16   18   17 1
    17   19    2 1
    18   20    6 1
    19   21   20 ar
    20   22   21 1
    21   23   21 ar
    22   24   23 1
    23   25    4 1
    24   26   25 ar
    25   27   26 1
    26   28   20 ar
    27   29   28 1
    28   15   17 ar
    29   23   25 ar
    30   26   28 ar
@<TRIPOS>SUBSTRUCTURE
     1 RES1 1

@<TRIPOS>CRYSIN
   6.0170    5.0650   18.8960  90.0000  92.5380  90.0000   4 1

