# MOL2 file generated by ConQuest
# Please check atom types

@<TRIPOS>MOLECULE
GISWEK
    47    51     1
SMALL
NO_CHARGES
****
Generated from CSD

@<TRIPOS>ATOM
      1 O1         3.7915    5.5639    1.1791 O.3       1 RES1    0.0000
      2 N1         4.4838    2.9910    2.0903 N.2       1 RES1    0.0000
      3 N2         1.6594    4.6540    1.6605 N.pl3     1 RES1    0.0000
      4 C1         2.9694    4.9461    2.2049 C.3       1 RES1    0.0000
      5 C2         3.6219    3.6980    2.7149 C.2       1 RES1    0.0000
      6 C3         4.9464    3.4967    0.8496 C.ar      1 RES1    0.0000
      7 C4         4.5967    4.7524    0.4255 C.ar      1 RES1    0.0000
      8 C5         5.1269    5.3042   -0.7564 C.ar      1 RES1    0.0000
      9 C6         5.9833    4.5587   -1.5272 C.ar      1 RES1    0.0000
     10 C7         6.3298    3.2354   -1.1533 C.ar      1 RES1    0.0000
     11 C8         7.1982    2.4300   -1.9513 C.ar      1 RES1    0.0000
     12 C9         7.4680    1.1481   -1.5817 C.ar      1 RES1    0.0000
     13 C10        6.9001    0.5979   -0.4413 C.ar      1 RES1    0.0000
     14 C11        6.1008    1.3510    0.3596 C.ar      1 RES1    0.0000
     15 C12        5.7925    2.6821    0.0315 C.ar      1 RES1    0.0000
     16 C13        1.4035    3.6104    0.6805 C.3       1 RES1    0.0000
     17 O2        -2.1992    9.5709    2.0516 O.2       1 RES1    0.0000
     18 O3        -0.5990   10.1596    3.3553 O.2       1 RES1    0.0000
     19 N3        -1.1207    9.3511    2.6031 N.pl3     1 RES1    0.0000
     20 C14        0.8477    5.7545    1.7937 C.ar      1 RES1    0.0000
     21 C15        1.4161    6.6767    2.6748 C.ar      1 RES1    0.0000
     22 C16        0.7941    7.8664    2.9484 C.ar      1 RES1    0.0000
     23 C17       -0.4370    8.1077    2.3066 C.ar      1 RES1    0.0000
     24 C18       -1.0061    7.1839    1.4699 C.ar      1 RES1    0.0000
     25 C19       -0.3787    6.0066    1.1920 C.ar      1 RES1    0.0000
     26 C20        2.6822    6.0727    3.2665 C.3       1 RES1    0.0000
     27 C21        2.3115    5.4610    4.6318 C.3       1 RES1    0.0000
     28 C22        3.8345    7.0487    3.4355 C.3       1 RES1    0.0000
     29 H1         3.3009    3.3814    3.6676 H         1 RES1    0.0000
     30 H2         4.8726    6.1634   -1.0458 H         1 RES1    0.0000
     31 H3         6.3743    5.1028   -2.4069 H         1 RES1    0.0000
     32 H4         7.5774    2.9049   -2.6647 H         1 RES1    0.0000
     33 H5         8.1596    0.4304   -2.0487 H         1 RES1    0.0000
     34 H6         7.1488   -0.2459   -0.2149 H         1 RES1    0.0000
     35 H7         5.7262    0.9837    1.1031 H         1 RES1    0.0000
     36 H8         0.4495    3.2738    0.8166 H         1 RES1    0.0000
     37 H9         1.6018    4.0577   -0.2722 H         1 RES1    0.0000
     38 H10        1.9001    2.8588    1.0029 H         1 RES1    0.0000
     39 H11        1.2220    8.4842    3.5100 H         1 RES1    0.0000
     40 H12       -1.8175    7.4083    1.1605 H         1 RES1    0.0000
     41 H13       -0.7283    5.3488    0.6017 H         1 RES1    0.0000
     42 H14        1.9297    6.1634    5.2149 H         1 RES1    0.0000
     43 H15        1.6521    4.8723    4.5988 H         1 RES1    0.0000
     44 H16        4.6202    6.5784    3.7965 H         1 RES1    0.0000
     45 H17        4.0376    7.5774    2.5931 H         1 RES1    0.0000
     46 H18        3.1012    5.1182    5.0430 H         1 RES1    0.0000
     47 H19        3.6097    7.7465    4.0831 H         1 RES1    0.0000
@<TRIPOS>BOND
     1    1    4 1
     2    2    5 2
     3    3    4 1
     4    4    5 1
     5    5   29 1
     6    6    2 1
     7    7    1 1
     8    8    7 ar
     9    9    8 ar
    10   10    9 ar
    11   11   10 ar
    12   12   11 ar
    13   13   12 ar
    14   14   13 ar
    15   15    6 ar
    16   16    3 1
    17   17   19 2
    18   18   19 2
    19   19   23 1
    20   20    3 1
    21   21   20 ar
    22   22   21 ar
    23   23   22 ar
    24   24   23 ar
    25   25   20 ar
    26   26    4 1
    27   27   26 1
    28   28   26 1
    29   30    8 1
    30   31    9 1
    31   32   11 1
    32   33   12 1
    33   34   13 1
    34   35   14 1
    35   36   16 1
    36   37   16 1
    37   38   16 1
    38   39   22 1
    39   40   24 1
    40   41   25 1
    41   42   27 1
    42   43   27 1
    43   44   28 1
    44   45   28 1
    45   46   27 1
    46   47   28 1
    47    6    7 ar
    48   10   15 ar
    49   14   15 ar
    50   21   26 1
    51   24   25 ar
@<TRIPOS>SUBSTRUCTURE
     1 RES1 1

@<TRIPOS>CRYSIN
   8.4620   15.3700   14.3630  90.0000  94.0800  90.0000  14 1

