# MOL2 file generated by ConQuest
# Please check atom types

@<TRIPOS>MOLECULE
GISYEN
    81    85     1
SMALL
USER_CHARGES
****
Generated from CSD

@<TRIPOS>ATOM
      1 O1        -0.4197   -3.1430    3.5822 O.2       1 RES1    0.0000
      2 O2        -0.1735   -3.8839    1.5786 O.2       1 RES1    0.0000
      3 O3         1.3883   -1.0242   -1.9110 O.2       1 RES1    0.0000
      4 O4         1.0222    1.0826   -1.7370 O.2       1 RES1    0.0000
      5 O5        -0.9724    3.7219    5.5298 O.3       1 RES1    0.0000
      6 O6         1.0575    3.6268    4.5771 O.2       1 RES1    0.0000
      7 O7         0.4196    5.6572    2.8950 O.3       1 RES1    0.0000
      8 O8         0.7467    7.1020    4.5713 O.2       1 RES1    0.0000
      9 O9         0.6472    4.1207    8.2641 O.3       1 RES1    0.0000
     10 O10       -0.0402    6.1358    7.5258 O.2       1 RES1    0.0000
     11 O11        2.6810    6.9066    7.8314 O.3       1 RES1    0.0000
     12 O12        3.1419    5.2602    6.3975 O.2       1 RES1    0.0000
     13 N1         0.3854    1.5901    9.1379 N.2       1 RES1    0.0000
     14 N2         1.1053    1.9408   10.0301 N.1       1 RES1    1.0000
     15 N3         1.8621    2.1527   10.8410 N.2       1 RES1   -1.0000
     16 N4        -0.7580    0.5931    4.7782 N.2       1 RES1    0.0000
     17 N5        -0.6284   -0.5731    4.0338 N.pl3     1 RES1    0.0000
     18 H1        -0.8009   -1.3559    4.3961 H         1 RES1    0.0000
     19 N6        -0.2156   -2.9614    2.3804 N.pl3     1 RES1    0.0000
     20 N7         1.0087   -0.0463   -1.2760 N.pl3     1 RES1    0.0000
     21 C1        -1.5770    1.6613    6.7121 C.3       1 RES1    0.0000
     22 C2        -0.5867    2.7952    6.5724 C.3       1 RES1    0.0000
     23 H2         0.3272    2.4313    6.3880 H         1 RES1    0.0000
     24 C3        -0.6081    3.4986    7.9311 C.3       1 RES1    0.0000
     25 H3        -1.3467    4.1723    7.9609 H         1 RES1    0.0000
     26 C4        -0.8698    2.3797    8.9427 C.3       1 RES1    0.0000
     27 H4        -1.2521    2.7171    9.8023 H         1 RES1    0.0000
     28 C5        -1.8063    1.4563    8.2145 C.3       1 RES1    0.0000
     29 H5        -1.9002    0.5200    8.5521 H         1 RES1    0.0000
     30 C6        -2.9053    2.0116    7.3711 C.3       1 RES1    0.0000
     31 H6        -3.1262    2.9708    7.4768 H         1 RES1    0.0000
     32 H7        -3.6803    1.4251    7.1812 H         1 RES1    0.0000
     33 C7        -1.4826    0.5145    5.8090 C.2       1 RES1    0.0000
     34 H8        -1.9633   -0.2840    5.9975 H         1 RES1    0.0000
     35 C8        -0.2364   -0.4873    2.7540 C.ar      1 RES1    0.0000
     36 C9        -0.0199   -1.6043    1.9065 C.ar      1 RES1    0.0000
     37 C10        0.3743   -1.4739    0.5912 C.ar      1 RES1    0.0000
     38 H9         0.5199   -2.2397    0.0488 H         1 RES1    0.0000
     39 C11        0.5525   -0.2080    0.0854 C.ar      1 RES1    0.0000
     40 C12        0.3203    0.9282    0.8583 C.ar      1 RES1    0.0000
     41 H10        0.4241    1.7942    0.4800 H         1 RES1    0.0000
     42 C13       -0.0548    0.7881    2.1574 C.ar      1 RES1    0.0000
     43 H11       -0.1997    1.5671    2.6821 H         1 RES1    0.0000
     44 C14       -0.0501    4.0550    4.6266 C.2       1 RES1    0.0000
     45 C15       -0.6436    5.0423    3.6286 C.3       1 RES1    0.0000
     46 H12       -1.1526    5.7465    4.1249 H         1 RES1    0.0000
     47 C16        1.0307    6.7101    3.4794 C.2       1 RES1    0.0000
     48 C17        2.0710    7.2763    2.5709 C.3       1 RES1    0.0000
     49 H13        2.3170    8.1743    2.8733 H         1 RES1    0.0000
     50 H14        1.7161    7.3242    1.6584 H         1 RES1    0.0000
     51 H15        2.8634    6.6995    2.5818 H         1 RES1    0.0000
     52 C18       -1.5693    4.3649    2.6292 C.ar      1 RES1    0.0000
     53 C19       -2.8691    4.0360    2.9967 C.ar      1 RES1    0.0000
     54 H16       -3.1707    4.2131    3.8794 H         1 RES1    0.0000
     55 C20       -3.7176    3.4571    2.0855 C.ar      1 RES1    0.0000
     56 H17       -4.6079    3.2477    2.3418 H         1 RES1    0.0000
     57 C21       -3.2918    3.1733    0.8000 C.ar      1 RES1    0.0000
     58 H18       -3.8836    2.7632    0.1803 H         1 RES1    0.0000
     59 C22       -1.9946    3.4931    0.4231 C.ar      1 RES1    0.0000
     60 H19       -1.6945    3.3063   -0.4583 H         1 RES1    0.0000
     61 C23       -1.1417    4.0857    1.3370 C.ar      1 RES1    0.0000
     62 H20       -0.2538    4.3036    1.0780 H         1 RES1    0.0000
     63 C24        0.7696    5.4446    8.0626 C.2       1 RES1    0.0000
     64 C25        2.0745    5.9436    8.6837 C.3       1 RES1    0.0000
     65 H21        2.6983    5.1750    8.8288 H         1 RES1    0.0000
     66 C26        3.2146    6.4226    6.6782 C.2       1 RES1    0.0000
     67 C27        3.8894    7.4733    5.8876 C.3       1 RES1    0.0000
     68 H22        4.8602    7.3845    5.9880 H         1 RES1    0.0000
     69 H23        3.6066    8.3553    6.2063 H         1 RES1    0.0000
     70 H24        3.6493    7.3757    4.9425 H         1 RES1    0.0000
     71 C28        1.7612    6.6086   10.0030 C.ar      1 RES1    0.0000
     72 C29        1.6746    7.9929   10.1088 C.ar      1 RES1    0.0000
     73 H25        1.8392    8.5416    9.3508 H         1 RES1    0.0000
     74 C30        1.3439    8.5675   11.3305 C.ar      1 RES1    0.0000
     75 H26        1.2880    9.5124   11.4024 H         1 RES1    0.0000
     76 C31        1.0976    7.7927   12.4302 C.ar      1 RES1    0.0000
     77 H27        0.8692    8.1991   13.2574 H         1 RES1    0.0000
     78 C32        1.1830    6.4191   12.3326 C.ar      1 RES1    0.0000
     79 H28        1.0149    5.8778   13.0946 H         1 RES1    0.0000
     80 C33        1.5120    5.8317   11.1258 C.ar      1 RES1    0.0000
     81 H29        1.5676    4.8857   11.0648 H         1 RES1    0.0000
@<TRIPOS>BOND
     1    1   19 2
     2    2   19 2
     3    3   20 2
     4    4   20 2
     5    5   22 1
     6    6   44 2
     7    7   45 1
     8    8   47 2
     9    9   24 1
    10   10   63 2
    11   11   64 1
    12   12   66 2
    13   13   14 2
    14   14   15 2
    15   16   17 1
    16   17   18 1
    17   19   36 1
    18   20   39 1
    19   21   22 1
    20   22   23 1
    21   24   22 1
    22   25   24 1
    23   26   13 1
    24   27   26 1
    25   28   21 1
    26   29   28 1
    27   30   21 1
    28   31   30 1
    29   32   30 1
    30   33   16 2
    31   34   33 1
    32   35   17 1
    33   36   35 ar
    34   37   36 ar
    35   38   37 1
    36   39   37 ar
    37   40   39 ar
    38   41   40 1
    39   42   35 ar
    40   43   42 1
    41   44    5 1
    42   45   44 1
    43   46   45 1
    44   47    7 1
    45   48   47 1
    46   49   48 1
    47   50   48 1
    48   51   48 1
    49   52   45 1
    50   53   52 ar
    51   54   53 1
    52   55   53 ar
    53   56   55 1
    54   57   55 ar
    55   58   57 1
    56   59   57 ar
    57   60   59 1
    58   61   52 ar
    59   62   61 1
    60   63    9 1
    61   64   63 1
    62   65   64 1
    63   66   11 1
    64   67   66 1
    65   68   67 1
    66   69   67 1
    67   70   67 1
    68   71   64 1
    69   72   71 ar
    70   73   72 1
    71   74   72 ar
    72   75   74 1
    73   76   74 ar
    74   77   76 1
    75   78   76 ar
    76   79   78 1
    77   80   71 ar
    78   81   80 1
    79   21   33 1
    80   24   26 1
    81   26   28 1
    82   28   30 1
    83   40   42 ar
    84   59   61 ar
    85   78   80 ar
@<TRIPOS>SUBSTRUCTURE
     1 RES1 1

@<TRIPOS>CRYSIN
   6.8522   17.7470   13.7290  90.0000  99.0060  90.0000   4 1

