# MOL2 file generated by ConQuest
# Please check atom types

@<TRIPOS>MOLECULE
GISYOY
    88    91     1
SMALL
NO_CHARGES
****
Generated from CSD

@<TRIPOS>ATOM
      1 O1         4.3959   11.3244    2.3448 O.3       1 RES1    0.0000
      2 C1         5.7583   11.7290    2.5911 C.3       1 RES1    0.0000
      3 C2         6.4481   10.6658    3.4201 C.3       1 RES1    0.0000
      4 H1         7.3649   10.9327    3.5883 H         1 RES1    0.0000
      5 H2         6.4635    9.8298    2.9275 H         1 RES1    0.0000
      6 C3         5.7304   10.4612    4.7397 C.3       1 RES1    0.0000
      7 H3         5.9063    9.5619    5.0601 H         1 RES1    0.0000
      8 H4         6.0863   11.0843    5.3935 H         1 RES1    0.0000
      9 C4         4.2421   10.6613    4.6326 C.2       1 RES1    0.0000
     10 C5         3.4446   10.4391    5.8951 C.3       1 RES1    0.0000
     11 N1         1.9933   10.6467    5.6328 N.3       1 RES1    0.0000
     12 O2         1.2401   10.5920    6.6580 O.2       1 RES1    0.0000
     13 C6         1.3565   10.4338    4.2941 C.3       1 RES1    0.0000
     14 C7         2.2284   11.0865    3.2499 C.2       1 RES1    0.0000
     15 C8         3.6701   11.0146    3.4812 C.2       1 RES1    0.0000
     16 C9         3.6418    9.0201    6.4517 C.3       1 RES1    0.0000
     17 H5         3.5432    8.3802    5.7419 H         1 RES1    0.0000
     18 H6         2.9829    8.8490    7.1295 H         1 RES1    0.0000
     19 H7         4.5197    8.9435    6.8322 H         1 RES1    0.0000
     20 C10        3.8421   11.4576    6.9694 C.3       1 RES1    0.0000
     21 H8         3.6793   12.3468    6.6440 H         1 RES1    0.0000
     22 H9         4.7748   11.3581    7.1756 H         1 RES1    0.0000
     23 H10        3.3209   11.3069    7.7613 H         1 RES1    0.0000
     24 C11        1.2567    8.9264    4.0148 C.3       1 RES1    0.0000
     25 H11        0.7919    8.4964    4.7367 H         1 RES1    0.0000
     26 H12        2.1394    8.5555    3.9377 H         1 RES1    0.0000
     27 H13        0.7778    8.7840    3.1948 H         1 RES1    0.0000
     28 C12       -0.0502   11.0343    4.3552 C.3       1 RES1    0.0000
     29 H14        0.0110   11.9785    4.5164 H         1 RES1    0.0000
     30 H15       -0.5446   10.6195    5.0671 H         1 RES1    0.0000
     31 H16       -0.5008   10.8795    3.5222 H         1 RES1    0.0000
     32 C13        1.7434   11.6043    2.1346 C.2       1 RES1    0.0000
     33 H17        2.3209   11.9293    1.4828 H         1 RES1    0.0000
     34 H18        0.8232   11.6417    2.0024 H         1 RES1    0.0000
     35 N2         5.6921   13.1251    0.5537 N.3       1 RES1    0.0000
     36 O3         5.8600   13.2409   -0.7078 O.2       1 RES1    0.0000
     37 C14        5.2975   14.4030    1.2485 C.3       1 RES1    0.0000
     38 C15        4.8055   14.0983    2.7002 C.3       1 RES1    0.0000
     39 H19        3.9172   13.6900    2.6362 H         1 RES1    0.0000
     40 C16        5.7332   13.0844    3.3050 C.2       1 RES1    0.0000
     41 O4         6.4821   13.3264    4.2120 O.2       1 RES1    0.0000
     42 C17        6.3786   11.9608    1.1964 C.3       1 RES1    0.0000
     43 C18        6.4994   15.3572    1.2465 C.3       1 RES1    0.0000
     44 H20        6.8625   15.4133    0.3594 H         1 RES1    0.0000
     45 H21        7.1724   15.0253    1.8462 H         1 RES1    0.0000
     46 H22        6.2162   16.2287    1.5318 H         1 RES1    0.0000
     47 C19        4.1191   14.9749    0.4515 C.3       1 RES1    0.0000
     48 H23        4.4196   15.2341   -0.4225 H         1 RES1    0.0000
     49 H24        3.7654   15.7422    0.9081 H         1 RES1    0.0000
     50 H25        3.4352   14.3064    0.3694 H         1 RES1    0.0000
     51 C20        7.8849   12.2572    1.3006 C.3       1 RES1    0.0000
     52 H26        8.2116   12.5556    0.4485 H         1 RES1    0.0000
     53 H27        8.3508   11.4586    1.5599 H         1 RES1    0.0000
     54 H28        8.0316   12.9416    1.9573 H         1 RES1    0.0000
     55 C21        6.1520   10.7568    0.2653 C.3       1 RES1    0.0000
     56 H29        6.5620   10.9288   -0.5857 H         1 RES1    0.0000
     57 H30        5.2099   10.6176    0.1452 H         1 RES1    0.0000
     58 H31        6.5433    9.9716    0.6558 H         1 RES1    0.0000
     59 N3         2.9788   16.0014    6.9784 N.3       1 RES1    0.0000
     60 O5         3.1619   16.7268    8.0306 O.2       1 RES1    0.0000
     61 C22        4.0216   16.1560    5.9221 C.3       1 RES1    0.0000
     62 C23        3.8009   15.1173    4.7897 C.3       1 RES1    0.0000
     63 H32        4.0408   14.2395    5.1532 H         1 RES1    0.0000
     64 C24        2.3325   15.0675    4.4363 C.2       1 RES1    0.0000
     65 O6         1.9146   15.3593    3.3440 O.2       1 RES1    0.0000
     66 C25        1.4555   14.6336    5.5587 C.3       1 RES1    0.0000
     67 H33        1.6871   13.7235    5.8050 H         1 RES1    0.0000
     68 H34        0.5337   14.6314    5.2553 H         1 RES1    0.0000
     69 C26        1.5656   15.5232    6.7971 C.3       1 RES1    0.0000
     70 C27        3.9516   17.5941    5.3845 C.3       1 RES1    0.0000
     71 H35        3.9454   18.2100    6.1203 H         1 RES1    0.0000
     72 H36        3.1488   17.7038    4.8688 H         1 RES1    0.0000
     73 H37        4.7153   17.7669    4.8298 H         1 RES1    0.0000
     74 C28        5.3714   15.9047    6.6079 C.3       1 RES1    0.0000
     75 H38        5.5229   16.5812    7.2727 H         1 RES1    0.0000
     76 H39        6.0738   15.9352    5.9541 H         1 RES1    0.0000
     77 H40        5.3617   15.0411    7.0264 H         1 RES1    0.0000
     78 C29        0.6568   16.7518    6.6660 C.3       1 RES1    0.0000
     79 H41        0.8373   17.3611    7.3849 H         1 RES1    0.0000
     80 H42       -0.2614   16.4749    6.7040 H         1 RES1    0.0000
     81 H43        0.8248   17.1859    5.8270 H         1 RES1    0.0000
     82 C30        1.1894   14.7317    8.0557 C.3       1 RES1    0.0000
     83 H44        1.2536   15.3030    8.8246 H         1 RES1    0.0000
     84 H45        1.7888   13.9894    8.1578 H         1 RES1    0.0000
     85 H46        0.2895   14.4089    7.9726 H         1 RES1    0.0000
     86 C31        4.6837   15.3528    3.5663 C.3       1 RES1    0.0000
     87 H47        5.5667   15.6260    3.8576 H         1 RES1    0.0000
     88 H48        4.3084   16.0731    3.0356 H         1 RES1    0.0000
@<TRIPOS>BOND
     1    1    2 1
     2    2    3 1
     3    3    4 1
     4    5    3 1
     5    6    3 1
     6    7    6 1
     7    8    6 1
     8    9    6 1
     9   10    9 1
    10   11   10 1
    11   12   11 1
    12   13   11 1
    13   14   13 1
    14   15    1 1
    15   16   10 1
    16   17   16 1
    17   18   16 1
    18   19   16 1
    19   20   10 1
    20   21   20 1
    21   22   20 1
    22   23   20 1
    23   24   13 1
    24   25   24 1
    25   26   24 1
    26   27   24 1
    27   28   13 1
    28   29   28 1
    29   30   28 1
    30   31   28 1
    31   32   14 2
    32   33   32 1
    33   34   32 1
    34   35   36 1
    35   37   35 1
    36   38   37 1
    37   39   38 1
    38   40    2 1
    39   41   40 2
    40   42    2 1
    41   43   37 1
    42   44   43 1
    43   45   43 1
    44   46   43 1
    45   47   37 1
    46   48   47 1
    47   49   47 1
    48   50   47 1
    49   51   42 1
    50   52   51 1
    51   53   51 1
    52   54   51 1
    53   55   42 1
    54   56   55 1
    55   57   55 1
    56   58   55 1
    57   59   60 1
    58   61   59 1
    59   62   61 1
    60   63   62 1
    61   64   62 1
    62   65   64 2
    63   66   64 1
    64   67   66 1
    65   68   66 1
    66   69   59 1
    67   70   61 1
    68   71   70 1
    69   72   70 1
    70   73   70 1
    71   74   61 1
    72   75   74 1
    73   76   74 1
    74   77   74 1
    75   78   69 1
    76   79   78 1
    77   80   78 1
    78   81   78 1
    79   82   69 1
    80   83   82 1
    81   84   82 1
    82   85   82 1
    83   86   38 1
    84   87   86 1
    85   88   86 1
    86    9   15 2
    87   14   15 1
    88   35   42 1
    89   38   40 1
    90   62   86 1
    91   66   69 1
@<TRIPOS>SUBSTRUCTURE
     1 RES1 1

@<TRIPOS>CRYSIN
  15.6500   19.6950   10.0120  90.0000  90.0000  90.0000  33 1

