# MOL2 file generated by ConQuest
# Please check atom types

@<TRIPOS>MOLECULE
GITGIA
    29    30     1
SMALL
NO_CHARGES
****
Generated from CSD

@<TRIPOS>ATOM
      1 O1         8.6628    1.6529    0.7133 O.3       1 RES1    0.0000
      2 H1         8.0226    1.7415    0.2094 H         1 RES1    0.0000
      3 O2        10.5664    1.6376    2.5041 O.3       1 RES1    0.0000
      4 O3         4.4346    2.3725   -3.0883 O.3       1 RES1    0.0000
      5 N1         6.8066    2.9455   -0.6060 N.2       1 RES1    0.0000
      6 N2         5.4545    1.9715   -2.1897 N.2       1 RES1    0.0000
      7 C1         8.8793    2.8091    1.3715 C.ar      1 RES1    0.0000
      8 C2         9.8808    2.8244    2.3426 C.ar      1 RES1    0.0000
      9 C3        10.1345    3.9735    3.0622 C.ar      1 RES1    0.0000
     10 H2        10.8065    3.9827    3.7044 H         1 RES1    0.0000
     11 C4         9.3778    5.1246    2.8252 C.ar      1 RES1    0.0000
     12 H3         9.5381    5.8951    3.3209 H         1 RES1    0.0000
     13 C5         8.3964    5.1206    1.8585 C.ar      1 RES1    0.0000
     14 H4         7.9024    5.8931    1.7023 H         1 RES1    0.0000
     15 C6         8.1338    3.9704    1.1099 C.ar      1 RES1    0.0000
     16 C7        11.5543    1.5796    3.5341 C.3       1 RES1    0.0000
     17 H5        12.2508    2.2127    3.3465 H         1 RES1    0.0000
     18 H6        11.9259    0.6952    3.5709 H         1 RES1    0.0000
     19 H7        11.1470    1.7913    4.3785 H         1 RES1    0.0000
     20 C8         7.1146    3.9918    0.1040 C.2       1 RES1    0.0000
     21 H8         6.6539    4.7857   -0.0474 H         1 RES1    0.0000
     22 C9         5.8038    3.0748   -1.5693 C.2       1 RES1    0.0000
     23 C10        5.0428    4.1821   -2.0094 C.2       1 RES1    0.0000
     24 H9         5.1073    5.0595   -1.7100 H         1 RES1    0.0000
     25 C11        4.2105    3.7078   -2.9437 C.2       1 RES1    0.0000
     26 C12        3.1734    4.2697   -3.8316 C.3       1 RES1    0.0000
     27 H10        3.0532    3.6926   -4.5889 H         1 RES1    0.0000
     28 H11        3.4449    5.1399   -4.1319 H         1 RES1    0.0000
     29 H12        2.3456    4.3419   -3.3504 H         1 RES1    0.0000
@<TRIPOS>BOND
     1    1    2 1
     2    3    8 1
     3    4    6 1
     4    5   20 2
     5    6   22 2
     6    7    1 1
     7    8    7 ar
     8    9    8 ar
     9   10    9 1
    10   11    9 ar
    11   12   11 1
    12   13   11 ar
    13   14   13 1
    14   15    7 ar
    15   16    3 1
    16   17   16 1
    17   18   16 1
    18   19   16 1
    19   20   15 1
    20   21   20 1
    21   22    5 1
    22   23   22 1
    23   24   23 1
    24   25    4 1
    25   26   25 1
    26   27   26 1
    27   28   26 1
    28   29   26 1
    29   13   15 ar
    30   23   25 2
@<TRIPOS>SUBSTRUCTURE
     1 RES1 1

@<TRIPOS>CRYSIN
  22.2540   10.1780    4.8360  90.0000  90.0000  90.0000  33 1

