# MOL2 file generated by ConQuest
# Please check atom types

@<TRIPOS>MOLECULE
GITJID
    66    68     3
SMALL
NO_CHARGES
****
Generated from CSD

@<TRIPOS>ATOM
      1 O1        -3.6982    7.8725    7.1317 O.2       1 RES1    0.0000
      2 O2        -0.2822    9.9659    5.8094 Du        3 SUP3    0.0000
      3 O3        -2.1229    9.0958    6.3813 O.3       1 RES1    0.0000
      4 O4         5.6871    7.1277    8.8894 O.2       1 RES1    0.0000
      5 O5         6.0143    8.0014    6.9552 O.2       1 RES1    0.0000
      6 O6        -3.0983    1.9281   10.3324 O.2       1 RES1    0.0000
      7 O7        -0.9703    1.5917   10.1923 O.2       1 RES1    0.0000
      8 N1        -2.5282    7.9497    7.0942 N.pl3     1 RES1    0.0000
      9 N2        -0.7275    9.1045    6.3565 N.2       1 RES1    0.0000
     10 N3         5.2850    7.5995    7.8413 N.pl3     1 RES1    0.0000
     11 N4        -1.9631    2.2790   10.0343 N.pl3     1 RES1    0.0000
     12 C1        -1.4390    7.3192    7.4870 C.2       1 RES1    0.0000
     13 C2        -0.3068    8.0546    7.0335 C.2       1 RES1    0.0000
     14 C3         1.1350    7.8856    7.2466 C.ar      1 RES1    0.0000
     15 C4         1.6321    7.5128    8.4938 C.ar      1 RES1    0.0000
     16 C5         2.9933    7.4073    8.6858 C.ar      1 RES1    0.0000
     17 C6         3.8370    7.6898    7.6373 C.ar      1 RES1    0.0000
     18 C7         3.3726    8.0670    6.3949 C.ar      1 RES1    0.0000
     19 C8         2.0136    8.1616    6.2044 C.ar      1 RES1    0.0000
     20 C9        -1.5454    6.0413    8.2010 C.ar      1 RES1    0.0000
     21 C10       -2.6994    5.7413    8.9184 C.ar      1 RES1    0.0000
     22 C11       -2.8356    4.5100    9.5289 C.ar      1 RES1    0.0000
     23 C12       -1.8058    3.6079    9.4310 C.ar      1 RES1    0.0000
     24 C13       -0.6378    3.8889    8.7587 C.ar      1 RES1    0.0000
     25 C14       -0.5232    5.1071    8.1199 C.ar      1 RES1    0.0000
     26 O8         4.9831    8.0240    3.6091 O.2       2 RES2    0.0000
     27 O9         8.4608   10.0941    4.9277 Du        3 SUP3    0.0000
     28 O10        6.5728    9.2232    4.3545 O.3       2 RES2    0.0000
     29 O11       14.7026    7.8806    3.7964 O.2       2 RES2    0.0000
     30 O12       14.3601    7.0840    1.8466 O.2       2 RES2    0.0000
     31 O13        5.5072    2.0388    0.4856 O.2       2 RES2    0.0000
     32 O14        7.6412    1.7235    0.5160 O.2       2 RES2    0.0000
     33 N5         6.1617    8.0801    3.6601 N.pl3     2 RES2    0.0000
     34 N6         7.9750    9.2290    4.3599 N.2       2 RES2    0.0000
     35 N7        13.9596    7.5478    2.8968 N.pl3     2 RES2    0.0000
     36 N8         6.6463    2.4028    0.7286 N.pl3     2 RES2    0.0000
     37 C15        7.2451    7.4429    3.2574 C.2       2 RES2    0.0000
     38 C16        8.3829    8.1791    3.6842 C.2       2 RES2    0.0000
     39 C17        9.8260    7.9898    3.4683 C.ar      2 RES2    0.0000
     40 C18       10.3165    7.6111    2.2229 C.ar      2 RES2    0.0000
     41 C19       11.6698    7.4582    2.0277 C.ar      2 RES2    0.0000
     42 C20       12.5182    7.7043    3.0897 C.ar      2 RES2    0.0000
     43 C21       12.0606    8.0903    4.3291 C.ar      2 RES2    0.0000
     44 C22       10.7113    8.2301    4.5177 C.ar      2 RES2    0.0000
     45 C23        7.1188    6.1629    2.5580 C.ar      2 RES2    0.0000
     46 C24        5.9321    5.8425    1.8998 C.ar      2 RES2    0.0000
     47 C25        5.7795    4.6149    1.2995 C.ar      2 RES2    0.0000
     48 C26        6.8284    3.7273    1.3296 C.ar      2 RES2    0.0000
     49 C27        8.0229    4.0215    1.9444 C.ar      2 RES2    0.0000
     50 C28        8.1540    5.2396    2.5800 C.ar      2 RES2    0.0000
     51 H1         1.0350    7.3315    9.2105 H         1 RES1    0.0000
     52 H2         3.9769    8.2563    5.6869 H         1 RES1    0.0000
     53 H3         1.6726    8.4165    5.3554 H         1 RES1    0.0000
     54 H4        -3.3949    6.3850    8.9888 H         1 RES1    0.0000
     55 H5        -3.6264    4.2916   10.0070 H         1 RES1    0.0000
     56 H6         0.0729    3.2591    8.7348 H         1 RES1    0.0000
     57 H7         0.2601    5.3066    7.6220 H         1 RES1    0.0000
     58 H8         3.3431    7.1430    9.5291 H         1 RES1    0.0000
     59 H9         9.7146    7.4582    1.5046 H         2 RES2    0.0000
     60 H10       12.0117    7.1903    1.1839 H         2 RES2    0.0000
     61 H11       12.6685    8.2563    5.0390 H         2 RES2    0.0000
     62 H12       10.3781    8.4922    5.3683 H         2 RES2    0.0000
     63 H13        5.2259    6.4760    1.8662 H         2 RES2    0.0000
     64 H14        4.9625    4.3848    0.8718 H         2 RES2    0.0000
     65 H15        8.7418    3.4004    1.9308 H         2 RES2    0.0000
     66 H16        8.9602    5.4471    3.0372 H         2 RES2    0.0000
@<TRIPOS>BOND
     1    1    8 2
     2    3    8 1
     3    4   10 2
     4    5   10 2
     5    6   11 2
     6    7   11 2
     7    8   12 2
     8    9    3 1
     9   10   17 1
    10   11   23 1
    11   12   13 1
    12   13    9 2
    13   14   13 1
    14   15   14 ar
    15   16   15 ar
    16   17   16 ar
    17   18   17 ar
    18   19   14 ar
    19   20   12 1
    20   21   20 ar
    21   22   21 ar
    22   23   22 ar
    23   24   23 ar
    24   25   20 ar
    25   26   33 2
    26   28   33 1
    27   29   35 2
    28   30   35 2
    29   31   36 2
    30   32   36 2
    31   33   37 2
    32   34   28 1
    33   35   42 1
    34   36   48 1
    35   37   38 1
    36   38   34 2
    37   39   38 1
    38   40   39 ar
    39   41   40 ar
    40   42   41 ar
    41   43   42 ar
    42   44   39 ar
    43   45   37 1
    44   46   45 ar
    45   47   46 ar
    46   48   47 ar
    47   49   48 ar
    48   50   45 ar
    49   51   15 1
    50   52   18 1
    51   53   19 1
    52   54   21 1
    53   55   22 1
    54   56   24 1
    55   57   25 1
    56   58   16 1
    57   59   40 1
    58   60   41 1
    59   61   43 1
    60   62   44 1
    61   63   46 1
    62   64   47 1
    63   65   49 1
    64   66   50 1
    65   18   19 ar
    66   24   25 ar
    67   43   44 ar
    68   49   50 ar
@<TRIPOS>SUBSTRUCTURE
     1 RES1 1
     2 RES2 26
     3 SUP3 2

@<TRIPOS>CRYSIN
  17.3977    7.2813   21.5341  90.0000  91.6670  90.0000  14 1

