# MOL2 file generated by ConQuest
# Please check atom types

@<TRIPOS>MOLECULE
GIVHOJ
    28    29     1
SMALL
NO_CHARGES
****
Generated from CSD

@<TRIPOS>ATOM
      1 C1         0.5649    5.5022    8.2296 C.2       1 RES1    0.0000
      2 C2        -0.7216    5.2292    7.4970 C.3       1 RES1    0.0000
      3 C3        -1.6977    6.3974    7.4647 C.3       1 RES1    0.0000
      4 C4        -0.9463    7.6894    7.1914 C.3       1 RES1    0.0000
      5 C5         0.0972    7.9618    8.2674 C.3       1 RES1    0.0000
      6 C6        -0.5634    8.5911    9.4922 C.ar      1 RES1    0.0000
      7 C7        -1.0260    9.9004    9.4060 C.ar      1 RES1    0.0000
      8 C8        -1.6052   10.5097   10.5076 C.ar      1 RES1    0.0000
      9 C9        -1.7352    9.8144   11.6953 C.ar      1 RES1    0.0000
     10 C10       -1.2682    8.5225   11.7961 C.ar      1 RES1    0.0000
     11 C11       -0.6866    7.9062   10.6869 C.ar      1 RES1    0.0000
     12 N1         0.8346    6.7513    8.6124 N.am      1 RES1    0.0000
     13 N2        -0.2995    7.5504    5.8207 N.pl3     1 RES1    0.0000
     14 O1         1.3478    4.5699    8.4681 O.2       1 RES1    0.0000
     15 O2         0.9151    7.4534    5.7391 O.2       1 RES1    0.0000
     16 O3        -1.0623    7.5145    4.8675 O.2       1 RES1    0.0000
     17 H1         1.5711    6.8605    9.0433 H         1 RES1    0.0000
     18 H2        -1.0995    4.4805    7.8988 H         1 RES1    0.0000
     19 H3        -0.4707    4.9800    6.5573 H         1 RES1    0.0000
     20 H4        -2.1388    6.4995    8.3303 H         1 RES1    0.0000
     21 H5        -2.4281    6.2562    6.8200 H         1 RES1    0.0000
     22 H6        -1.5377    8.4487    7.0901 H         1 RES1    0.0000
     23 H7         0.7459    8.5872    7.9241 H         1 RES1    0.0000
     24 H8        -0.9454   10.3827    8.5648 H         1 RES1    0.0000
     25 H9        -1.9164   11.3759   10.4504 H         1 RES1    0.0000
     26 H10       -2.1452   10.2581   12.4204 H         1 RES1    0.0000
     27 H11       -1.3075    8.0702   12.6080 H         1 RES1    0.0000
     28 H12       -0.3534    7.0002   10.7506 H         1 RES1    0.0000
@<TRIPOS>BOND
     1    1    2 1
     2    2    3 1
     3    3    4 1
     4    4    5 1
     5    5    6 1
     6    6    7 ar
     7    7    8 ar
     8    8    9 ar
     9    9   10 ar
    10   10   11 ar
    11   11    6 ar
    12   12    1 1
    13   13    4 1
    14   14    1 2
    15   15   13 2
    16   16   13 2
    17   17   12 1
    18   18    2 1
    19   19    2 1
    20   20    3 1
    21   21    3 1
    22   22    4 1
    23   23    5 1
    24   24    7 1
    25   25    8 1
    26   26    9 1
    27   27   10 1
    28   28   11 1
    29    5   12 1
@<TRIPOS>SUBSTRUCTURE
     1 RES1 1

@<TRIPOS>CRYSIN
   9.4397   11.6437    9.7040  90.0000 104.8250  90.0000 231 1

