# MOL2 file generated by ConQuest
# Please check atom types

@<TRIPOS>MOLECULE
GIVXUE
    15    15     1
SMALL
NO_CHARGES
****
Generated from CSD

@<TRIPOS>ATOM
      1 N1        10.2354    1.5200    1.8151 N.ar      1 RES1    0.0000
      2 C1         9.1835    1.5200    2.6482 C.ar      1 RES1    0.0000
      3 N2         7.9657    1.5200    2.0968 N.3       1 RES1    0.0000
      4 C2         9.3171    1.5200    4.0424 C.ar      1 RES1    0.0000
      5 C3        10.5579    1.5200    4.5840 C.ar      1 RES1    0.0000
      6 C4        11.6437    1.5200    3.7137 C.ar      1 RES1    0.0000
      7 N3        12.9767    1.5200    4.2272 N.pl3     1 RES1    0.0000
      8 O1        13.1318    1.5200    5.4452 O.2       1 RES1    0.0000
      9 O2        13.9165    1.5200    3.4484 O.2       1 RES1    0.0000
     10 C5        11.4333    1.5200    2.3646 C.ar      1 RES1    0.0000
     11 H1         7.9918    1.5200    1.3174 H         1 RES1    0.0000
     12 H2         7.0750    1.5200    2.7019 H         1 RES1    0.0000
     13 H3         8.6245    1.5200    4.7261 H         1 RES1    0.0000
     14 H4        10.7422    1.5200    5.5422 H         1 RES1    0.0000
     15 H5        12.1366    1.5200    1.7913 H         1 RES1    0.0000
@<TRIPOS>BOND
     1    1    2 ar
     2    2    3 1
     3    3   11 1
     4    4    2 ar
     5    5    4 ar
     6    6    5 ar
     7    7    6 1
     8    8    7 2
     9    9    7 2
    10   10    1 ar
    11   12    3 1
    12   13    4 1
    13   14    5 1
    14   15   10 1
    15    6   10 ar
@<TRIPOS>SUBSTRUCTURE
     1 RES1 1

@<TRIPOS>CRYSIN
  15.3570    6.0800    6.0990  90.0000  90.0000  90.0000  62 1

