# MOL2 file generated by ConQuest
# Please check atom types

@<TRIPOS>MOLECULE
GIXVAM
   133   145     2
SMALL
NO_CHARGES
****
Generated from CSD

@<TRIPOS>ATOM
      1 C1         7.2495   16.6271    2.4426 C.2       1 RES1    0.0000
      2 C2         5.2839   17.3535    3.4170 C.3       1 RES1    0.0000
      3 H1         4.3494   17.2930    3.1636 H         1 RES1    0.0000
      4 H2         5.4158   18.1487    3.9545 H         1 RES1    0.0000
      5 C3         5.7295   16.1035    4.1708 C.3       1 RES1    0.0000
      6 H3         5.2759   15.3345    3.7688 H         1 RES1    0.0000
      7 C4         5.5365   16.0168    5.6608 C.3       1 RES1    0.0000
      8 H4         4.5891   15.8891    5.8749 H         1 RES1    0.0000
      9 C5         6.3793   14.8796    6.2595 C.ar      1 RES1    0.0000
     10 C6         6.0721   14.4804    7.5791 C.ar      1 RES1    0.0000
     11 H5         5.3820   14.8698    8.0663 H         1 RES1    0.0000
     12 C7         6.8393   13.5019    8.0838 C.ar      1 RES1    0.0000
     13 C8         7.7144   11.8608    9.3597 C.3       1 RES1    0.0000
     14 H6         8.2950   11.9492   10.1309 H         1 RES1    0.0000
     15 H7         7.2720   10.9985    9.4056 H         1 RES1    0.0000
     16 C9         7.8607   12.8982    7.4108 C.ar      1 RES1    0.0000
     17 C10        8.1873   13.2958    6.1240 C.ar      1 RES1    0.0000
     18 H8         8.9030   12.9145    5.6674 H         1 RES1    0.0000
     19 C11        7.4088   14.2873    5.5385 C.ar      1 RES1    0.0000
     20 C12        7.7369   14.6522    4.0703 C.3       1 RES1    0.0000
     21 H9         8.7116   14.6882    3.9720 H         1 RES1    0.0000
     22 C13        7.1868   16.0102    3.8147 C.3       1 RES1    0.0000
     23 H10        7.6613   16.6205    4.4177 H         1 RES1    0.0000
     24 C14        7.1852   13.5690    3.0980 C.ar      1 RES1    0.0000
     25 C15        7.7144   13.5396    1.8090 C.ar      1 RES1    0.0000
     26 H11        8.4189   14.1057    1.5927 H         1 RES1    0.0000
     27 C16        7.2222   12.6985    0.8586 C.ar      1 RES1    0.0000
     28 C17        6.1847   11.7545    1.1973 C.ar      1 RES1    0.0000
     29 C18        4.7177   10.1101    0.6620 C.ar      1 RES1    0.0000
     30 C19        4.1934    9.1382   -0.2425 C.ar      1 RES1    0.0000
     31 H12        4.5360    9.0940   -1.1055 H         1 RES1    0.0000
     32 C20        3.2476    8.3103    0.1092 C.ar      1 RES1    0.0000
     33 H13        2.9114    7.6901   -0.4959 H         1 RES1    0.0000
     34 C21        2.7425    8.3773    1.4398 C.ar      1 RES1    0.0000
     35 C22        3.1575    9.2838    2.3530 C.ar      1 RES1    0.0000
     36 H14        2.7698    9.3263    3.1964 H         1 RES1    0.0000
     37 C23        4.1869   10.1592    1.9860 C.ar      1 RES1    0.0000
     38 C24        5.6748   11.7970    2.5300 C.ar      1 RES1    0.0000
     39 C25        6.1927   12.7362    3.4738 C.ar      1 RES1    0.0000
     40 H15        5.8469   12.7738    4.3368 H         1 RES1    0.0000
     41 C26        8.5669   13.6328   -0.8259 C.3       1 RES1    0.0000
     42 H16        8.1599   14.4886   -0.6707 H         1 RES1    0.0000
     43 H17        8.7583   13.5363   -1.7609 H         1 RES1    0.0000
     44 H18        9.3840   13.5723   -0.3255 H         1 RES1    0.0000
     45 C27        5.3772   17.7953    7.2514 C.2       1 RES1    0.0000
     46 C28        6.0576   19.0535    7.7648 C.3       1 RES1    0.0000
     47 H19        6.3198   19.5984    7.0045 H         1 RES1    0.0000
     48 H20        6.8651   18.8016    8.2389 H         1 RES1    0.0000
     49 C29        5.1762   19.8995    8.6999 C.3       1 RES1    0.0000
     50 H21        4.7724   19.3366    9.3772 H         1 RES1    0.0000
     51 H22        5.7102   20.5785    9.1412 H         1 RES1    0.0000
     52 C30        4.0936   20.5539    7.8456 C.3       1 RES1    0.0000
     53 H23        4.0663   20.3985    6.9302 H         1 RES1    0.0000
     54 H24        3.4615   21.1086    8.2433 H         1 RES1    0.0000
     55 N1         5.7150   10.9184    0.2665 N.ar      1 RES1    0.0000
     56 N2         4.6582   11.0034    2.9080 N.ar      1 RES1    0.0000
     57 N3         1.6921    7.4005    1.8287 N.pl3     1 RES1    0.0000
     58 O1         8.1181   16.5878    1.6277 O.2       1 RES1    0.0000
     59 O2         6.1429   17.3715    2.2372 O.3       1 RES1    0.0000
     60 O3         6.0174   17.2554    6.2201 O.3       1 RES1    0.0000
     61 O4         6.7348   12.9194    9.3531 O.3       1 RES1    0.0000
     62 O5         8.4752   11.9573    8.1602 O.3       1 RES1    0.0000
     63 O6         4.4250   17.2897    7.7364 O.2       1 RES1    0.0000
     64 O7         7.6838   12.6053   -0.4151 O.3       1 RES1    0.0000
     65 O8         1.1565    7.5560    2.9167 O.2       1 RES1    0.0000
     66 O9         1.4283    6.4974    1.0858 O.2       1 RES1    0.0000
     67 C31        6.8152    8.2612   18.6211 C.2       2 RES2    0.0000
     68 C32        7.3203   10.5322   18.5380 C.3       2 RES2    0.0000
     69 H25        6.9278   11.3421   18.8963 H         2 RES2    0.0000
     70 H26        7.7610   10.7367   17.6991 H         2 RES2    0.0000
     71 C33        8.2999    9.8941   19.5409 C.3       2 RES2    0.0000
     72 H27        7.9219    9.9710   20.4432 H         2 RES2    0.0000
     73 C34        9.7363   10.3522   19.5758 C.3       2 RES2    0.0000
     74 H28        9.7797   11.2341   19.9997 H         2 RES2    0.0000
     75 C35       10.5614    9.3542   20.4104 C.ar      2 RES2    0.0000
     76 C36       11.7887    9.8434   20.9216 C.ar      2 RES2    0.0000
     77 H29       12.0847   10.7073   20.7403 H         2 RES2    0.0000
     78 C37       12.5029    8.9942   21.6820 C.ar      2 RES2    0.0000
     79 C38       14.0374    8.0337   23.0038 C.3       2 RES2    0.0000
     80 H30       14.8625    7.6591   22.6586 H         2 RES2    0.0000
     81 H31       14.1548    8.2170   23.9498 H         2 RES2    0.0000
     82 C39       12.0718    7.7425   21.9703 C.ar      2 RES2    0.0000
     83 C40       10.9169    7.2565   21.4788 C.ar      2 RES2    0.0000
     84 H32       10.6515    6.3861   21.6710 H         2 RES2    0.0000
     85 C41       10.1287    8.0714   20.6813 C.ar      2 RES2    0.0000
     86 C42        8.7872    7.5183   20.2116 C.3       2 RES2    0.0000
     87 H33        8.9449    6.6348   19.8161 H         2 RES2    0.0000
     88 C43        8.2645    8.4346   19.1192 C.3       2 RES2    0.0000
     89 H34        8.8564    8.3364   18.3436 H         2 RES2    0.0000
     90 C44       10.2510   11.5876   17.5876 C.2       2 RES2    0.0000
     91 C45       10.9507   11.6203   16.3073 C.3       2 RES2    0.0000
     92 H35       11.8096   11.1818   16.4166 H         2 RES2    0.0000
     93 H36       11.1228   12.5464   16.0779 H         2 RES2    0.0000
     94 C46       10.2140   10.9576   15.1363 C.3       2 RES2    0.0000
     95 H37        9.9454   10.0577   15.3832 H         2 RES2    0.0000
     96 H38       10.8011   10.9004   14.3672 H         2 RES2    0.0000
     97 C47        8.9770   11.7937   14.7845 C.3       2 RES2    0.0000
     98 H39        8.2966   11.6547   15.4487 H         2 RES2    0.0000
     99 H40        8.6425   11.5254   13.9259 H         2 RES2    0.0000
    100 H41        9.2151   12.7231   14.7605 H         2 RES2    0.0000
    101 C48        7.8221    7.3465   21.3870 C.ar      2 RES2    0.0000
    102 C49        6.8281    6.3059   21.2712 C.ar      2 RES2    0.0000
    103 H42        6.7637    5.8134   20.4847 H         2 RES2    0.0000
    104 C50        5.9917    6.0425   22.2981 C.ar      2 RES2    0.0000
    105 C51        6.0785    6.7837   23.5106 C.ar      2 RES2    0.0000
    106 C52        5.3660    7.2124   25.6059 C.ar      2 RES2    0.0000
    107 C53        4.5344    6.9653   26.7092 C.ar      2 RES2    0.0000
    108 H43        3.9424    6.2486   26.6851 H         2 RES2    0.0000
    109 C54        4.5810    7.7654   27.8234 C.ar      2 RES2    0.0000
    110 H44        4.0582    7.5625   28.5641 H         2 RES2    0.0000
    111 C55        5.4062    8.8731   27.8431 C.ar      2 RES2    0.0000
    112 C56        6.2442    9.1660   26.8272 C.ar      2 RES2    0.0000
    113 H45        6.7991    9.9105   26.8730 H         2 RES2    0.0000
    114 C57        6.2651    8.3283   25.6932 C.ar      2 RES2    0.0000
    115 C58        7.0243    7.8407   23.5718 C.ar      2 RES2    0.0000
    116 C59        7.9106    8.0910   22.4860 C.ar      2 RES2    0.0000
    117 H46        8.5444    8.7684   22.5450 H         2 RES2    0.0000
    118 C60        4.7386    4.4063   21.0440 C.3       2 RES2    0.0000
    119 H47        4.6277    5.0362   20.3274 H         2 RES2    0.0000
    120 H48        3.9360    3.8892   21.1401 H         2 RES2    0.0000
    121 H49        5.4737    3.8205   20.8430 H         2 RES2    0.0000
    122 N4         7.1031    8.6244   24.6751 N.ar      2 RES2    0.0000
    123 N5         5.2775    6.4434   24.5331 N.ar      2 RES2    0.0000
    124 N6         5.3338    9.7698   28.9748 N.pl3     2 RES2    0.0000
    125 O10        6.1959    7.2598   18.4441 O.2       2 RES2    0.0000
    126 O11        6.3166    9.4916   18.3654 O.3       2 RES2    0.0000
    127 O12       10.3523   10.4275   18.2693 O.3       2 RES2    0.0000
    128 O13       13.7109    9.2396   22.3046 O.3       2 RES2    0.0000
    129 O14       12.9597    7.1126   22.8137 O.3       2 RES2    0.0000
    130 O15        9.6317   12.4989   18.0224 O.2       2 RES2    0.0000
    131 O16        5.0057    5.1115   22.2675 O.3       2 RES2    0.0000
    132 O17        4.9140    9.3116   30.0192 O.2       2 RES2    0.0000
    133 O18        5.6684   10.8987   28.8263 O.2       2 RES2    0.0000
@<TRIPOS>BOND
     1    1   22 1
     2    2    3 1
     3    4    2 1
     4    5    2 1
     5    6    5 1
     6    7    5 1
     7    8    7 1
     8    9    7 1
     9   10    9 ar
    10   11   10 1
    11   12   10 ar
    12   13   14 1
    13   15   13 1
    14   16   12 ar
    15   17   16 ar
    16   18   17 1
    17   19    9 ar
    18   20   19 1
    19   21   20 1
    20   22    5 1
    21   23   22 1
    22   24   20 1
    23   25   24 ar
    24   26   25 1
    25   27   25 ar
    26   28   27 ar
    27   29   30 ar
    28   30   31 1
    29   32   30 ar
    30   33   32 1
    31   34   32 ar
    32   35   34 ar
    33   36   35 1
    34   37   29 ar
    35   38   28 ar
    36   39   24 ar
    37   40   39 1
    38   41   42 1
    39   43   41 1
    40   44   41 1
    41   45   46 1
    42   46   47 1
    43   48   46 1
    44   49   46 1
    45   50   49 1
    46   51   49 1
    47   52   49 1
    48   53   52 1
    49   54   52 1
    50   55   28 ar
    51   56   37 ar
    52   57   34 1
    53   58    1 2
    54   59    1 1
    55   60    7 1
    56   61   12 1
    57   62   13 1
    58   63   45 2
    59   64   27 1
    60   65   57 2
    61   66   57 2
    62   67   88 1
    63   68   69 1
    64   70   68 1
    65   71   68 1
    66   72   71 1
    67   73   71 1
    68   74   73 1
    69   75   73 1
    70   76   75 ar
    71   77   76 1
    72   78   76 ar
    73   79   80 1
    74   81   79 1
    75   82   78 ar
    76   83   82 ar
    77   84   83 1
    78   85   75 ar
    79   86   85 1
    80   87   86 1
    81   88   71 1
    82   89   88 1
    83   90   91 1
    84   91   92 1
    85   93   91 1
    86   94   91 1
    87   95   94 1
    88   96   94 1
    89   97   94 1
    90   98   97 1
    91   99   97 1
    92  100   97 1
    93  101   86 1
    94  102  101 ar
    95  103  102 1
    96  104  102 ar
    97  105  104 ar
    98  106  107 ar
    99  107  108 1
   100  109  107 ar
   101  110  109 1
   102  111  109 ar
   103  112  111 ar
   104  113  112 1
   105  114  106 ar
   106  115  105 ar
   107  116  101 ar
   108  117  116 1
   109  118  119 1
   110  120  118 1
   111  121  118 1
   112  122  114 ar
   113  123  105 ar
   114  124  111 1
   115  125   67 2
   116  126   67 1
   117  127   73 1
   118  128   78 1
   119  129   79 1
   120  130   90 2
   121  131  104 1
   122  132  124 2
   123  133  124 2
   124    2   59 1
   125   13   61 1
   126   16   62 1
   127   17   19 ar
   128   20   22 1
   129   29   55 ar
   130   35   37 ar
   131   38   39 ar
   132   38   56 ar
   133   41   64 1
   134   45   60 1
   135   68  126 1
   136   79  128 1
   137   82  129 1
   138   83   85 ar
   139   86   88 1
   140   90  127 1
   141  106  123 ar
   142  112  114 ar
   143  115  116 ar
   144  115  122 ar
   145  118  131 1
@<TRIPOS>SUBSTRUCTURE
     1 RES1 1
     2 RES2 67

@<TRIPOS>CRYSIN
  16.0850   16.3620   21.8480  90.0000  90.0000  90.0000  19 1

