# MOL2 file generated by ConQuest
# Please check atom types

@<TRIPOS>MOLECULE
GIYYAO01
    73    60     2
SMALL
NO_CHARGES
****
Generated from CSD

@<TRIPOS>ATOM
      1 O1         1.3261   -0.7436    6.3067 O.2       1 RES1    0.0000
      2 O2         3.0377   -2.1329    5.9388 O.3       1 RES1    0.0000
      3 O3        -0.7040    3.9478    6.3585 Du        2 SUP2    0.0000
      4 O4        -2.1445    4.2267    4.6912 Du        2 SUP2    0.0000
      5 O5        -1.4750    3.0477    6.2476 O.2       1 RES1    0.0000
      6 O6        -1.6933    4.6975    4.7305 O.3       1 RES1    0.0000
      7 O7         9.3360    9.6006   -1.7762 O.2       1 RES1    0.0000
      8 O8         9.8876    8.0473   -3.0756 O.2       1 RES1    0.0000
      9 O9         5.0904   -0.4439    1.0114 O.2       1 RES1    0.0000
     10 N1         5.7158    4.2524    1.0269 Du        2 SUP2    0.0000
     11 N2         5.7368    5.5402    1.0964 Du        2 SUP2    0.0000
     12 C1         6.6922    6.1676    0.2684 Du        2 SUP2    0.0000
     13 C2         6.9097    7.5178    0.5109 Du        2 SUP2    0.0000
     14 H1         6.4768    7.9397    1.2176 Du        2 SUP2    0.0000
     15 C3         7.7768    8.2394   -0.3026 Du        2 SUP2    0.0000
     16 H2         7.9236    9.1431   -0.1409 Du        2 SUP2    0.0000
     17 C4         8.4229    7.6083   -1.3596 Du        2 SUP2    0.0000
     18 C5         8.2054    6.2581   -1.6021 Du        2 SUP2    0.0000
     19 H3         8.6383    5.8362   -2.3088 Du        2 SUP2    0.0000
     20 C6         7.3382    5.5365   -0.7876 Du        2 SUP2    0.0000
     21 H4         7.1934    4.6327   -0.9503 Du        2 SUP2    0.0000
     22 N3         5.4231    4.8039    1.2943 N.2       1 RES1    0.0000
     23 N4         6.2417    4.4322    0.4611 N.2       1 RES1    0.0000
     24 C7         6.9549    5.5304   -0.1554 C.ar      1 RES1    0.0000
     25 C8         6.7748    6.8610    0.2062 C.ar      1 RES1    0.0000
     26 H5         6.1694    7.0824    0.8756 H         1 RES1    0.0000
     27 C9         7.5004    7.8590   -0.4321 C.ar      1 RES1    0.0000
     28 H6         7.3804    8.7493   -0.1907 H         1 RES1    0.0000
     29 C10        8.4062    7.5276   -1.4332 C.ar      1 RES1    0.0000
     30 C11        8.5864    6.1982   -1.7958 C.ar      1 RES1    0.0000
     31 H7         9.1937    5.9768   -2.4653 H         1 RES1    0.0000
     32 C12        7.8607    5.1990   -1.1565 C.ar      1 RES1    0.0000
     33 H8         7.9809    4.3099   -1.3990 H         1 RES1    0.0000
     34 N5         5.6381    1.7513    0.9565 N.am      1 RES1    0.0000
     35 H9         6.1918    2.3041    0.6000 H         1 RES1    0.0000
     36 N6         9.2571    8.4424   -2.1368 N.pl3     1 RES1    0.0000
     37 N7         1.8212    1.5862    3.9730 N.3       1 RES1    0.0000
     38 C13        4.6851    3.7889    1.8798 C.ar      1 RES1    0.0000
     39 C14        3.8106    4.3673    2.7554 C.ar      1 RES1    0.0000
     40 H10        3.8547    5.2883    2.8798 H         1 RES1    0.0000
     41 C15        2.8782    3.6617    3.4642 C.ar      1 RES1    0.0000
     42 H11        2.3077    4.1068    4.0466 H         1 RES1    0.0000
     43 C16        2.7741    2.2552    3.3119 C.ar      1 RES1    0.0000
     44 C17        3.6866    1.6523    2.4394 C.ar      1 RES1    0.0000
     45 H12        3.6336    0.7314    2.3140 H         1 RES1    0.0000
     46 C18        4.6673    2.3506    1.7513 C.ar      1 RES1    0.0000
     47 C19        1.4580    0.2373    3.5616 C.3       1 RES1    0.0000
     48 H13        1.4726    0.1957    2.5927 H         1 RES1    0.0000
     49 H14        0.5477    0.0612    3.8476 H         1 RES1    0.0000
     50 C20        2.3415   -0.8451    4.1036 C.3       1 RES1    0.0000
     51 H15        2.1894   -1.6486    3.5803 H         1 RES1    0.0000
     52 H16        3.2621   -0.5785    3.9596 H         1 RES1    0.0000
     53 C21        2.1802   -1.1851    5.5316 C.2       1 RES1    0.0000
     54 C22        2.9813   -2.5438    7.3150 C.3       1 RES1    0.0000
     55 H17        3.6414   -3.2238    7.4683 H         1 RES1    0.0000
     56 H18        2.1099   -2.8924    7.5119 H         1 RES1    0.0000
     57 H19        3.1601   -1.7905    7.8818 H         1 RES1    0.0000
     58 C23        0.9067    2.1965    4.9212 C.3       1 RES1    0.0000
     59 H20        1.3929    2.8325    5.4694 H         1 RES1    0.0000
     60 H21        0.5451    1.5129    5.5057 H         1 RES1    0.0000
     61 C24       -0.2394    2.9144    4.2186 C.3       1 RES1    0.0000
     62 H22        0.1228    3.5602    3.5927 H         1 RES1    0.0000
     63 H23       -0.7596    2.2687    3.7150 H         1 RES1    0.0000
     64 C25       -1.1069    3.6384    5.1844 C.2       1 RES1    0.0000
     65 C26       -2.7503    5.2247    5.6373 C.3       1 RES1    0.0000
     66 H24       -3.4194    5.7334    5.1720 H         1 RES1    0.0000
     67 H25       -2.0945    5.8215    6.0062 H         1 RES1    0.0000
     68 H26       -3.1632    4.7257    6.3450 H         1 RES1    0.0000
     69 C27        5.8038    0.4672    0.6425 C.2       1 RES1    0.0000
     70 C28        7.0090    0.1688   -0.2238 C.3       1 RES1    0.0000
     71 H27        7.4642    0.9906   -0.4228 H         1 RES1    0.0000
     72 H28        6.7242   -0.2458   -1.0414 H         1 RES1    0.0000
     73 H29        7.6044   -0.4219    0.2435 H         1 RES1    0.0000
@<TRIPOS>BOND
     1    1   53 2
     2    2   53 1
     3    5   64 2
     4    6   64 1
     5    7   36 2
     6    8   36 2
     7    9   69 2
     8   22   23 2
     9   23   24 1
    10   24   25 ar
    11   25   26 1
    12   27   25 ar
    13   28   27 1
    14   29   27 ar
    15   30   29 ar
    16   31   30 1
    17   32   24 ar
    18   33   32 1
    19   34   35 1
    20   36   29 1
    21   37   43 1
    22   38   22 1
    23   39   38 ar
    24   40   39 1
    25   41   39 ar
    26   42   41 1
    27   43   41 ar
    28   44   43 ar
    29   45   44 1
    30   46   34 1
    31   47   37 1
    32   48   47 1
    33   49   47 1
    34   50   47 1
    35   51   50 1
    36   52   50 1
    37   53   50 1
    38   54    2 1
    39   55   54 1
    40   56   54 1
    41   57   54 1
    42   58   37 1
    43   59   58 1
    44   60   58 1
    45   61   58 1
    46   62   61 1
    47   63   61 1
    48   64   61 1
    49   65    6 1
    50   66   65 1
    51   67   65 1
    52   68   65 1
    53   69   34 1
    54   70   69 1
    55   71   70 1
    56   72   70 1
    57   73   70 1
    58   30   32 ar
    59   38   46 ar
    60   44   46 ar
@<TRIPOS>SUBSTRUCTURE
     1 RES1 1
     2 SUP2 3

@<TRIPOS>CRYSIN
  18.3530   12.2300   10.4750  90.0000  98.4000  90.0000  14 1

