# MOL2 file generated by ConQuest
# Please check atom types

@<TRIPOS>MOLECULE
GIYZUJ
    81    84     1
SMALL
NO_CHARGES
****
Generated from CSD

@<TRIPOS>ATOM
      1 C1         5.6580    2.3853   17.1387 C.3       1 RES1    0.0000
      2 C2         4.2874    2.5967   16.5639 C.3       1 RES1    0.0000
      3 C3         4.2047    3.2222   15.1756 C.3       1 RES1    0.0000
      4 C4         2.7842    3.2497   14.6380 C.3       1 RES1    0.0000
      5 C5         2.6662    3.7291   13.2057 C.3       1 RES1    0.0000
      6 C6         1.2457    3.6467   12.6912 C.3       1 RES1    0.0000
      7 C7         4.9128    4.6159   15.1525 C.ar      1 RES1    0.0000
      8 C8         6.1990    4.7224   14.6472 C.ar      1 RES1    0.0000
      9 C9         6.7486    5.9288   14.6588 C.ar      1 RES1    0.0000
     10 C10        6.1964    7.0390   15.2127 C.ar      1 RES1    0.0000
     11 C11        4.9309    6.9290   15.7620 C.ar      1 RES1    0.0000
     12 C12        4.2883    5.7174   15.7296 C.ar      1 RES1    0.0000
     13 O1         5.4409    1.7185   18.3763 O.3       1 RES1    0.0000
     14 O2         7.6376    1.7752   18.8583 O.2       1 RES1    0.0000
     15 O3         8.7334   -1.2906   22.6476 O.2       1 RES1    0.0000
     16 O4         7.1095   -2.0725   23.9199 O.2       1 RES1    0.0000
     17 O5         2.8109    0.0103   23.6766 O.2       1 RES1    0.0000
     18 O6         2.2406    1.0397   21.8573 O.2       1 RES1    0.0000
     19 N1         7.5851   -1.3439   23.0416 N.pl3     1 RES1    0.0000
     20 N2         3.0159    0.5121   22.5642 N.pl3     1 RES1    0.0000
     21 C13        6.5203    1.5467   19.1387 C.2       1 RES1    0.0000
     22 C14        6.1094    0.8953   20.4273 C.ar      1 RES1    0.0000
     23 C15        7.0449    0.1478   21.1411 C.ar      1 RES1    0.0000
     24 C16        6.6030   -0.5035   22.2698 C.ar      1 RES1    0.0000
     25 C17        5.3462   -0.4262   22.7496 C.ar      1 RES1    0.0000
     26 C18        4.4149    0.3403   22.0844 C.ar      1 RES1    0.0000
     27 C19        4.8258    0.9658   20.9071 C.ar      1 RES1    0.0000
     28 O7         3.5406    3.4422   17.5002 O.3       1 RES1    0.0000
     29 O8         2.3406    1.7254   18.3809 O.2       1 RES1    0.0000
     30 O9        -0.5126    2.9644   22.2791 O.2       1 RES1    0.0000
     31 O10       -0.5186    5.0129   22.9952 O.2       1 RES1    0.0000
     32 O11        2.1743    8.3639   20.8236 O.2       1 RES1    0.0000
     33 O12        3.4518    7.8054   19.1666 O.2       1 RES1    0.0000
     34 N3        -0.1490    4.1192   22.2281 N.pl3     1 RES1    0.0000
     35 N4         2.6291    7.5683   20.0635 N.pl3     1 RES1    0.0000
     36 C20        2.6800    2.8613   18.3577 C.2       1 RES1    0.0000
     37 C21        2.2131    3.8976   19.3357 C.ar      1 RES1    0.0000
     38 C22        1.2758    3.5350   20.3114 C.ar      1 RES1    0.0000
     39 C23        0.8709    4.5059   21.2223 C.ar      1 RES1    0.0000
     40 C24        1.3172    5.7948   21.1620 C.ar      1 RES1    0.0000
     41 C25        2.1889    6.1608   20.1608 C.ar      1 RES1    0.0000
     42 C26        2.6584    5.2105   19.2593 C.ar      1 RES1    0.0000
     43 O13        2.3767    1.8216   14.6843 O.3       1 RES1    0.0000
     44 O14        0.3928    2.2461   15.6461 O.2       1 RES1    0.0000
     45 O15       -1.2250   -1.4298   18.4968 O.2       1 RES1    0.0000
     46 O16       -0.6383   -3.4937   18.0425 O.2       1 RES1    0.0000
     47 O17        2.7101   -4.3547   14.6936 O.2       1 RES1    0.0000
     48 O18        3.4966   -2.7135   13.4768 O.2       1 RES1    0.0000
     49 N5        -0.6030   -2.2719   17.8548 N.pl3     1 RES1    0.0000
     50 N6         2.7989   -3.1534   14.3552 N.pl3     1 RES1    0.0000
     51 C27        1.2698    1.5209   15.3217 C.2       1 RES1    0.0000
     52 C28        1.1922    0.0223   15.5882 C.ar      1 RES1    0.0000
     53 C29        0.3730   -0.4382   16.5268 C.ar      1 RES1    0.0000
     54 C30        0.3222   -1.8096   16.7956 C.ar      1 RES1    0.0000
     55 C31        1.0966   -2.7187   16.1235 C.ar      1 RES1    0.0000
     56 C32        1.9374   -2.2203   15.1455 C.ar      1 RES1    0.0000
     57 C33        2.0304   -0.8558   14.8396 C.ar      1 RES1    0.0000
     58 H1         6.1990    1.8405   16.5453 H         1 RES1    0.0000
     59 H2         6.1060    3.2342   17.2800 H         1 RES1    0.0000
     60 H3         3.8412    1.7237   16.5245 H         1 RES1    0.0000
     61 H4         4.7182    2.6396   14.5777 H         1 RES1    0.0000
     62 H5         2.2096    3.7859   15.2243 H         1 RES1    0.0000
     63 H6         2.9711    4.6485   13.1524 H         1 RES1    0.0000
     64 H7         3.2416    3.1913   12.6402 H         1 RES1    0.0000
     65 H8         1.2138    3.9646   11.7873 H         1 RES1    0.0000
     66 H9         0.6745    4.1880   13.2404 H         1 RES1    0.0000
     67 H10        0.9476    2.7341   12.7213 H         1 RES1    0.0000
     68 H11        6.6556    3.9818   14.3158 H         1 RES1    0.0000
     69 H12        7.5799    6.0216   14.2532 H         1 RES1    0.0000
     70 H13        6.6547    7.8484   15.2220 H         1 RES1    0.0000
     71 H14        4.5209    7.6679   16.1514 H         1 RES1    0.0000
     72 H15        3.4363    5.6315   16.0911 H         1 RES1    0.0000
     73 H16        7.9314    0.0928   20.8677 H         1 RES1    0.0000
     74 H17        5.1101   -0.8850   23.5236 H         1 RES1    0.0000
     75 H18        4.1996    1.4556   20.4227 H         1 RES1    0.0000
     76 H19        0.9338    2.6705   20.3485 H         1 RES1    0.0000
     77 H20        1.0355    6.4186   21.7924 H         1 RES1    0.0000
     78 H21        3.2701    5.4562   18.6034 H         1 RES1    0.0000
     79 H22       -0.1671    0.1495   17.0042 H         1 RES1    0.0000
     80 H23        1.0579   -3.6278   16.3159 H         1 RES1    0.0000
     81 H24        2.6085   -0.5396   14.1814 H         1 RES1    0.0000
@<TRIPOS>BOND
     1    1    2 1
     2    2    3 1
     3    3    4 1
     4    4    5 1
     5    5    6 1
     6    6   65 1
     7    7    3 1
     8    8    7 ar
     9    9    8 ar
    10   10    9 ar
    11   11   10 ar
    12   12    7 ar
    13   13    1 1
    14   14   21 2
    15   15   19 2
    16   16   19 2
    17   17   20 2
    18   18   20 2
    19   19   24 1
    20   20   26 1
    21   21   13 1
    22   22   21 1
    23   23   22 ar
    24   24   23 ar
    25   25   24 ar
    26   26   25 ar
    27   27   22 ar
    28   28    2 1
    29   29   36 2
    30   30   34 2
    31   31   34 2
    32   32   35 2
    33   33   35 2
    34   34   39 1
    35   35   41 1
    36   36   28 1
    37   37   36 1
    38   38   37 ar
    39   39   38 ar
    40   40   39 ar
    41   41   40 ar
    42   42   37 ar
    43   43    4 1
    44   44   51 2
    45   45   49 2
    46   46   49 2
    47   47   50 2
    48   48   50 2
    49   49   54 1
    50   50   56 1
    51   51   43 1
    52   52   51 1
    53   53   52 ar
    54   54   53 ar
    55   55   54 ar
    56   56   55 ar
    57   57   52 ar
    58   58    1 1
    59   59    1 1
    60   60    2 1
    61   61    3 1
    62   62    4 1
    63   63    5 1
    64   64    5 1
    65   66    6 1
    66   67    6 1
    67   68    8 1
    68   69    9 1
    69   70   10 1
    70   71   11 1
    71   72   12 1
    72   73   23 1
    73   74   25 1
    74   75   27 1
    75   76   38 1
    76   77   40 1
    77   78   42 1
    78   79   53 1
    79   80   55 1
    80   81   57 1
    81   11   12 ar
    82   26   27 ar
    83   41   42 ar
    84   56   57 ar
@<TRIPOS>SUBSTRUCTURE
     1 RES1 1

@<TRIPOS>CRYSIN
   8.6145   17.1850   23.1760  90.0000  90.0000  90.0000  19 1

