# MOL2 file generated by ConQuest
# Please check atom types

@<TRIPOS>MOLECULE
GIZCUP
    38    39     1
SMALL
NO_CHARGES
****
Generated from CSD

@<TRIPOS>ATOM
      1 C1        -0.4393    4.5216    7.4649 C.3       1 RES1    0.0000
      2 C2        -0.4783    3.1839    8.1873 C.3       1 RES1    0.0000
      3 C3        -1.8226    4.9460    7.0049 C.3       1 RES1    0.0000
      4 C4         0.5475    4.5217    6.3109 C.3       1 RES1    0.0000
      5 C5         1.6126    6.4042    9.5973 C.2       1 RES1    0.0000
      6 C6         0.8191    7.6301    9.8988 C.ar      1 RES1    0.0000
      7 C7         0.2060    8.3617    8.8845 C.ar      1 RES1    0.0000
      8 C8        -0.5095    9.5170    9.1822 C.ar      1 RES1    0.0000
      9 C9        -0.6369    9.9351   10.4977 C.ar      1 RES1    0.0000
     10 C10       -0.0293    9.2184   11.5139 C.ar      1 RES1    0.0000
     11 C11        0.7031    8.0766   11.2184 C.ar      1 RES1    0.0000
     12 C12        3.0045    6.2870   10.1122 C.ar      1 RES1    0.0000
     13 C13        3.7908    7.4258   10.2733 C.ar      1 RES1    0.0000
     14 C14        5.1273    7.3156   10.6487 C.ar      1 RES1    0.0000
     15 C15        5.6834    6.0693   10.8825 C.ar      1 RES1    0.0000
     16 C16        4.9015    4.9317   10.7544 C.ar      1 RES1    0.0000
     17 C17        3.5694    5.0315   10.3735 C.ar      1 RES1    0.0000
     18 N1         1.2218    5.4163    8.8677 N.2       1 RES1    0.0000
     19 O1        -0.0916    5.5770    8.4164 O.3       1 RES1    0.0000
     20 H1         0.4104    2.9603    8.5912 H         1 RES1    0.0000
     21 H2        -0.7319    2.4414    7.5486 H         1 RES1    0.0000
     22 H3        -1.1220    3.2127    8.9456 H         1 RES1    0.0000
     23 H4        -1.7795    5.8413    6.6073 H         1 RES1    0.0000
     24 H5        -2.1628    4.2909    6.3357 H         1 RES1    0.0000
     25 H6        -2.4632    4.9926    7.7702 H         1 RES1    0.0000
     26 H7         0.5390    5.4409    5.9158 H         1 RES1    0.0000
     27 H8         0.2369    3.8742    5.6240 H         1 RES1    0.0000
     28 H9         1.4487    4.2855    6.5964 H         1 RES1    0.0000
     29 H10        0.2852    8.0705    7.9325 H         1 RES1    0.0000
     30 H11       -0.9147   10.0375    8.4336 H         1 RES1    0.0000
     31 H12       -1.1618   10.7436   10.7032 H         1 RES1    0.0000
     32 H13       -0.1049    9.5251   12.4732 H         1 RES1    0.0000
     33 H14        1.1313    7.5635   11.9222 H         1 RES1    0.0000
     34 H15        3.4059    8.3240   10.0975 H         1 RES1    0.0000
     35 H16        5.6491    8.1390   10.7578 H         1 RES1    0.0000
     36 H17        6.6349    5.9838   11.1277 H         1 RES1    0.0000
     37 H18        5.2700    4.0363   10.9295 H         1 RES1    0.0000
     38 H19        3.0209    4.2333   10.2911 H         1 RES1    0.0000
@<TRIPOS>BOND
     1    1    2 1
     2    2   20 1
     3    3    1 1
     4    4    1 1
     5    5    6 1
     6    6    7 ar
     7    7    8 ar
     8    8    9 ar
     9    9   10 ar
    10   10   11 ar
    11   11    6 ar
    12   12    5 1
    13   13   12 ar
    14   14   13 ar
    15   15   14 ar
    16   16   15 ar
    17   17   12 ar
    18   18    5 2
    19   19    1 1
    20   21    2 1
    21   22    2 1
    22   23    3 1
    23   24    3 1
    24   25    3 1
    25   26    4 1
    26   27    4 1
    27   28    4 1
    28   29    7 1
    29   30    8 1
    30   31    9 1
    31   32   10 1
    32   33   11 1
    33   34   13 1
    34   35   14 1
    35   36   15 1
    36   37   16 1
    37   38   17 1
    38   16   17 ar
    39   18   19 1
@<TRIPOS>SUBSTRUCTURE
     1 RES1 1

@<TRIPOS>CRYSIN
   8.4618   10.8796   15.6091  90.0000  90.0000  90.0000  19 1

