# MOL2 file generated by ConQuest
# Please check atom types

@<TRIPOS>MOLECULE
GIZPAH
    65    60     2
SMALL
NO_CHARGES
****
Generated from CSD

@<TRIPOS>ATOM
      1 N1         3.1897    7.1298   11.1560 N.pl3     1 RES1    0.0000
      2 N2        -1.1025   -3.1164   14.0151 N.pl3     1 RES1    0.0000
      3 O1         1.1739    1.6038    8.6882 O.3       1 RES1    0.0000
      4 O2        -0.4276    1.9517   10.2254 O.3       1 RES1    0.0000
      5 O3         4.3274    7.3160   10.7447 O.2       1 RES1    0.0000
      6 O4         2.6151    7.8696   11.9412 O.2       1 RES1    0.0000
      7 O5        -0.3481    1.0689    6.6061 O.3       1 RES1    0.0000
      8 O6        -0.6315   -1.0573    7.1625 O.2       1 RES1    0.0000
      9 O7        -1.4256   -4.2715   13.7375 O.2       1 RES1    0.0000
     10 O8        -0.8237   -2.7416   15.1505 O.2       1 RES1    0.0000
     11 C1         0.3049    2.5890    9.1984 C.3       1 RES1    0.0000
     12 H1        -0.3161    2.9006    8.4785 H         1 RES1    0.0000
     13 C2         0.4832    0.3611    8.7329 C.3       1 RES1    0.0000
     14 C3        -0.7230    0.6490    9.7289 C.3       1 RES1    0.0000
     15 H2        -1.5802    0.6752    9.2140 H         1 RES1    0.0000
     16 C4         1.0870    3.7538    9.7416 C.ar      1 RES1    0.0000
     17 C5         2.3645    4.0209    9.2699 C.ar      1 RES1    0.0000
     18 H3         2.7593    3.4456    8.6251 H         1 RES1    0.0000
     19 C6         3.0679    5.1224    9.7339 C.ar      1 RES1    0.0000
     20 H4         3.9447    5.3073    9.4203 H         1 RES1    0.0000
     21 C7         2.4644    5.9433   10.6625 C.ar      1 RES1    0.0000
     22 C8         1.2033    5.6963   11.1617 C.ar      1 RES1    0.0000
     23 H5         0.8170    6.2724   11.8107 H         1 RES1    0.0000
     24 C9         0.5122    4.5902   10.6968 C.ar      1 RES1    0.0000
     25 H6        -0.3566    4.4005   11.0305 H         1 RES1    0.0000
     26 C10        1.4486   -0.7218    9.2123 C.3       1 RES1    0.0000
     27 H7         1.7806   -0.4723   10.1111 H         1 RES1    0.0000
     28 H8         0.9487   -1.5717    9.3035 H         1 RES1    0.0000
     29 C11        2.6395   -0.9571    8.3058 C.ar      1 RES1    0.0000
     30 C12        2.7344   -2.1206    7.5524 C.ar      1 RES1    0.0000
     31 H9         2.0203   -2.7479    7.5665 H         1 RES1    0.0000
     32 C13        3.8605   -2.3793    6.7788 C.ar      1 RES1    0.0000
     33 H10        3.9132   -3.1813    6.2719 H         1 RES1    0.0000
     34 C14        4.9006   -1.4742    6.7455 C.ar      1 RES1    0.0000
     35 H11        5.6776   -1.6588    6.2297 H         1 RES1    0.0000
     36 C15        4.8088   -0.2993    7.4642 C.ar      1 RES1    0.0000
     37 H12        5.5158    0.3340    7.4249 H         1 RES1    0.0000
     38 C16        3.6898   -0.0379    8.2419 C.ar      1 RES1    0.0000
     39 H13        3.6374    0.7725    8.7344 H         1 RES1    0.0000
     40 C17       -0.0960   -0.0279    7.3725 C.2       1 RES1    0.0000
     41 C18       -0.9575    0.8371    5.2971 C.3       1 RES1    0.0000
     42 H14       -1.5796    0.0697    5.3550 H         1 RES1    0.0000
     43 H15       -1.4797    1.6352    5.0319 H         1 RES1    0.0000
     44 C19        0.0590    0.5625    4.2835 C.3       1 RES1    0.0000
     45 H16       -0.3691    0.4805    3.4068 H         1 RES1    0.0000
     46 H17        0.5190   -0.2746    4.5026 H         1 RES1    0.0000
     47 H18        0.7077    1.2971    4.2641 H         1 RES1    0.0000
     48 C20       -0.8550   -0.3191   10.8757 C.ar      1 RES1    0.0000
     49 C21       -0.2501   -0.0518   12.0963 C.ar      1 RES1    0.0000
     50 H19        0.2302    0.7582   12.2208 H         1 RES1    0.0000
     51 C22       -0.3452   -0.9640   13.1340 C.ar      1 RES1    0.0000
     52 H20        0.0544   -0.7817   13.9751 H         1 RES1    0.0000
     53 C23       -1.0307   -2.1420   12.9218 C.ar      1 RES1    0.0000
     54 C24       -1.6531   -2.4369   11.7163 C.ar      1 RES1    0.0000
     55 H21       -2.1223   -3.2540   11.5946 H         1 RES1    0.0000
     56 C25       -1.5698   -1.5069   10.6985 C.ar      1 RES1    0.0000
     57 H22       -2.0029   -1.6762    9.8700 H         1 RES1    0.0000
     58 O9         0.5296    0.6711    6.3643 Du        2 SUP2    0.0000
     59 C26        0.1889    0.2961    4.9773 Du        2 SUP2    0.0000
     60 H23        0.8823    0.6445    4.3610 Du        2 SUP2    0.0000
     61 H24        0.1743   -0.6906    4.8953 Du        2 SUP2    0.0000
     62 C27       -1.1074    0.8330    4.5996 Du        2 SUP2    0.0000
     63 H25       -1.2547    0.6875    3.6429 Du        2 SUP2    0.0000
     64 H26       -1.1320    1.7930    4.7934 Du        2 SUP2    0.0000
     65 H27       -1.8098    0.3791    5.1114 Du        2 SUP2    0.0000
@<TRIPOS>BOND
     1    1    5 2
     2    2    9 2
     3    3   11 1
     4    4   11 1
     5    6    1 2
     6    7   40 1
     7    8   40 2
     8   10    2 2
     9   11   12 1
    10   13    3 1
    11   14    4 1
    12   15   14 1
    13   16   11 1
    14   17   16 ar
    15   18   17 1
    16   19   17 ar
    17   20   19 1
    18   21    1 1
    19   22   21 ar
    20   23   22 1
    21   24   16 ar
    22   25   24 1
    23   26   13 1
    24   27   26 1
    25   28   26 1
    26   29   26 1
    27   30   29 ar
    28   31   30 1
    29   32   30 ar
    30   33   32 1
    31   34   32 ar
    32   35   34 1
    33   36   34 ar
    34   37   36 1
    35   38   29 ar
    36   39   38 1
    37   40   13 1
    38   41    7 1
    39   42   41 1
    40   43   41 1
    41   44   41 1
    42   45   44 1
    43   46   44 1
    44   47   44 1
    45   48   14 1
    46   49   48 ar
    47   50   49 1
    48   51   49 ar
    49   52   51 1
    50   53    2 1
    51   54   53 ar
    52   55   54 1
    53   56   48 ar
    54   57   56 1
    55   13   14 1
    56   19   21 ar
    57   22   24 ar
    58   36   38 ar
    59   51   53 ar
    60   54   56 ar
@<TRIPOS>SUBSTRUCTURE
     1 RES1 1
     2 SUP2 58

@<TRIPOS>CRYSIN
   8.9876   10.2457   25.2180  90.0000  99.8130  90.0000  14 1

