# MOL2 file generated by ConQuest
# Please check atom types

@<TRIPOS>MOLECULE
GIZPAG
    46    48     1
SMALL
NO_CHARGES
****
Generated from CSD

@<TRIPOS>ATOM
      1 O1         3.6838    0.9950    2.3311 O.3       1 RES1    0.0000
      2 O2        -4.8939    0.7431    0.8742 O.3       1 RES1    0.0000
      3 N1         4.9749    0.5718    2.6992 N.2       1 RES1    0.0000
      4 N2         1.0262   -3.1598    1.8232 N.1       1 RES1    0.0000
      5 C1         4.8594   -0.6860    3.0378 C.2       1 RES1    0.0000
      6 C2         3.5271   -1.1237    2.8873 C.2       1 RES1    0.0000
      7 C3         2.8349   -0.0557    2.4533 C.2       1 RES1    0.0000
      8 C4         1.4572    0.2484    2.1376 C.2       1 RES1    0.0000
      9 C5         0.4730   -0.6379    1.8998 C.2       1 RES1    0.0000
     10 C6         0.7954   -2.0450    1.8756 C.1       1 RES1    0.0000
     11 C7        -0.9359   -0.2973    1.6176 C.ar      1 RES1    0.0000
     12 C8        -1.3493    1.0232    1.4564 C.ar      1 RES1    0.0000
     13 C9        -2.6617    1.3267    1.2011 C.ar      1 RES1    0.0000
     14 C10       -3.6151    0.3234    1.1044 C.ar      1 RES1    0.0000
     15 C11       -3.2268   -0.9847    1.2549 C.ar      1 RES1    0.0000
     16 C12       -1.9010   -1.2840    1.4994 C.ar      1 RES1    0.0000
     17 C13       -5.9200   -0.2408    0.8532 C.3       1 RES1    0.0000
     18 C14        6.0415   -1.4312    3.5268 C.ar      1 RES1    0.0000
     19 C15        6.4418   -2.6100    2.8833 C.ar      1 RES1    0.0000
     20 C16        7.5497   -3.2877    3.3669 C.ar      1 RES1    0.0000
     21 C17        8.2756   -2.8384    4.4566 C.ar      1 RES1    0.0000
     22 C18        7.8541   -1.6817    5.0732 C.ar      1 RES1    0.0000
     23 C19        6.7538   -0.9565    4.6420 C.ar      1 RES1    0.0000
     24 C20        6.3555    0.2966    5.3755 C.3       1 RES1    0.0000
     25 C21        9.5000   -3.5740    4.9483 C.3       1 RES1    0.0000
     26 C22        5.7032   -3.1357    1.6781 C.3       1 RES1    0.0000
     27 H1         3.2065   -1.9680    3.0633 H         1 RES1    0.0000
     28 H2         1.2811    1.1698    2.0959 H         1 RES1    0.0000
     29 H3        -0.7254    1.7271    1.5182 H         1 RES1    0.0000
     30 H4        -2.9544    2.2707    1.1017 H         1 RES1    0.0000
     31 H5        -3.8832   -1.7065    1.1958 H         1 RES1    0.0000
     32 H6        -1.6407   -2.2226    1.5988 H         1 RES1    0.0000
     33 H7        -5.8256   -0.8326    0.1344 H         1 RES1    0.0000
     34 H8        -6.7631    0.2408    0.7255 H         1 RES1    0.0000
     35 H9        -5.9413   -0.7294    1.7332 H         1 RES1    0.0000
     36 H10        7.8318   -4.0942    2.9021 H         1 RES1    0.0000
     37 H11        8.3358   -1.3212    5.8310 H         1 RES1    0.0000
     38 H12        5.4089    0.2959    5.5085 H         1 RES1    0.0000
     39 H13        6.7129    0.2959    6.2072 H         1 RES1    0.0000
     40 H14        6.6433    1.1285    4.8636 H         1 RES1    0.0000
     41 H15        9.3976   -4.4727    4.8636 H         1 RES1    0.0000
     42 H16        9.6759   -3.4887    5.8579 H         1 RES1    0.0000
     43 H17       10.2544   -3.2960    4.5143 H         1 RES1    0.0000
     44 H18        6.1587   -3.9015    1.3704 H         1 RES1    0.0000
     45 H19        5.5776   -2.4703    1.0211 H         1 RES1    0.0000
     46 H20        4.7317   -3.4474    1.8944 H         1 RES1    0.0000
@<TRIPOS>BOND
     1    1    3 1
     2    2   14 1
     3    3    5 2
     4    4   10 3
     5    5    6 1
     6    6    7 2
     7    7    1 1
     8    8    7 1
     9    9    8 2
    10   10    9 1
    11   11    9 1
    12   12   11 ar
    13   13   12 ar
    14   14   13 ar
    15   15   14 ar
    16   16   11 ar
    17   17    2 1
    18   18    5 1
    19   19   18 ar
    20   20   19 ar
    21   21   20 ar
    22   22   21 ar
    23   23   18 ar
    24   24   23 1
    25   25   21 1
    26   26   19 1
    27   27    6 1
    28   28    8 1
    29   29   12 1
    30   30   13 1
    31   31   15 1
    32   32   16 1
    33   33   17 1
    34   34   17 1
    35   35   17 1
    36   36   20 1
    37   37   22 1
    38   38   24 1
    39   39   24 1
    40   40   24 1
    41   41   25 1
    42   42   25 1
    43   43   25 1
    44   44   26 1
    45   45   26 1
    46   46   26 1
    47   15   16 ar
    48   22   23 ar
@<TRIPOS>SUBSTRUCTURE
     1 RES1 1

@<TRIPOS>CRYSIN
  20.2520    6.8810   13.8480  90.0000 104.0200  90.0000  14 1

