# MOL2 file generated by ConQuest
# Please check atom types

@<TRIPOS>MOLECULE
GIZQUC
    31    31     1
SMALL
NO_CHARGES
****
Generated from CSD

@<TRIPOS>ATOM
      1 N1         4.3645    4.9047    4.6283 N.pl3     1 RES1    0.0000
      2 O1         1.0645    1.1641    3.4762 O.2       1 RES1    0.0000
      3 O2         5.0903    5.6126    3.9573 O.2       1 RES1    0.0000
      4 O3         3.4711    5.3411    5.3400 O.2       1 RES1    0.0000
      5 C1         2.2728   -0.8108    2.9824 C.3       1 RES1    0.0000
      6 H1         1.3924   -1.2419    2.9743 H         1 RES1    0.0000
      7 H2         2.8717   -1.3046    3.5797 H         1 RES1    0.0000
      8 H3         2.6448   -0.8096    2.0750 H         1 RES1    0.0000
      9 C2         2.1334    0.5992    3.4672 C.2       1 RES1    0.0000
     10 C3         3.3926    1.2599    3.9724 C.3       1 RES1    0.0000
     11 H4         4.1574    0.9621    3.4190 H         1 RES1    0.0000
     12 H5         3.5602    0.9647    4.9036 H         1 RES1    0.0000
     13 C4         3.3187    2.7956    3.9402 C.3       1 RES1    0.0000
     14 H6         2.5217    3.0797    4.4741 H         1 RES1    0.0000
     15 C5         4.5694    3.4039    4.5901 C.3       1 RES1    0.0000
     16 H7         5.3624    3.2009    4.0143 H         1 RES1    0.0000
     17 C6         4.8595    2.9390    6.0059 C.3       1 RES1    0.0000
     18 H8         5.5486    3.5112    6.4033 H         1 RES1    0.0000
     19 H9         5.1767    2.0116    5.9863 H         1 RES1    0.0000
     20 H10        4.0411    2.9924    6.5415 H         1 RES1    0.0000
     21 C7         3.1454    3.3148    2.5176 C.ar      1 RES1    0.0000
     22 C8         4.0417    2.9441    1.5161 C.ar      1 RES1    0.0000
     23 H11        4.7692    2.3693    1.7233 H         1 RES1    0.0000
     24 C9         3.8803    3.4069    0.2208 C.ar      1 RES1    0.0000
     25 H12        4.4921    3.1399   -0.4547 H         1 RES1    0.0000
     26 C10        2.8384    4.2504   -0.0924 C.ar      1 RES1    0.0000
     27 H13        2.7311    4.5632   -0.9822 H         1 RES1    0.0000
     28 C11        1.9489    4.6420    0.8908 C.ar      1 RES1    0.0000
     29 H14        1.2332    5.2303    0.6783 H         1 RES1    0.0000
     30 C12        2.1046    4.1714    2.1956 C.ar      1 RES1    0.0000
     31 H15        1.4917    4.4411    2.8688 H         1 RES1    0.0000
@<TRIPOS>BOND
     1    1    3 2
     2    2    9 2
     3    4    1 2
     4    5    6 1
     5    7    5 1
     6    8    5 1
     7    9    5 1
     8   10    9 1
     9   11   10 1
    10   12   10 1
    11   13   10 1
    12   14   13 1
    13   15    1 1
    14   16   15 1
    15   17   15 1
    16   18   17 1
    17   19   17 1
    18   20   17 1
    19   21   13 1
    20   22   21 ar
    21   23   22 1
    22   24   22 ar
    23   25   24 1
    24   26   24 ar
    25   27   26 1
    26   28   26 ar
    27   29   28 1
    28   30   21 ar
    29   31   30 1
    30   13   15 1
    31   28   30 ar
@<TRIPOS>SUBSTRUCTURE
     1 RES1 1

@<TRIPOS>CRYSIN
   5.6440    8.4770   25.1210  90.0000  90.0000  90.0000  19 1

