# MOL2 file generated by ConQuest
# Please check atom types

@<TRIPOS>MOLECULE
GIZSOX
    40    40     2
SMALL
NO_CHARGES
****
Generated from CSD

@<TRIPOS>ATOM
      1 C1         3.1078    9.3386   13.5384 C.3       1 RES1    0.0000
      2 O1         1.8848    7.4373   14.1150 O.2       1 RES1    0.0000
      3 N1         2.6613    7.8920   13.3183 N.pl3     1 RES1    0.0000
      4 O2         3.1764    7.2741   12.3942 O.2       1 RES1    0.0000
      5 N2         3.1603    9.8998   12.1291 N.pl3     1 RES1    0.0000
      6 C2         2.1783   10.0801   14.4147 C.2       1 RES1    0.0000
      7 N3         1.1213   10.6073   13.9480 N.2       1 RES1    0.0000
      8 O3         2.1665    9.7649   11.4384 O.2       1 RES1    0.0000
      9 C3         2.7534   10.1277   15.8133 C.3       1 RES1    0.0000
     10 O4         4.1681   10.4984   11.7804 O.2       1 RES1    0.0000
     11 C4         4.0085    9.2627   15.7364 C.3       1 RES1    0.0000
     12 O5         0.4209   11.3306   14.9145 O.3       1 RES1    0.0000
     13 C5         4.4251    9.3216   14.2741 C.3       1 RES1    0.0000
     14 C6         3.1153    7.6834    6.8832 C.3       2 RES2    0.0000
     15 O6         4.1563    6.5031    5.1810 O.2       2 RES2    0.0000
     16 N4         3.1646    7.0961    5.4925 N.pl3     2 RES2    0.0000
     17 N5         2.6677    9.1175    6.6870 N.pl3     2 RES2    0.0000
     18 O7         2.1911    7.2627    4.8097 O.2       2 RES2    0.0000
     19 C7         2.1751    6.9192    7.8152 C.2       2 RES2    0.0000
     20 N6         1.1181    6.3909    7.3313 N.2       2 RES2    0.0000
     21 C8         2.7266    6.8818    9.1833 C.3       2 RES2    0.0000
     22 O8         3.1678    9.7093    5.7643 O.2       2 RES2    0.0000
     23 O9         1.8795    9.5824    7.4970 O.2       2 RES2    0.0000
     24 C9         4.0010    7.7310    9.1078 C.3       2 RES2    0.0000
     25 O10        0.4241    5.6891    8.2898 O.3       2 RES2    0.0000
     26 C10        4.4326    7.6652    7.6455 C.3       2 RES2    0.0000
     27 H1         2.9590   11.0143   15.8822 H         1 RES1    0.0000
     28 H2         2.0508    9.6923   16.4709 H         1 RES1    0.0000
     29 H3         4.6575    9.7445   16.3144 H         1 RES1    0.0000
     30 H4         3.7568    8.3160   16.0122 H         1 RES1    0.0000
     31 H5         4.9209    8.6119   14.0315 H         1 RES1    0.0000
     32 H6        -0.3320   11.4168   14.5234 H         1 RES1    0.0000
     33 H7         4.7581   10.4474   13.9082 H         1 RES1    0.0000
     34 H8         1.9416    6.8863    9.9854 H         2 RES2    0.0000
     35 H9         2.8787    5.9895    9.3530 H         2 RES2    0.0000
     36 H10        3.8050    8.6606    9.4206 H         2 RES2    0.0000
     37 H11        4.6982    7.6675    9.5903 H         2 RES2    0.0000
     38 H12        5.1940    8.2400    7.1576 H         2 RES2    0.0000
     39 H13       -0.2752    5.2401    7.7741 H         2 RES2    0.0000
     40 H14        4.8181    6.8512    7.5527 H         2 RES2    0.0000
@<TRIPOS>BOND
     1    1    3 1
     2    2    3 2
     3    3    4 2
     4    5    1 1
     5    6    1 1
     6    7    6 2
     7    8    5 2
     8    9    6 1
     9   10    5 2
    10   11    9 1
    11   12    7 1
    12   13    1 1
    13   14   16 1
    14   15   16 2
    15   16   18 2
    16   17   14 1
    17   19   14 1
    18   20   19 2
    19   21   19 1
    20   22   17 2
    21   23   17 2
    22   24   21 1
    23   25   20 1
    24   26   14 1
    25   27    9 1
    26   28    9 1
    27   29   11 1
    28   30   11 1
    29   31   13 1
    30   32   12 1
    31   33   13 1
    32   34   21 1
    33   35   21 1
    34   36   24 1
    35   37   24 1
    36   38   26 1
    37   39   25 1
    38   40   26 1
    39   11   13 1
    40   24   26 1
@<TRIPOS>SUBSTRUCTURE
     1 RES1 1
     2 RES2 14

@<TRIPOS>CRYSIN
  10.7093   11.3374   13.2573  90.0000  90.0000  90.0000  19 1

