# MOL2 file generated by ConQuest
# Please check atom types

@<TRIPOS>MOLECULE
GLOXIM
    10     9     1
SMALL
NO_CHARGES
****
Generated from CSD

@<TRIPOS>ATOM
      1 C1         0.3818    0.5641    0.2463 C.2       1 RES1    0.0000
      2 H1         1.0804    1.1163   -0.3645 H         1 RES1    0.0000
      3 H2         0.6401    2.1125    2.7367 H         1 RES1    0.0000
      4 N1         0.2074    0.9137    1.4691 N.2       1 RES1    0.0000
      5 O1         1.0210    1.9991    1.8018 O.3       1 RES1    0.0000
      6 C1B       -0.3818   -0.5641   -0.2463 C.2       1 RES1    0.0000
      7 H1B       -1.0804   -1.1163    0.3645 H         1 RES1    0.0000
      8 H2B       -0.6401   -2.1125   -2.7367 H         1 RES1    0.0000
      9 N1B       -0.2074   -0.9137   -1.4691 N.2       1 RES1    0.0000
     10 O1B       -1.0210   -1.9991   -1.8018 O.3       1 RES1    0.0000
@<TRIPOS>BOND
     1    1    2 1
     2    3    5 1
     3    4    1 2
     4    5    4 1
     5    6    1 1
     6    7    6 1
     7    8   10 1
     8    9    6 2
     9   10    9 1
@<TRIPOS>SUBSTRUCTURE
     1 RES1 1

@<TRIPOS>CRYSIN
   3.8680    4.4140   10.9490  90.0000  91.1600  90.0000  14 1

