# MOL2 file generated by ConQuest
# Please check atom types

@<TRIPOS>MOLECULE
GOBXEC
    24    25     1
SMALL
NO_CHARGES
****
Generated from CSD

@<TRIPOS>ATOM
      1 N1         7.0216    1.6930    0.7364 N.2       1 RES1    0.0000
      2 O1         8.3978    1.7385    0.9994 O.3       1 RES1    0.0000
      3 O2        10.9031    1.5435    2.1160 O.2       1 RES1    0.0000
      4 O3        10.0047    1.9969    4.1194 O.3       1 RES1    0.0000
      5 C1         4.2953    2.0508    3.1334 C.ar      1 RES1    0.0000
      6 H1         4.7807    2.3698    3.8599 H         1 RES1    0.0000
      7 C2         2.9164    1.9933    3.2005 C.ar      1 RES1    0.0000
      8 H2         2.4783    2.2814    3.9689 H         1 RES1    0.0000
      9 C3         2.1873    1.5129    2.1393 C.ar      1 RES1    0.0000
     10 H3         1.2586    1.4801    2.1842 H         1 RES1    0.0000
     11 C4         2.8450    1.0811    1.0070 C.ar      1 RES1    0.0000
     12 H4         2.3558    0.7428    0.2921 H         1 RES1    0.0000
     13 C5         4.2187    1.1457    0.9242 C.ar      1 RES1    0.0000
     14 H5         4.6522    0.8598    0.1522 H         1 RES1    0.0000
     15 C6         4.9570    1.6374    1.9929 C.ar      1 RES1    0.0000
     16 C7         6.4270    1.7197    1.9014 C.2       1 RES1    0.0000
     17 C8         8.5617    1.8063    2.3387 C.2       1 RES1    0.0000
     18 C9         7.3767    1.8020    2.9532 C.2       1 RES1    0.0000
     19 H6         7.2106    1.8433    3.8675 H         1 RES1    0.0000
     20 C10        9.9570    1.7726    2.8127 C.2       1 RES1    0.0000
     21 C11       11.3024    1.8665    4.7386 C.3       1 RES1    0.0000
     22 H7        11.6941    1.0271    4.4861 H         1 RES1    0.0000
     23 H8        11.2058    1.9005    5.6931 H         1 RES1    0.0000
     24 H9        11.8688    2.5848    4.4482 H         1 RES1    0.0000
@<TRIPOS>BOND
     1    1    2 1
     2    2   17 1
     3    3   20 2
     4    4   20 1
     5    5    6 1
     6    7    5 ar
     7    8    7 1
     8    9    7 ar
     9   10    9 1
    10   11    9 ar
    11   12   11 1
    12   13   11 ar
    13   14   13 1
    14   15    5 ar
    15   16    1 2
    16   17   18 2
    17   18   16 1
    18   19   18 1
    19   20   17 1
    20   21    4 1
    21   22   21 1
    22   23   21 1
    23   24   21 1
    24   13   15 ar
    25   15   16 1
@<TRIPOS>SUBSTRUCTURE
     1 RES1 1

@<TRIPOS>CRYSIN
  12.2275   13.6040    5.8746  90.0000  97.0110  90.0000  14 1

