# MOL2 file generated by ConQuest
# Please check atom types

@<TRIPOS>MOLECULE
GOCFUB
    62    64     1
SMALL
NO_CHARGES
****
Generated from CSD

@<TRIPOS>ATOM
      1 C1         5.0789    5.7960    3.8681 C.3       1 RES1    0.0000
      2 H1         5.0983    5.3992    2.9722 H         1 RES1    0.0000
      3 C2         4.2839    7.1057    3.8073 C.3       1 RES1    0.0000
      4 C3         3.2286    6.9785    4.8429 C.2       1 RES1    0.0000
      5 H2         2.6586    7.6700    5.0889 H         1 RES1    0.0000
      6 C4         3.1934    5.7877    5.3653 C.2       1 RES1    0.0000
      7 H3         2.5805    5.5342    6.0162 H         1 RES1    0.0000
      8 C5         4.2408    4.8646    4.8146 C.3       1 RES1    0.0000
      9 H4         4.8139    4.5635    5.5505 H         1 RES1    0.0000
     10 C6         3.6794    3.6383    4.0948 C.ar      1 RES1    0.0000
     11 C7         2.5675    3.8013    3.2718 C.ar      1 RES1    0.0000
     12 H5         2.1823    4.6449    3.1959 H         1 RES1    0.0000
     13 C8         2.0226    2.7532    2.5672 C.ar      1 RES1    0.0000
     14 H6         1.2875    2.8941    2.0155 H         1 RES1    0.0000
     15 C9         2.5706    1.4947    2.6806 C.ar      1 RES1    0.0000
     16 H7         2.2014    0.7742    2.2231 H         1 RES1    0.0000
     17 C10        3.6916    1.3224    3.4976 C.ar      1 RES1    0.0000
     18 H8         4.0694    0.4764    3.5715 H         1 RES1    0.0000
     19 C11        4.2470    2.3625    4.1920 C.ar      1 RES1    0.0000
     20 C12        5.4703    2.0604    4.9917 C.2       1 RES1    0.0000
     21 C13        6.6100    1.3697    4.2902 C.3       1 RES1    0.0000
     22 H9         7.3271    1.2247    4.9118 H         1 RES1    0.0000
     23 H10        6.9200    1.9175    3.5664 H         1 RES1    0.0000
     24 H11        6.3091    0.5260    3.9460 H         1 RES1    0.0000
     25 C14        7.4164    5.0659    3.9339 C.2       1 RES1    0.0000
     26 C15        9.6326    4.2678    4.2932 C.3       1 RES1    0.0000
     27 H12        9.3290    3.5095    3.7496 H         1 RES1    0.0000
     28 C16       10.4629    5.1471    3.4753 C.3       1 RES1    0.0000
     29 H13        9.9662    5.4290    2.7039 H         1 RES1    0.0000
     30 H14       11.2498    4.6727    3.1929 H         1 RES1    0.0000
     31 H15       10.7190    5.9153    3.9896 H         1 RES1    0.0000
     32 C17       10.3205    3.7536    5.5141 C.3       1 RES1    0.0000
     33 H16        9.7320    3.1601    5.9869 H         1 RES1    0.0000
     34 H17       10.5564    4.4901    6.0820 H         1 RES1    0.0000
     35 H18       11.1139    3.2792    5.2590 H         1 RES1    0.0000
     36 C18        7.5117    7.7010    5.5222 C.2       1 RES1    0.0000
     37 C19        8.4459    9.3902    6.9162 C.3       1 RES1    0.0000
     38 H19        9.2919    9.2680    6.4363 H         1 RES1    0.0000
     39 C20        8.6945    9.4645    8.3871 C.3       1 RES1    0.0000
     40 H20        9.1562    8.6725    8.6736 H         1 RES1    0.0000
     41 H21        7.8559    9.5320    8.8497 H         1 RES1    0.0000
     42 H22        9.2305   10.2366    8.5824 H         1 RES1    0.0000
     43 C21        7.7350   10.5999    6.4070 C.3       1 RES1    0.0000
     44 H23        7.5987   10.5185    5.4605 H         1 RES1    0.0000
     45 H24        8.2625   11.3820    6.5872 H         1 RES1    0.0000
     46 H25        6.8849   10.6813    6.8463 H         1 RES1    0.0000
     47 C22        4.8903    8.4283    3.4692 C.3       1 RES1    0.0000
     48 H26        4.5613    9.2084    3.9420 H         1 RES1    0.0000
     49 H27        5.8360    8.4501    3.2546 H         1 RES1    0.0000
     50 C23        3.9710    7.7713    2.4933 C.3       1 RES1    0.0000
     51 H28        4.3614    7.3902    1.6906 H         1 RES1    0.0000
     52 H29        3.0863    8.1504    2.3790 H         1 RES1    0.0000
     53 N1         6.4603    5.9453    4.3459 N.am      1 RES1    0.0000
     54 N2         5.4462    2.3578    6.2146 N.2       1 RES1    0.0000
     55 N3         6.6542    6.6585    5.5293 N.am      1 RES1    0.0000
     56 H30        6.2371    6.4374    6.2480 H         1 RES1    0.0000
     57 O1         6.6372    2.0068    6.8848 O.3       1 RES1    0.0000
     58 H31        6.4924    1.9572    7.6906 H         1 RES1    0.0000
     59 O2         7.2989    4.4025    2.9317 O.2       1 RES1    0.0000
     60 O3         8.4726    5.0290    4.7569 O.3       1 RES1    0.0000
     61 O4         8.1153    8.1230    4.5544 O.2       1 RES1    0.0000
     62 O5         7.5983    8.2066    6.7532 O.3       1 RES1    0.0000
@<TRIPOS>BOND
     1    1    2 1
     2    3    1 1
     3    4    3 1
     4    5    4 1
     5    6    4 2
     6    7    6 1
     7    8    1 1
     8    9    8 1
     9   10    8 1
    10   11   10 ar
    11   12   11 1
    12   13   11 ar
    13   14   13 1
    14   15   13 ar
    15   16   15 1
    16   17   15 ar
    17   18   17 1
    18   19   10 ar
    19   20   19 1
    20   21   20 1
    21   22   21 1
    22   23   21 1
    23   24   21 1
    24   25   53 1
    25   26   27 1
    26   28   26 1
    27   29   28 1
    28   30   28 1
    29   31   28 1
    30   32   26 1
    31   33   32 1
    32   34   32 1
    33   35   32 1
    34   36   55 1
    35   37   38 1
    36   39   37 1
    37   40   39 1
    38   41   39 1
    39   42   39 1
    40   43   37 1
    41   44   43 1
    42   45   43 1
    43   46   43 1
    44   47    3 1
    45   48   47 1
    46   49   47 1
    47   50    3 1
    48   51   50 1
    49   52   50 1
    50   53    1 1
    51   54   20 2
    52   55   53 1
    53   56   55 1
    54   57   54 1
    55   58   57 1
    56   59   25 2
    57   60   25 1
    58   61   36 2
    59   62   36 1
    60    6    8 1
    61   17   19 ar
    62   26   60 1
    63   37   62 1
    64   47   50 1
@<TRIPOS>SUBSTRUCTURE
     1 RES1 1

@<TRIPOS>CRYSIN
  11.5850   19.8500   10.7520  90.0000 109.6920  90.0000  14 1

