# MOL2 file generated by ConQuest
# Please check atom types

@<TRIPOS>MOLECULE
GODDUZ
    55    55     1
SMALL
NO_CHARGES
****
Generated from CSD

@<TRIPOS>ATOM
      1 O1         7.7125    8.9616   16.7521 O.3       1 RES1    0.0000
      2 O2         6.3754    7.1258   16.5174 O.2       1 RES1    0.0000
      3 O3         4.9601    6.8019   12.1623 O.3       1 RES1    0.0000
      4 O4         5.0679   10.8238   13.6452 O.3       1 RES1    0.0000
      5 O5         5.4341   10.5416   10.7018 O.2       1 RES1    0.0000
      6 O6         6.7435    7.4629   10.8327 O.3       1 RES1    0.0000
      7 O7         7.4273   10.5756   11.5571 O.2       1 RES1    0.0000
      8 N1         6.2877   10.1255   11.4682 N.pl3     1 RES1    0.0000
      9 N2         6.0369    9.0374   15.3370 N.am      1 RES1    0.0000
     10 C1         6.6844    8.2655   16.2312 C.2       1 RES1    0.0000
     11 C2         2.2993    8.4994   14.7844 C.ar      1 RES1    0.0000
     12 C3         7.6267    8.3665   19.0973 C.3       1 RES1    0.0000
     13 C4         8.5145    8.4412   17.8755 C.3       1 RES1    0.0000
     14 C5         4.7999    9.4645   13.3197 C.3       1 RES1    0.0000
     15 C6         3.5658    8.9550   15.4752 C.3       1 RES1    0.0000
     16 C7         5.5257    7.8351   11.4248 C.3       1 RES1    0.0000
     17 C8         4.8180    8.6619   14.6422 C.3       1 RES1    0.0000
     18 C9         0.0267    7.6452   13.3928 C.ar      1 RES1    0.0000
     19 C10        9.5941    9.5062   18.0117 C.3       1 RES1    0.0000
     20 C11        1.4496    9.4228   14.1804 C.ar      1 RES1    0.0000
     21 C12        0.8717    6.7295   13.9889 C.ar      1 RES1    0.0000
     22 C13        1.9722    7.1566   14.6916 C.ar      1 RES1    0.0000
     23 C14        5.8967    8.9847   12.3565 C.3       1 RES1    0.0000
     24 C15        9.1259    7.0973   17.5537 C.3       1 RES1    0.0000
     25 C16        0.3185    9.0034   13.4974 C.ar      1 RES1    0.0000
     26 C17        3.7823    6.2431   11.6025 C.3       1 RES1    0.0000
     27 C18        6.6091    6.5143    9.8102 C.3       1 RES1    0.0000
     28 H1         6.4059    9.8905   15.1397 H         1 RES1    0.0000
     29 H2        -0.7439    7.3663   12.9131 H         1 RES1    0.0000
     30 H3         1.6403   10.3517   14.2455 H         1 RES1    0.0000
     31 H4         0.6857    5.8017   13.9080 H         1 RES1    0.0000
     32 H5         2.5149    6.5186   15.1397 H         1 RES1    0.0000
     33 H6        -0.2556    9.6468   13.1006 H         1 RES1    0.0000
     34 H7         3.9445    9.3876   12.9151 H         1 RES1    0.0000
     35 H8         4.8495    7.7330   14.4468 H         1 RES1    0.0000
     36 H9         6.6558    8.7179   12.8618 H         1 RES1    0.0000
     37 H10        3.6317    8.5038   16.3082 H         1 RES1    0.0000
     38 H11        3.5153    9.8916   15.6252 H         1 RES1    0.0000
     39 H12        7.2156    7.5112   19.1328 H         1 RES1    0.0000
     40 H13        8.1521    8.4983   19.8770 H         1 RES1    0.0000
     41 H14        6.9572    9.0385   19.0479 H         1 RES1    0.0000
     42 H15        9.2985   10.1837   18.6078 H         1 RES1    0.0000
     43 H16       10.3885    9.1099   18.3512 H         1 RES1    0.0000
     44 H17        9.7696    9.8883   17.1589 H         1 RES1    0.0000
     45 H18        9.9775    7.2235   17.1530 H         1 RES1    0.0000
     46 H19        9.2231    6.5988   18.3551 H         1 RES1    0.0000
     47 H20        8.5603    6.6252   16.9537 H         1 RES1    0.0000
     48 H21        4.0332    5.5239   11.0320 H         1 RES1    0.0000
     49 H22        3.2139    5.9181   12.2914 H         1 RES1    0.0000
     50 H23        3.3217    6.9018   11.0952 H         1 RES1    0.0000
     51 H24        6.5061    6.9743    8.9851 H         1 RES1    0.0000
     52 H25        7.3758    5.9543    9.7668 H         1 RES1    0.0000
     53 H26        5.8385    5.9839    9.9760 H         1 RES1    0.0000
     54 H27        4.8924   11.5331   13.1974 H         1 RES1    0.0000
     55 H28        4.9134    8.1338   10.7636 H         1 RES1    0.0000
@<TRIPOS>BOND
     1    1   10 1
     2    2   10 2
     3    3   16 1
     4    4   14 1
     5    5    8 2
     6    6   16 1
     7    7    8 2
     8    8   23 1
     9    9   10 1
    10   11   15 1
    11   12   13 1
    12   13    1 1
    13   14   17 1
    14   15   17 1
    15   16   23 1
    16   17    9 1
    17   18   21 ar
    18   19   13 1
    19   20   11 ar
    20   21   22 ar
    21   22   11 ar
    22   23   14 1
    23   24   13 1
    24   25   18 ar
    25   26    3 1
    26   27    6 1
    27   28    9 1
    28   29   18 1
    29   30   20 1
    30   31   21 1
    31   32   22 1
    32   33   25 1
    33   34   14 1
    34   35   17 1
    35   36   23 1
    36   37   15 1
    37   38   15 1
    38   39   12 1
    39   40   12 1
    40   41   12 1
    41   42   19 1
    42   43   19 1
    43   44   19 1
    44   45   24 1
    45   46   24 1
    46   47   24 1
    47   48   26 1
    48   49   26 1
    49   50   26 1
    50   51   27 1
    51   52   27 1
    52   53   27 1
    53   54    4 1
    54   55   16 1
    55   20   25 ar
@<TRIPOS>SUBSTRUCTURE
     1 RES1 1

@<TRIPOS>CRYSIN
   9.5369   10.9797   19.7388  90.0000  90.0000  90.0000  19 1

