# MOL2 file generated by ConQuest
# Please check atom types

@<TRIPOS>MOLECULE
GODKAM
    32    33     1
SMALL
NO_CHARGES
****
Generated from CSD

@<TRIPOS>ATOM
      1 O1         5.0222   -1.5596    1.1266 O.3       1 RES1    0.0000
      2 H1         4.9550   -2.0407    0.4670 H         1 RES1    0.0000
      3 N1         3.8575   -0.7650    1.2522 N.2       1 RES1    0.0000
      4 C1         2.7470    0.9368    2.5264 C.3       1 RES1    0.0000
      5 C2         1.4788    0.6844    1.6181 C.3       1 RES1    0.0000
      6 H2         1.5711   -0.1488    1.1504 H         1 RES1    0.0000
      7 C3         0.3441    0.5756    2.6286 C.3       1 RES1    0.0000
      8 H3        -0.5417    0.6693    2.2687 H         1 RES1    0.0000
      9 C4         0.4469   -0.7768    3.3263 C.3       1 RES1    0.0000
     10 H4        -0.3435   -0.9407    3.8454 H         1 RES1    0.0000
     11 H5         0.5486   -1.4704    2.6714 H         1 RES1    0.0000
     12 C5         1.6999   -0.6254    4.2053 C.3       1 RES1    0.0000
     13 H6         1.4679   -0.7821    5.1244 H         1 RES1    0.0000
     14 H7         2.3651   -1.2606    3.9311 H         1 RES1    0.0000
     15 C6         2.1343    0.8319    3.9347 C.3       1 RES1    0.0000
     16 H8         2.7038    1.1341    4.6466 H         1 RES1    0.0000
     17 C7         0.7933    1.5471    3.7280 C.3       1 RES1    0.0000
     18 H9         0.8363    2.4308    3.3570 H         1 RES1    0.0000
     19 H10        0.1685    1.5353    4.4560 H         1 RES1    0.0000
     20 C8         3.8646   -0.0774    2.3263 C.2       1 RES1    0.0000
     21 C9         4.9806   -0.1659    3.3193 C.3       1 RES1    0.0000
     22 H11        5.0981   -1.0797    3.5883 H         1 RES1    0.0000
     23 H12        4.7694    0.3697    4.0875 H         1 RES1    0.0000
     24 H13        5.7910    0.1560    2.9178 H         1 RES1    0.0000
     25 C10        3.3823    2.3174    2.3267 C.3       1 RES1    0.0000
     26 H14        4.1279    2.4157    2.9221 H         1 RES1    0.0000
     27 H15        2.7320    2.9985    2.5129 H         1 RES1    0.0000
     28 H16        3.6837    2.4019    1.4203 H         1 RES1    0.0000
     29 C11        1.2047    1.7372    0.5384 C.3       1 RES1    0.0000
     30 H17        0.3419    1.5779    0.1478 H         1 RES1    0.0000
     31 H18        1.8784    1.6802   -0.1414 H         1 RES1    0.0000
     32 H19        1.2210    2.6124    0.9319 H         1 RES1    0.0000
@<TRIPOS>BOND
     1    1    2 1
     2    3    1 1
     3    4    5 1
     4    5    6 1
     5    7    5 1
     6    8    7 1
     7    9    7 1
     8   10    9 1
     9   11    9 1
    10   12    9 1
    11   13   12 1
    12   14   12 1
    13   15    4 1
    14   16   15 1
    15   17    7 1
    16   18   17 1
    17   19   17 1
    18   20    3 2
    19   21   20 1
    20   22   21 1
    21   23   21 1
    22   24   21 1
    23   25    4 1
    24   26   25 1
    25   27   25 1
    26   28   25 1
    27   29    5 1
    28   30   29 1
    29   31   29 1
    30   32   29 1
    31    4   20 1
    32   12   15 1
    33   15   17 1
@<TRIPOS>SUBSTRUCTURE
     1 RES1 1

@<TRIPOS>CRYSIN
  15.4667    6.5555   21.5380  90.0000  95.9260  90.0000  15 1

