# MOL2 file generated by ConQuest
# Please check atom types

@<TRIPOS>MOLECULE
GODPAS
    77    79     2
SMALL
NO_CHARGES
****
Generated from CSD

@<TRIPOS>ATOM
      1 O1         1.0502   14.2491   20.3066 O.3       1 RES1    0.0000
      2 O2         0.7934   14.9108   23.1404 O.2       1 RES1    0.0000
      3 O3         4.3025   12.4555   24.2887 O.3       1 RES1    0.0000
      4 O4         4.2326   12.6948   22.0709 O.2       1 RES1    0.0000
      5 N1         2.5521   13.5549   23.4663 N.am      1 RES1    0.0000
      6 N2         1.0841   12.8407   19.8971 N.3       1 RES1    0.0000
      7 C1        -1.0415   12.3034   28.7850 C.ar      1 RES1    0.0000
      8 H1        -1.5352   12.2890   29.5973 H         1 RES1    0.0000
      9 C2        -0.4264   11.1608   28.3311 C.ar      1 RES1    0.0000
     10 H2        -0.4994   10.3553   28.8309 H         1 RES1    0.0000
     11 C3         0.3034   11.1743   27.1445 C.ar      1 RES1    0.0000
     12 H3         0.7373   10.3829   26.8491 H         1 RES1    0.0000
     13 C4         0.4027   12.3379   26.3893 C.ar      1 RES1    0.0000
     14 C5         1.1038   12.3373   25.0450 C.3       1 RES1    0.0000
     15 H4         0.4289   12.4973   24.3391 H         1 RES1    0.0000
     16 H5         1.4884   11.4380   24.8922 H         1 RES1    0.0000
     17 C6         2.2191   13.3763   24.8957 C.3       1 RES1    0.0000
     18 H6         1.9132   14.2489   25.2766 H         1 RES1    0.0000
     19 C7         1.7501   14.3491   22.6498 C.2       1 RES1    0.0000
     20 C8         2.1470   14.5409   21.1829 C.3       1 RES1    0.0000
     21 H7         2.9351   13.9676   20.9585 H         1 RES1    0.0000
     22 C9         2.4914   16.0213   20.9875 C.3       1 RES1    0.0000
     23 H8         2.6562   16.1978   20.0283 H         1 RES1    0.0000
     24 H9         1.7263   16.5798   21.2759 H         1 RES1    0.0000
     25 C10        3.7150   16.3932   21.7866 C.ar      1 RES1    0.0000
     26 C11        4.9566   15.8791   21.4215 C.ar      1 RES1    0.0000
     27 H10        5.0263   15.3289   20.6509 H         1 RES1    0.0000
     28 C12        6.0948   16.1596   22.1681 C.ar      1 RES1    0.0000
     29 H11        6.9338   15.7951   21.9134 H         1 RES1    0.0000
     30 C13        5.9989   16.9710   23.2825 C.ar      1 RES1    0.0000
     31 H12        6.7771   17.1757   23.7860 H         1 RES1    0.0000
     32 C14        0.1739   10.7330   18.1649 C.3       1 RES1    0.0000
     33 H13        0.1935    9.7788   17.9027 H         1 RES1    0.0000
     34 H14       -0.4461   11.2091   17.5580 H         1 RES1    0.0000
     35 C15       -0.3067   10.8658   19.6030 C.3       1 RES1    0.0000
     36 H15        0.2723   10.3140   20.1871 H         1 RES1    0.0000
     37 H16       -1.2277   10.5098   19.6687 H         1 RES1    0.0000
     38 C16       -0.2952   12.3126   20.1149 C.3       1 RES1    0.0000
     39 C17        3.7445   12.8942   23.1478 C.2       1 RES1    0.0000
     40 C18        3.6166   13.0306   25.4602 C.3       1 RES1    0.0000
     41 C19       -0.9374   13.4721   28.0551 C.ar      1 RES1    0.0000
     42 H17       -1.3556   14.2669   28.3646 H         1 RES1    0.0000
     43 C20       -0.2173   13.4837   26.8643 C.ar      1 RES1    0.0000
     44 H18       -0.1501   14.2903   26.3680 H         1 RES1    0.0000
     45 C21        3.6838   11.9797   26.5431 C.3       1 RES1    0.0000
     46 H19        4.6203   11.8201   26.7871 H         1 RES1    0.0000
     47 H20        3.2852   11.1470   26.2142 H         1 RES1    0.0000
     48 H21        3.1901   12.2904   27.3303 H         1 RES1    0.0000
     49 C22        4.3628   14.2961   25.8389 C.3       1 RES1    0.0000
     50 H22        4.3202   14.9344   25.0956 H         1 RES1    0.0000
     51 H23        5.2994   14.0793   26.0306 H         1 RES1    0.0000
     52 H24        3.9511   14.6930   26.6358 H         1 RES1    0.0000
     53 C23        4.7745   17.4841   23.6644 C.ar      1 RES1    0.0000
     54 H25        4.7097   18.0322   24.4383 H         1 RES1    0.0000
     55 C24        3.6387   17.1991   22.9184 C.ar      1 RES1    0.0000
     56 H26        2.7998   17.5577   23.1833 H         1 RES1    0.0000
     57 C25        1.6484   12.7907   18.5114 C.3       1 RES1    0.0000
     58 C26        1.5623   11.3267   18.0543 C.3       1 RES1    0.0000
     59 H27        1.8599   11.2684   17.1115 H         1 RES1    0.0000
     60 H28        2.1855   10.7843   18.5997 H         1 RES1    0.0000
     61 C27        3.1327   13.1417   18.5918 C.3       1 RES1    0.0000
     62 H29        3.5436   12.6559   19.3363 H         1 RES1    0.0000
     63 H30        3.2328   14.1055   18.7361 H         1 RES1    0.0000
     64 H31        3.5739   12.8890   17.7539 H         1 RES1    0.0000
     65 C28        0.9972   13.7219   17.4863 C.3       1 RES1    0.0000
     66 H32        0.8603   14.6048   17.8879 H         1 RES1    0.0000
     67 H33        0.1329   13.3510   17.2107 H         1 RES1    0.0000
     68 H34        1.5811   13.8062   16.7048 H         1 RES1    0.0000
     69 C29       -0.5273   12.2766   21.6269 C.3       1 RES1    0.0000
     70 H35       -0.6356   13.1911   21.9630 H         1 RES1    0.0000
     71 H36        0.2411   11.8559   22.0647 H         1 RES1    0.0000
     72 H37       -1.3376   11.7594   21.8216 H         1 RES1    0.0000
     73 C30       -1.4245   13.1309   19.4772 C.3       1 RES1    0.0000
     74 H38       -1.4794   12.9221   18.5203 H         1 RES1    0.0000
     75 H39       -1.2408   14.0862   19.5918 H         1 RES1    0.0000
     76 H40       -2.2749   12.9069   19.9093 H         1 RES1    0.0000
     77 H41        1.7074   12.3511   20.5070 Du        2 SUP2    0.0000
@<TRIPOS>BOND
     1    1    6 1
     2    2   19 2
     3    3   39 1
     4    4   39 2
     5    5   17 1
     6    6   38 1
     7    7    8 1
     8    9    7 ar
     9   10    9 1
    10   11    9 ar
    11   12   11 1
    12   13   11 ar
    13   14   13 1
    14   15   14 1
    15   16   14 1
    16   17   14 1
    17   18   17 1
    18   19    5 1
    19   20    1 1
    20   21   20 1
    21   22   20 1
    22   23   22 1
    23   24   22 1
    24   25   22 1
    25   26   25 ar
    26   27   26 1
    27   28   26 ar
    28   29   28 1
    29   30   28 ar
    30   31   30 1
    31   32   33 1
    32   34   32 1
    33   35   32 1
    34   36   35 1
    35   37   35 1
    36   38   35 1
    37   39    5 1
    38   40    3 1
    39   41    7 ar
    40   42   41 1
    41   43   13 ar
    42   44   43 1
    43   45   40 1
    44   46   45 1
    45   47   45 1
    46   48   45 1
    47   49   40 1
    48   50   49 1
    49   51   49 1
    50   52   49 1
    51   53   30 ar
    52   54   53 1
    53   55   25 ar
    54   56   55 1
    55   57    6 1
    56   58   32 1
    57   59   58 1
    58   60   58 1
    59   61   57 1
    60   62   61 1
    61   63   61 1
    62   64   61 1
    63   65   57 1
    64   66   65 1
    65   67   65 1
    66   68   65 1
    67   69   38 1
    68   70   69 1
    69   71   69 1
    70   72   69 1
    71   73   38 1
    72   74   73 1
    73   75   73 1
    74   76   73 1
    75   17   40 1
    76   19   20 1
    77   41   43 ar
    78   53   55 ar
    79   57   58 1
@<TRIPOS>SUBSTRUCTURE
     1 RES1 1
     2 SUP2 77

@<TRIPOS>CRYSIN
   8.2008   13.7924   24.8029  90.0000  90.0000  90.0000  19 1

