# MOL2 file generated by ConQuest
# Please check atom types

@<TRIPOS>MOLECULE
GODXAY
    50    53     1
SMALL
NO_CHARGES
****
Generated from CSD

@<TRIPOS>ATOM
      1 O1         4.3146    3.1670    9.5721 O.3       1 RES1    0.0000
      2 O2         1.5265    3.7154    7.9493 O.3       1 RES1    0.0000
      3 O3         4.5714   -2.6511    3.6735 O.2       1 RES1    0.0000
      4 O4         3.7137   -1.2829    2.2661 O.2       1 RES1    0.0000
      5 O5         8.1884    6.5079    3.3538 O.2       1 RES1    0.0000
      6 O6         6.9958    8.2641    3.6927 O.2       1 RES1    0.0000
      7 O7         2.7173    2.1365   10.7701 O.2       1 RES1    0.0000
      8 O8         1.6518    5.0989    9.7159 O.2       1 RES1    0.0000
      9 N1         4.1385   -1.5545    3.3751 N.pl3     1 RES1    0.0000
     10 N2         7.2391    7.0914    3.8616 N.pl3     1 RES1    0.0000
     11 C1         4.2841    2.1575    8.6023 C.ar      1 RES1    0.0000
     12 C2         4.6628    0.8478    8.9680 C.ar      1 RES1    0.0000
     13 C3         4.7281   -0.1183    8.0152 C.ar      1 RES1    0.0000
     14 C4         4.3981    0.1781    6.6685 C.ar      1 RES1    0.0000
     15 C5         4.4109   -0.8291    5.6825 C.ar      1 RES1    0.0000
     16 C6         4.1120   -0.4937    4.3910 C.ar      1 RES1    0.0000
     17 C7         3.7970    0.8122    3.9976 C.ar      1 RES1    0.0000
     18 C8         3.7705    1.7929    4.9382 C.ar      1 RES1    0.0000
     19 C9         4.0612    1.5134    6.3045 C.ar      1 RES1    0.0000
     20 C10        4.0054    2.5264    7.3111 C.ar      1 RES1    0.0000
     21 C11        3.6820    3.9384    6.9518 C.ar      1 RES1    0.0000
     22 C12        4.6061    4.7337    6.2105 C.ar      1 RES1    0.0000
     23 C13        5.8950    4.2572    5.8561 C.ar      1 RES1    0.0000
     24 C14        6.7506    5.0301    5.1113 C.ar      1 RES1    0.0000
     25 C15        6.3328    6.2952    4.7083 C.ar      1 RES1    0.0000
     26 C16        5.1227    6.8209    5.0346 C.ar      1 RES1    0.0000
     27 C17        4.2301    6.0460    5.8094 C.ar      1 RES1    0.0000
     28 C18        2.9625    6.5583    6.1813 C.ar      1 RES1    0.0000
     29 C19        2.1128    5.8053    6.9222 C.ar      1 RES1    0.0000
     30 C20        2.4810    4.5000    7.2873 C.ar      1 RES1    0.0000
     31 C21        3.5375    3.0000   10.6864 C.2       1 RES1    0.0000
     32 C22        3.8630    4.0331   11.7072 C.3       1 RES1    0.0000
     33 C23        1.1096    4.1893    9.1700 C.2       1 RES1    0.0000
     34 C24       -0.0575    3.4240    9.6788 C.3       1 RES1    0.0000
     35 H1         4.9249    0.6645    9.8070 H         1 RES1    0.0000
     36 H2         5.0158   -1.0025    8.2922 H         1 RES1    0.0000
     37 H3         4.6256   -1.7020    5.9327 H         1 RES1    0.0000
     38 H4         3.5560    1.0025    3.0780 H         1 RES1    0.0000
     39 H5         3.5292    2.7103    4.7093 H         1 RES1    0.0000
     40 H6         6.1722    3.3981    6.1658 H         1 RES1    0.0000
     41 H7         7.5471    4.7212    4.8841 H         1 RES1    0.0000
     42 H8         4.9597    7.7579    4.7287 H         1 RES1    0.0000
     43 H9         2.7283    7.4519    5.8745 H         1 RES1    0.0000
     44 H10        1.2885    6.0996    7.2339 H         1 RES1    0.0000
     45 H11        3.2918    4.1092   12.4286 H         1 RES1    0.0000
     46 H12        3.7384    4.9019   11.2732 H         1 RES1    0.0000
     47 H13        4.7495    4.2228   11.7587 H         1 RES1    0.0000
     48 H14       -0.4032    3.7216   10.5546 H         1 RES1    0.0000
     49 H15        0.1060    2.6141    9.8070 H         1 RES1    0.0000
     50 H16       -0.7837    3.4068    9.0302 H         1 RES1    0.0000
@<TRIPOS>BOND
     1    1   11 1
     2    2   30 1
     3    3    9 2
     4    4    9 2
     5    5   10 2
     6    6   10 2
     7    7   31 2
     8    8   33 2
     9    9   16 1
    10   10   25 1
    11   11   12 ar
    12   12   13 ar
    13   13   14 ar
    14   14   15 ar
    15   15   16 ar
    16   16   17 ar
    17   17   18 ar
    18   18   19 ar
    19   19   14 ar
    20   20   11 ar
    21   21   20 1
    22   22   21 ar
    23   23   22 ar
    24   24   23 ar
    25   25   24 ar
    26   26   25 ar
    27   27   22 ar
    28   28   27 ar
    29   29   28 ar
    30   30   21 ar
    31   31    1 1
    32   32   31 1
    33   33    2 1
    34   34   33 1
    35   35   12 1
    36   36   13 1
    37   37   15 1
    38   38   17 1
    39   39   18 1
    40   40   23 1
    41   41   24 1
    42   42   26 1
    43   43   28 1
    44   44   29 1
    45   45   32 1
    46   46   32 1
    47   47   32 1
    48   48   34 1
    49   49   34 1
    50   50   34 1
    51   19   20 ar
    52   26   27 ar
    53   29   30 ar
@<TRIPOS>SUBSTRUCTURE
     1 RES1 1

