# MOL2 file generated by ConQuest
# Please check atom types

@<TRIPOS>MOLECULE
GOFNIA
    52    56     1
SMALL
NO_CHARGES
****
Generated from CSD

@<TRIPOS>ATOM
      1 N1         3.8678    0.6178    1.6955 N.ar      1 RES1    0.0000
      2 N2         1.5812    1.8711    2.7603 N.ar      1 RES1    0.0000
      3 N3         4.2326    0.5580   -1.1244 N.am      1 RES1    0.0000
      4 N4         2.0019    0.1956   -1.2237 N.2       1 RES1    0.0000
      5 N5         3.7614    3.6596   -1.1238 N.pl3     1 RES1    0.0000
      6 O1         4.1328    3.1739   -2.1912 O.2       1 RES1    0.0000
      7 O2         2.7295    4.3003   -0.9724 O.2       1 RES1    0.0000
      8 C1         4.8800    0.6193    3.8682 C.ar      1 RES1    0.0000
      9 H1         5.6532    0.1986    3.5083 H         1 RES1    0.0000
     10 C2         1.6702    1.6150    1.4667 C.ar      1 RES1    0.0000
     11 C3         2.9756    0.6400   -0.4831 C.2       1 RES1    0.0000
     12 C4         2.5999    1.8187    4.9358 C.ar      1 RES1    0.0000
     13 H2         1.8213    2.2158    5.3081 H         1 RES1    0.0000
     14 C5         3.7876    0.9153    3.0180 C.ar      1 RES1    0.0000
     15 C6         2.8402    0.9802    0.9430 C.ar      1 RES1    0.0000
     16 C7         4.8393    0.9300    5.2014 C.ar      1 RES1    0.0000
     17 C8         4.6343    3.4706    0.0373 C.ar      1 RES1    0.0000
     18 C9         3.6620    1.5316    5.7531 C.ar      1 RES1    0.0000
     19 C10        5.4571    1.1972   -0.8262 C.2       1 RES1    0.0000
     20 C11        6.3687    2.3007    1.1762 C.ar      1 RES1    0.0000
     21 H3         6.9770    1.5729    1.2376 H         1 RES1    0.0000
     22 C12        6.0159    0.6400    6.0946 C.3       1 RES1    0.0000
     23 H4         6.7479    0.2687    5.5604 H         1 RES1    0.0000
     24 H5         5.7520   -0.0074    6.7821 H         1 RES1    0.0000
     25 H6         6.3126    1.4696    6.5239 H         1 RES1    0.0000
     26 C13        5.4670    2.3598    0.1174 C.ar      1 RES1    0.0000
     27 C14        3.9764   -0.0362   -2.3757 C.ar      1 RES1    0.0000
     28 C15        0.5196    2.0232    0.6041 C.3       1 RES1    0.0000
     29 H7         0.0069    1.2297    0.3457 H         1 RES1    0.0000
     30 H8         0.8568    2.4697   -0.2006 H         1 RES1    0.0000
     31 H9        -0.0584    2.6388    1.1006 H         1 RES1    0.0000
     32 C16        6.3865    3.2972    2.1419 C.ar      1 RES1    0.0000
     33 H10        7.0068    3.2485    2.8587 H         1 RES1    0.0000
     34 C17        3.5981    1.8320    7.2233 C.3       1 RES1    0.0000
     35 H11        2.7383    2.2513    7.4337 H         1 RES1    0.0000
     36 H12        4.3260    2.4417    7.4635 H         1 RES1    0.0000
     37 H13        3.6879    0.9987    7.7317 H         1 RES1    0.0000
     38 C18        2.8072   -1.1323   -4.5905 C.ar      1 RES1    0.0000
     39 H14        2.4230   -1.5168   -5.3697 H         1 RES1    0.0000
     40 C19        2.5946   -0.2229   -2.4107 C.ar      1 RES1    0.0000
     41 C20        4.6276    4.4678    0.9943 C.ar      1 RES1    0.0000
     42 H15        4.0364    5.2082    0.9218 H         1 RES1    0.0000
     43 C21        5.5064    4.3616    2.0656 C.ar      1 RES1    0.0000
     44 H16        5.5035    5.0222    2.7474 H         1 RES1    0.0000
     45 C22        4.8037   -0.3897   -3.4260 C.ar      1 RES1    0.0000
     46 H17        5.7451   -0.2628   -3.3871 H         1 RES1    0.0000
     47 C23        1.9837   -0.7795   -3.5355 C.ar      1 RES1    0.0000
     48 H18        1.0435   -0.9101   -3.5758 H         1 RES1    0.0000
     49 C24        4.1871   -0.9382   -4.5371 C.ar      1 RES1    0.0000
     50 H19        4.7191   -1.1898   -5.2843 H         1 RES1    0.0000
     51 C25        2.6393    1.5368    3.5520 C.ar      1 RES1    0.0000
     52 O3         6.4747    0.7972   -1.3342 O.2       1 RES1    0.0000
@<TRIPOS>BOND
     1    1   14 ar
     2    2   10 ar
     3    3   11 1
     4    4   11 2
     5    5    6 2
     6    7    5 2
     7    8    9 1
     8   10   15 ar
     9   11   15 1
    10   12   13 1
    11   14    8 ar
    12   15    1 ar
    13   16    8 ar
    14   17    5 1
    15   18   12 ar
    16   19    3 1
    17   20   21 1
    18   22   16 1
    19   23   22 1
    20   24   22 1
    21   25   22 1
    22   26   17 ar
    23   27    3 1
    24   28   10 1
    25   29   28 1
    26   30   28 1
    27   31   28 1
    28   32   20 ar
    29   33   32 1
    30   34   18 1
    31   35   34 1
    32   36   34 1
    33   37   34 1
    34   38   39 1
    35   40    4 1
    36   41   17 ar
    37   42   41 1
    38   43   32 ar
    39   44   43 1
    40   45   27 ar
    41   46   45 1
    42   47   38 ar
    43   48   47 1
    44   49   38 ar
    45   50   49 1
    46   51    2 ar
    47   52   19 2
    48   12   51 ar
    49   14   51 ar
    50   16   18 ar
    51   19   26 1
    52   20   26 ar
    53   27   40 ar
    54   40   47 ar
    55   41   43 ar
    56   45   49 ar
@<TRIPOS>SUBSTRUCTURE
     1 RES1 1

@<TRIPOS>CRYSIN
  13.9592    7.3812   20.3160  90.0000 102.0870  90.0000 231 1

