# MOL2 file generated by ConQuest
# Please check atom types

@<TRIPOS>MOLECULE
GOGYEH
    82    86     2
SMALL
NO_CHARGES
****
Generated from CSD

@<TRIPOS>ATOM
      1 O1         0.8065    4.0046   11.7714 O.3       1 RES1    0.0000
      2 O2         1.9440    2.3318    9.2826 O.2       1 RES1    0.0000
      3 O3        -0.2329    2.8754    9.0884 O.3       1 RES1    0.0000
      4 C1        -0.1009    3.0074   12.2591 C.3       1 RES1    0.0000
      5 H1        -0.9849    3.0896   11.7973 H         1 RES1    0.0000
      6 C2         0.4969    1.6147   12.0130 C.3       1 RES1    0.0000
      7 H2         1.4796    1.6576   12.1922 H         1 RES1    0.0000
      8 C3        -0.1628    0.7353   13.1034 C.3       1 RES1    0.0000
      9 H3        -1.0284    0.3654   12.7938 H         1 RES1    0.0000
     10 H4         0.4311   -0.0077   13.3771 H         1 RES1    0.0000
     11 C4        -0.3576    1.7303   14.2321 C.ar      1 RES1    0.0000
     12 C5        -0.5682    1.4925   15.5801 C.ar      1 RES1    0.0000
     13 H5        -0.6279    0.6032   15.9110 H         1 RES1    0.0000
     14 C6        -0.6899    2.5756   16.4378 C.ar      1 RES1    0.0000
     15 H6        -0.8389    2.4248   17.3632 H         1 RES1    0.0000
     16 C7        -0.5962    3.8744   15.9641 C.ar      1 RES1    0.0000
     17 H7        -0.6583    4.6053   16.5672 H         1 RES1    0.0000
     18 C8        -0.4124    4.1122   14.6036 C.ar      1 RES1    0.0000
     19 H8        -0.3724    4.9993   14.2673 H         1 RES1    0.0000
     20 C9        -0.2902    3.0324   13.7590 C.ar      1 RES1    0.0000
     21 C10        0.2974    5.1986   11.3197 C.ar      1 RES1    0.0000
     22 C11       -1.0327    5.5849   11.4050 C.ar      1 RES1    0.0000
     23 H9        -1.6704    5.0213   11.8276 H         1 RES1    0.0000
     24 C12       -1.4205    6.7979   10.8697 C.ar      1 RES1    0.0000
     25 H10       -2.3360    7.0510   10.9071 H         1 RES1    0.0000
     26 C13       -0.5091    7.6498   10.2812 C.ar      1 RES1    0.0000
     27 H11       -0.7856    8.4907    9.9349 H         1 RES1    0.0000
     28 C14        0.8163    7.2579   10.2034 C.ar      1 RES1    0.0000
     29 H12        1.4526    7.8303    9.7921 H         1 RES1    0.0000
     30 C15        1.2212    6.0494   10.7163 C.ar      1 RES1    0.0000
     31 H13        2.1343    5.7929   10.6579 H         1 RES1    0.0000
     32 C16        0.2930    1.1568   10.5862 C.3       1 RES1    0.0000
     33 H14       -0.6811    0.9895   10.4331 H         1 RES1    0.0000
     34 C17        0.7901    2.1805    9.5569 C.2       1 RES1    0.0000
     35 C18        0.1070    3.9163    8.1159 C.3       1 RES1    0.0000
     36 H15        0.8051    4.4952    8.4887 H         1 RES1    0.0000
     37 H16       -0.6899    4.4512    7.9175 H         1 RES1    0.0000
     38 H17        0.4337    3.4991    7.2916 H         1 RES1    0.0000
     39 O4         1.7475   -0.6309   11.1459 O.2       1 RES1    0.0000
     40 O5         0.9349   -0.5496    9.1288 O.2       1 RES1    0.0000
     41 N1         1.0679   -0.1167   10.2703 N.pl3     1 RES1    0.0000
     42 O6         2.3250    9.0582    2.6374 O.3       2 RES2    0.0000
     43 O7         1.8075    5.6766    3.3581 O.2       2 RES2    0.0000
     44 O8         3.9125    6.3810    3.0148 O.3       2 RES2    0.0000
     45 C19        3.0977    9.2535    3.8099 C.3       2 RES2    0.0000
     46 H18        4.0355    8.9387    3.6640 H         2 RES2    0.0000
     47 C20        2.4395    8.4599    4.9629 C.3       2 RES2    0.0000
     48 H19        1.4502    8.4478    4.8155 H         2 RES2    0.0000
     49 C21        2.7353    9.2733    6.2252 C.3       2 RES2    0.0000
     50 H20        1.9829    9.2216    6.8663 H         2 RES2    0.0000
     51 H21        3.5611    8.9552    6.6688 H         2 RES2    0.0000
     52 C22        2.9078   10.6778    5.7005 C.ar      2 RES2    0.0000
     53 C23        2.9148   11.8786    6.4030 C.ar      2 RES2    0.0000
     54 H22        2.7777   11.8897    7.3433 H         2 RES2    0.0000
     55 C24        3.1272   13.0652    5.7021 C.ar      2 RES2    0.0000
     56 H23        3.1510   13.8929    6.1675 H         2 RES2    0.0000
     57 C25        3.3033   13.0432    4.3321 C.ar      2 RES2    0.0000
     58 H24        3.4333   13.8588    3.8646 H         2 RES2    0.0000
     59 C26        3.2920   11.8500    3.6337 C.ar      2 RES2    0.0000
     60 H25        3.4157   11.8390    2.6918 H         2 RES2    0.0000
     61 C27        3.0954   10.6712    4.3331 C.ar      2 RES2    0.0000
     62 C28        2.9358    9.0025    1.3830 C.ar      2 RES2    0.0000
     63 C29        4.2775    9.2953    1.1642 C.ar      2 RES2    0.0000
     64 H26        4.8464    9.5738    1.8715 H         2 RES2    0.0000
     65 C30        4.7532    9.1621   -0.1410 C.ar      2 RES2    0.0000
     66 H27        5.6691    9.3427   -0.3160 H         2 RES2    0.0000
     67 C31        3.9503    8.7802   -1.1773 C.ar      2 RES2    0.0000
     68 H28        4.3064    8.6910   -2.0538 H         2 RES2    0.0000
     69 C32        2.6009    8.5237   -0.9330 C.ar      2 RES2    0.0000
     70 H29        2.0206    8.2805   -1.6437 H         2 RES2    0.0000
     71 C33        2.1177    8.6305    0.3612 C.ar      2 RES2    0.0000
     72 H30        1.2035    8.4401    0.5378 H         2 RES2    0.0000
     73 C34        2.9376    7.0224    5.0239 C.3       2 RES2    0.0000
     74 H31        3.9053    7.0257    5.2743 H         2 RES2    0.0000
     75 C35        2.7725    6.2750    3.6987 C.2       2 RES2    0.0000
     76 C36        3.9803    5.7148    1.7257 C.3       2 RES2    0.0000
     77 H32        3.6799    4.7869    1.8199 H         2 RES2    0.0000
     78 H33        4.9049    5.7269    1.4006 H         2 RES2    0.0000
     79 H34        3.4027    6.1815    1.0846 H         2 RES2    0.0000
     80 O9         2.7689    5.3146    6.5895 O.2       2 RES2    0.0000
     81 O10        1.0029    6.4726    6.2529 O.2       2 RES2    0.0000
     82 N2         2.1740    6.2134    6.0472 N.pl3     2 RES2    0.0000
@<TRIPOS>BOND
     1    1    4 1
     2    2   34 2
     3    3   34 1
     4    4    5 1
     5    6    4 1
     6    7    6 1
     7    8    6 1
     8    9    8 1
     9   10    8 1
    10   11    8 1
    11   12   11 ar
    12   13   12 1
    13   14   12 ar
    14   15   14 1
    15   16   14 ar
    16   17   16 1
    17   18   16 ar
    18   19   18 1
    19   20    4 1
    20   21    1 1
    21   22   21 ar
    22   23   22 1
    23   24   22 ar
    24   25   24 1
    25   26   24 ar
    26   27   26 1
    27   28   26 ar
    28   29   28 1
    29   30   21 ar
    30   31   30 1
    31   32    6 1
    32   33   32 1
    33   34   32 1
    34   35    3 1
    35   36   35 1
    36   37   35 1
    37   38   35 1
    38   39   41 2
    39   40   41 2
    40   41   32 1
    41   42   45 1
    42   43   75 2
    43   44   75 1
    44   45   46 1
    45   47   45 1
    46   48   47 1
    47   49   47 1
    48   50   49 1
    49   51   49 1
    50   52   49 1
    51   53   52 ar
    52   54   53 1
    53   55   53 ar
    54   56   55 1
    55   57   55 ar
    56   58   57 1
    57   59   57 ar
    58   60   59 1
    59   61   45 1
    60   62   42 1
    61   63   62 ar
    62   64   63 1
    63   65   63 ar
    64   66   65 1
    65   67   65 ar
    66   68   67 1
    67   69   67 ar
    68   70   69 1
    69   71   62 ar
    70   72   71 1
    71   73   47 1
    72   74   73 1
    73   75   73 1
    74   76   44 1
    75   77   76 1
    76   78   76 1
    77   79   76 1
    78   80   82 2
    79   81   82 2
    80   82   73 1
    81   11   20 ar
    82   18   20 ar
    83   28   30 ar
    84   52   61 ar
    85   59   61 ar
    86   69   71 ar
@<TRIPOS>SUBSTRUCTURE
     1 RES1 1
     2 RES2 42

@<TRIPOS>CRYSIN
   9.7146   11.0069   30.5850  90.0000  96.6080  90.0000  14 1

