# MOL2 file generated by ConQuest
# Please check atom types

@<TRIPOS>MOLECULE
GOGYAC
    59    63     1
SMALL
USER_CHARGES
****
Generated from CSD

@<TRIPOS>ATOM
      1 O1         1.1167    9.0360    4.1175 O.3       1 RES1    0.0000
      2 H1         1.0951    8.0781    3.8202 H         1 RES1    0.0000
      3 C1        -1.1574    6.1466    1.9415 C.3       1 RES1    0.0000
      4 H2        -0.5182    6.2546    1.1933 H         1 RES1    0.0000
      5 C2        -0.2765    9.2348    4.2840 C.3       1 RES1    0.0000
      6 O2         0.7337    6.7512    3.2169 O.2       1 RES1   -1.0000
      7 N1        -0.6547    6.9112    3.1682 N.4       1 RES1    1.0000
      8 C3        -1.0335    8.4086    3.1686 C.3       1 RES1    0.0000
      9 H3        -2.0029    8.4684    3.3609 H         1 RES1    0.0000
     10 C4        -0.8019    9.0325    1.8022 C.ar      1 RES1    0.0000
     11 C5        -1.2340    6.1248    4.3167 C.3       1 RES1    0.0000
     12 H4        -2.1980    6.2785    4.4019 H         1 RES1    0.0000
     13 H5        -0.7947    6.3521    5.1616 H         1 RES1    0.0000
     14 C6        -0.9353    4.6864    3.9059 C.3       1 RES1    0.0000
     15 H6        -0.0060    4.4518    4.1100 H         1 RES1    0.0000
     16 H7        -1.5302    4.0599    4.3697 H         1 RES1    0.0000
     17 C7        -1.8150    9.8224    1.2699 C.ar      1 RES1    0.0000
     18 H8        -2.6373    9.8953    1.7191 H         1 RES1    0.0000
     19 C8        -1.6158   10.5057    0.0738 C.ar      1 RES1    0.0000
     20 H9        -2.3028   11.0406   -0.2812 H         1 RES1    0.0000
     21 C9        -1.1849    4.6596    2.4022 C.3       1 RES1    0.0000
     22 H10       -0.4781    4.1414    1.9423 H         1 RES1    0.0000
     23 C10       -2.5804    4.1590    1.9822 C.3       1 RES1    0.0000
     24 H11       -2.5278    3.2504    1.6204 H         1 RES1    0.0000
     25 H12       -3.1926    4.1590    2.7471 H         1 RES1    0.0000
     26 C11       -0.4129   10.4006   -0.5943 C.ar      1 RES1    0.0000
     27 H13       -0.2777   10.8711   -1.3972 H         1 RES1    0.0000
     28 C12        0.5877    9.6074   -0.0865 C.ar      1 RES1    0.0000
     29 H14        1.4009    9.5226   -0.5494 H         1 RES1    0.0000
     30 C13       -3.0508    5.1335    0.9199 C.3       1 RES1    0.0000
     31 H15       -4.0262    5.1172    0.8284 H         1 RES1    0.0000
     32 H16       -2.6427    4.9365    0.0515 H         1 RES1    0.0000
     33 C14        0.3944    8.9290    1.1177 C.ar      1 RES1    0.0000
     34 H17        1.0856    8.3965    1.4680 H         1 RES1    0.0000
     35 C15       -2.5703    6.4684    1.4665 C.3       1 RES1    0.0000
     36 H18       -3.1340    6.7712    2.2084 H         1 RES1    0.0000
     37 H19       -2.5625    7.1551    0.7683 H         1 RES1    0.0000
     38 C16       -0.5948   10.7223    4.0359 C.ar      1 RES1    0.0000
     39 C17       -1.8384   11.2540    4.3431 C.ar      1 RES1    0.0000
     40 H20       -2.5068   10.6999    4.7045 H         1 RES1    0.0000
     41 C18       -2.1023   12.6035    4.1196 C.ar      1 RES1    0.0000
     42 H21       -2.9515   12.9522    4.3224 H         1 RES1    0.0000
     43 C19       -1.1304   13.4315    3.6054 C.ar      1 RES1    0.0000
     44 H22       -1.3064   14.3455    3.4704 H         1 RES1    0.0000
     45 C20        0.1035   12.9068    3.2908 C.ar      1 RES1    0.0000
     46 H23        0.7684   13.4657    2.9317 H         1 RES1    0.0000
     47 C21        0.3776   11.5554    3.4992 C.ar      1 RES1    0.0000
     48 H24        1.2220   11.2086    3.2751 H         1 RES1    0.0000
     49 C22       -0.6852    8.9351    5.7497 C.ar      1 RES1    0.0000
     50 C23       -1.9575    8.5787    6.1489 C.ar      1 RES1    0.0000
     51 H25       -2.6343    8.4604    5.5071 H         1 RES1    0.0000
     52 C24       -2.2417    8.3937    7.5044 C.ar      1 RES1    0.0000
     53 H26       -3.1070    8.1325    7.7650 H         1 RES1    0.0000
     54 C25       -1.2806    8.5867    8.4610 C.ar      1 RES1    0.0000
     55 H27       -1.4805    8.4524    9.3703 H         1 RES1    0.0000
     56 C26       -0.0197    8.9784    8.0770 C.ar      1 RES1    0.0000
     57 H28        0.6403    9.1371    8.7264 H         1 RES1    0.0000
     58 C27        0.2831    9.1417    6.7268 C.ar      1 RES1    0.0000
     59 H29        1.1520    9.3946    6.4729 H         1 RES1    0.0000
@<TRIPOS>BOND
     1    1    2 1
     2    3    4 1
     3    5    1 1
     4    6    7 1
     5    7    3 1
     6    8    5 1
     7    9    8 1
     8   10    8 1
     9   11    7 1
    10   12   11 1
    11   13   11 1
    12   14   11 1
    13   15   14 1
    14   16   14 1
    15   17   10 ar
    16   18   17 1
    17   19   17 ar
    18   20   19 1
    19   21    3 1
    20   22   21 1
    21   23   21 1
    22   24   23 1
    23   25   23 1
    24   26   19 ar
    25   27   26 1
    26   28   26 ar
    27   29   28 1
    28   30   23 1
    29   31   30 1
    30   32   30 1
    31   33   10 ar
    32   34   33 1
    33   35    3 1
    34   36   35 1
    35   37   35 1
    36   38    5 1
    37   39   38 ar
    38   40   39 1
    39   41   39 ar
    40   42   41 1
    41   43   41 ar
    42   44   43 1
    43   45   43 ar
    44   46   45 1
    45   47   38 ar
    46   48   47 1
    47   49    5 1
    48   50   49 ar
    49   51   50 1
    50   52   50 ar
    51   53   52 1
    52   54   52 ar
    53   55   54 1
    54   56   54 ar
    55   57   56 1
    56   58   49 ar
    57   59   58 1
    58    7    8 1
    59   14   21 1
    60   28   33 ar
    61   30   35 1
    62   45   47 ar
    63   56   58 ar
@<TRIPOS>SUBSTRUCTURE
     1 RES1 1

@<TRIPOS>CRYSIN
   5.9843   15.9963   21.4620  90.0000  90.0000  90.0000  19 1

