# MOL2 file generated by ConQuest
# Please check atom types

@<TRIPOS>MOLECULE
GOGZEJ
    43    46     1
SMALL
NO_CHARGES
****
Generated from CSD

@<TRIPOS>ATOM
      1 N1         4.1684    3.3618    8.0555 N.ar      1 RES1    0.0000
      2 C1         5.2774    2.6402    8.0075 C.ar      1 RES1    0.0000
      3 N2         5.5621    1.5409    7.2957 N.ar      1 RES1    0.0000
      4 C2         4.5786    1.1330    6.4565 C.ar      1 RES1    0.0000
      5 C3         3.3587    1.8432    6.3440 C.ar      1 RES1    0.0000
      6 C4         3.1754    2.9791    7.2299 C.ar      1 RES1    0.0000
      7 O1         6.3122    3.0006    8.7768 O.3       1 RES1    0.0000
      8 C5         6.1301    4.1889    9.6106 C.3       1 RES1    0.0000
      9 H1         6.0218    4.9766    9.0374 H         1 RES1    0.0000
     10 H2         6.9145    4.3081   10.1852 H         1 RES1    0.0000
     11 H3         5.3318    4.0776   10.1674 H         1 RES1    0.0000
     12 N3         4.8255    0.0424    5.7296 N.3       1 RES1    0.0000
     13 H4         5.5338   -0.5026    6.0204 H         1 RES1    0.0000
     14 H5         4.0728   -0.1580    5.2798 H         1 RES1    0.0000
     15 N4         2.4472    1.3118    5.4992 N.2       1 RES1    0.0000
     16 O2         1.3254    1.8898    5.3648 O.2       1 RES1    0.0000
     17 N5         2.0212    3.6389    7.2135 N.3       1 RES1    0.0000
     18 H6         1.3580    3.2095    6.4729 H         1 RES1    0.0000
     19 C6         1.6041    4.7066    8.1556 C.3       1 RES1    0.0000
     20 C7         1.5283    4.1487    9.5914 C.3       1 RES1    0.0000
     21 H7         0.9062    3.3783    9.6161 H         1 RES1    0.0000
     22 H8         2.4234    3.8328    9.8726 H         1 RES1    0.0000
     23 C8         1.0407    5.2329   10.5486 C.3       1 RES1    0.0000
     24 H9         1.0151    4.8732   11.4812 H         1 RES1    0.0000
     25 C9        -0.3590    5.6961   10.1317 C.3       1 RES1    0.0000
     26 H10       -0.6773    6.3997   10.7516 H         1 RES1    0.0000
     27 H11       -0.9903    4.9342   10.1784 H         1 RES1    0.0000
     28 C10       -0.3179    6.2468    8.7000 C.3       1 RES1    0.0000
     29 H12       -1.2361    6.5311    8.4244 H         1 RES1    0.0000
     30 C11        0.1892    5.1618    7.7510 C.3       1 RES1    0.0000
     31 H13        0.2078    5.5130    6.8254 H         1 RES1    0.0000
     32 H14       -0.4268    4.3871    7.7743 H         1 RES1    0.0000
     33 C12        2.5290    5.9237    8.0898 C.3       1 RES1    0.0000
     34 H15        2.5396    6.2841    7.1682 H         1 RES1    0.0000
     35 H16        3.4514    5.6530    8.3270 H         1 RES1    0.0000
     36 C13        2.0438    7.0057    9.0607 C.3       1 RES1    0.0000
     37 H17        2.6655    7.7869    9.0292 H         1 RES1    0.0000
     38 C14        2.0150    6.4292   10.4801 C.3       1 RES1    0.0000
     39 H18        1.7268    7.1299   11.1164 H         1 RES1    0.0000
     40 H19        2.9242    6.1340   10.7365 H         1 RES1    0.0000
     41 C15        0.6274    7.4581    8.6657 C.3       1 RES1    0.0000
     42 H20        0.3092    8.1524    9.2952 H         1 RES1    0.0000
     43 H21        0.6423    7.8472    7.7551 H         1 RES1    0.0000
@<TRIPOS>BOND
     1    1    2 ar
     2    2    3 ar
     3    3    4 ar
     4    4    5 ar
     5    5    6 ar
     6    6    1 ar
     7    7    2 1
     8    8    7 1
     9    9    8 1
    10   10    8 1
    11   11    8 1
    12   12    4 1
    13   13   12 1
    14   14   12 1
    15   15    5 1
    16   16   15 2
    17   17    6 1
    18   18   17 1
    19   19   17 1
    20   20   19 1
    21   21   20 1
    22   22   20 1
    23   23   20 1
    24   24   23 1
    25   25   23 1
    26   26   25 1
    27   27   25 1
    28   28   25 1
    29   29   28 1
    30   30   19 1
    31   31   30 1
    32   32   30 1
    33   33   19 1
    34   34   33 1
    35   35   33 1
    36   36   33 1
    37   37   36 1
    38   38   23 1
    39   39   38 1
    40   40   38 1
    41   41   28 1
    42   42   41 1
    43   43   41 1
    44   28   30 1
    45   36   38 1
    46   36   41 1
@<TRIPOS>SUBSTRUCTURE
     1 RES1 1

@<TRIPOS>CRYSIN
  14.8300    7.1802   13.8670  90.0000  98.5250  90.0000  14 1

