# MOL2 file generated by ConQuest
# Please check atom types

@<TRIPOS>MOLECULE
GOHFEQ
    61    63     1
SMALL
NO_CHARGES
****
Generated from CSD

@<TRIPOS>ATOM
      1 O1        -0.4331    2.0575    2.6255 O.3       1 RES1    0.0000
      2 C1         0.9978    0.5272   11.1028 C.ar      1 RES1    0.0000
      3 O2         1.1845    0.6449    8.7688 O.3       1 RES1    0.0000
      4 C2         1.8493    0.3861    9.8883 C.2       1 RES1    0.0000
      5 C3        -0.4811    0.8306   13.3871 C.ar      1 RES1    0.0000
      6 O3        -0.7045    0.8314   15.6833 O.2       1 RES1    0.0000
      7 C4         0.4315    1.7972    3.7739 C.3       1 RES1    0.0000
      8 H1         1.2723    2.3332    3.7034 H         1 RES1    0.0000
      9 O4         3.0328    0.0775    9.9269 O.2       1 RES1    0.0000
     10 C5        -0.3694    2.2316    4.9865 C.3       1 RES1    0.0000
     11 H2        -1.2103    1.6898    4.9942 H         1 RES1    0.0000
     12 O5        -2.4691    1.2116   14.4955 O.2       1 RES1    0.0000
     13 C6         1.9252    0.5513    7.5125 C.3       1 RES1    0.0000
     14 H3         2.5494   -0.2296    7.5010 H         1 RES1    0.0000
     15 C7         0.3776    1.9267    6.2961 C.3       1 RES1    0.0000
     16 H4        -0.2718    2.0729    7.0426 H         1 RES1    0.0000
     17 O6        -1.7489    5.0495    3.2185 O.3       1 RES1    0.0000
     18 N1        -1.2699    0.9571   14.6115 N.pl3     1 RES1    0.0000
     19 C8         0.8388    0.4065   13.4906 C.ar      1 RES1    0.0000
     20 H5         1.2282    0.2289   14.3384 H         1 RES1    0.0000
     21 C9         1.5657    0.2508   12.3354 C.ar      1 RES1    0.0000
     22 H6         2.4662   -0.0483   12.3818 H         1 RES1    0.0000
     23 C10       -1.0711    1.1077   12.1690 C.ar      1 RES1    0.0000
     24 H7        -1.9743    1.3980   12.1236 H         1 RES1    0.0000
     25 C11        0.7574    0.3071    3.8451 C.3       1 RES1    0.0000
     26 H8         1.2652    0.0358    3.0400 H         1 RES1    0.0000
     27 H9        -0.0808   -0.2186    3.8747 H         1 RES1    0.0000
     28 C12       -0.3205    0.9535   11.0186 C.ar      1 RES1    0.0000
     29 H10       -0.7067    1.1392   10.1718 H         1 RES1    0.0000
     30 O7        -2.9294    3.2808    3.9194 O.2       1 RES1    0.0000
     31 C13        0.8607    0.4621    6.3998 C.3       1 RES1    0.0000
     32 O8         1.3050    2.0319    1.2109 O.2       1 RES1    0.0000
     33 C14       -0.7819    3.7056    4.9020 C.3       1 RES1    0.0000
     34 H11       -1.0335    4.0193    5.8073 H         1 RES1    0.0000
     35 H12       -0.0031    4.2387    4.6034 H         1 RES1    0.0000
     36 C15       -1.9361    3.9564    3.9589 C.2       1 RES1    0.0000
     37 C16       -0.2601   -0.5169    6.7260 C.3       1 RES1    0.0000
     38 H13       -0.7542   -0.1981    7.5106 H         1 RES1    0.0000
     39 H14        0.1220   -1.3987    6.9171 H         1 RES1    0.0000
     40 H15       -0.8687   -0.5835    5.9617 H         1 RES1    0.0000
     41 C17        1.5926    0.0307    5.1076 C.3       1 RES1    0.0000
     42 H16        2.4513    0.5191    5.0425 H         1 RES1    0.0000
     43 H17        1.7957   -0.9366    5.1583 H         1 RES1    0.0000
     44 C18        0.1255    2.1643    1.4278 C.2       1 RES1    0.0000
     45 C19        2.6475    1.8623    7.2797 C.3       1 RES1    0.0000
     46 H18        3.4339    1.7256    6.6951 H         1 RES1    0.0000
     47 H19        2.9552    2.2462    8.1379 H         1 RES1    0.0000
     48 C20        1.6228    2.8048    6.6006 C.3       1 RES1    0.0000
     49 H20        1.9969    3.1806    5.7638 H         1 RES1    0.0000
     50 H21        1.3832    3.5513    7.2042 H         1 RES1    0.0000
     51 C21       -2.5540    6.8051    1.8343 C.3       1 RES1    0.0000
     52 H22       -3.2785    7.1020    1.2449 H         1 RES1    0.0000
     53 H23       -1.7090    6.8029    1.3366 H         1 RES1    0.0000
     54 H24       -2.4828    7.4156    2.5984 H         1 RES1    0.0000
     55 C22       -2.8462    5.4261    2.3258 C.3       1 RES1    0.0000
     56 H25       -3.7073    5.4100    2.8132 H         1 RES1    0.0000
     57 H26       -2.9026    4.7951    1.5658 H         1 RES1    0.0000
     58 C23       -0.9176    2.4502    0.3696 C.3       1 RES1    0.0000
     59 H27       -1.0218    3.4190    0.2678 H         1 RES1    0.0000
     60 H28       -1.7729    2.0568    0.6394 H         1 RES1    0.0000
     61 H29       -0.6330    2.0597   -0.4825 H         1 RES1    0.0000
@<TRIPOS>BOND
     1    1    7 1
     2    2    4 1
     3    3    4 1
     4    4    9 2
     5    5   18 1
     6    6   18 2
     7    7    8 1
     8   10    7 1
     9   11   10 1
    10   12   18 2
    11   13    3 1
    12   14   13 1
    13   15   10 1
    14   16   15 1
    15   17   36 1
    16   19    5 ar
    17   20   19 1
    18   21    2 ar
    19   22   21 1
    20   23    5 ar
    21   24   23 1
    22   25    7 1
    23   26   25 1
    24   27   25 1
    25   28    2 ar
    26   29   28 1
    27   30   36 2
    28   31   13 1
    29   32   44 2
    30   33   10 1
    31   34   33 1
    32   35   33 1
    33   36   33 1
    34   37   31 1
    35   38   37 1
    36   39   37 1
    37   40   37 1
    38   41   25 1
    39   42   41 1
    40   43   41 1
    41   44    1 1
    42   45   13 1
    43   46   45 1
    44   47   45 1
    45   48   15 1
    46   49   48 1
    47   50   48 1
    48   51   52 1
    49   53   51 1
    50   54   51 1
    51   55   17 1
    52   56   55 1
    53   57   55 1
    54   58   44 1
    55   59   58 1
    56   60   58 1
    57   61   58 1
    58   15   31 1
    59   19   21 ar
    60   23   28 ar
    61   31   41 1
    62   45   48 1
    63   51   55 1
@<TRIPOS>SUBSTRUCTURE
     1 RES1 1

@<TRIPOS>CRYSIN
   6.3829    7.3118   24.2760  90.0000  96.3600  90.0000   4 1

