# MOL2 file generated by ConQuest
# Please check atom types

@<TRIPOS>MOLECULE
GOHSEC
   180   186     2
SMALL
NO_CHARGES
****
Generated from CSD

@<TRIPOS>ATOM
      1 O1         7.0750   -0.7367    8.1366 O.2       1 RES1    0.0000
      2 O2         7.1635   -2.6121    7.0476 O.2       1 RES1    0.0000
      3 O3         4.7348   -2.8587    2.7030 O.2       1 RES1    0.0000
      4 O4         4.3945   -0.8501    1.9340 O.2       1 RES1    0.0000
      5 O5         1.8269   -0.2359    3.2524 O.2       1 RES1    0.0000
      6 O6         2.9177    1.7423    3.2302 O.3       1 RES1    0.0000
      7 O7        -1.2476    5.5948   -7.9618 O.2       1 RES1    0.0000
      8 O8        -1.6600    7.3785   -6.8452 O.2       1 RES1    0.0000
      9 O9         2.5825    8.1060   -3.0043 O.2       1 RES1    0.0000
     10 O10        0.5949    7.6644   -2.2481 O.2       1 RES1    0.0000
     11 O11        4.1953    4.3951   -3.8015 O.2       1 RES1    0.0000
     12 O12        3.0214    5.4413   -2.1886 O.3       1 RES1    0.0000
     13 O13        8.4446    9.5211    8.2651 O.2       1 RES1    0.0000
     14 O14        7.1953    8.4537    9.6786 O.2       1 RES1    0.0000
     15 O15        4.1075    5.3728    6.9699 O.2       1 RES1    0.0000
     16 O16        2.4349    6.7103    6.6078 O.2       1 RES1    0.0000
     17 O17        2.6882    9.5355    4.2823 O.2       1 RES1    0.0000
     18 O18        3.2068    7.3648    3.9881 O.3       1 RES1    0.0000
     19 O19        7.0473   12.1126    8.6783 O.2       2 RES2    0.0000
     20 O20        7.1261   13.9879    9.7654 O.2       2 RES2    0.0000
     21 O21        4.6861   14.2364   14.1052 O.2       2 RES2    0.0000
     22 O22        4.3448   12.2266   14.8782 O.2       2 RES2    0.0000
     23 O23        1.7848   11.6074   13.5625 O.2       2 RES2    0.0000
     24 O24        2.8812    9.6334   13.5814 O.3       2 RES2    0.0000
     25 O25        8.4636    1.8544    8.5495 O.2       2 RES2    0.0000
     26 O26        7.2071    2.9195    7.1336 O.2       2 RES2    0.0000
     27 O27        4.0978    6.0031    9.8451 O.2       2 RES2    0.0000
     28 O28        2.4341    4.6630   10.2102 O.2       2 RES2    0.0000
     29 O29        2.6933    1.8398   12.5293 O.2       2 RES2    0.0000
     30 O30        3.1993    4.0101   12.8258 O.3       2 RES2    0.0000
     31 O31       -1.2993    5.7824   24.7704 O.2       2 RES2    0.0000
     32 O32       -1.6976    3.9968   23.6537 O.2       2 RES2    0.0000
     33 O33        0.5742    3.7076   19.0607 O.2       2 RES2    0.0000
     34 O34        2.5566    3.2681   19.8139 O.2       2 RES2    0.0000
     35 O35        4.1460    6.9858   20.6128 O.2       2 RES2    0.0000
     36 O36        2.9924    5.9315   19.0005 O.3       2 RES2    0.0000
     37 N1         6.7116   -1.4853    7.2345 N.pl3     1 RES1    0.0000
     38 N2         4.5768   -1.6492    2.8436 N.pl3     1 RES1    0.0000
     39 N3         1.5122    7.5098   -3.0369 N.pl3     1 RES1    0.0000
     40 N4        -1.0165    6.3639   -7.0462 N.pl3     1 RES1    0.0000
     41 N5         7.4099    8.9382    8.5785 N.pl3     1 RES1    0.0000
     42 N6         3.6261    6.4768    6.7318 N.pl3     1 RES1    0.0000
     43 N7         6.6778   12.8598    9.5757 N.pl3     2 RES2    0.0000
     44 N8         4.5284   13.0267   13.9610 N.pl3     2 RES2    0.0000
     45 N9         3.6269    4.8929   10.0771 N.pl3     2 RES2    0.0000
     46 N10        7.4285    2.4407    8.2345 N.pl3     2 RES2    0.0000
     47 N11        1.4879    3.8701   19.8502 N.pl3     2 RES2    0.0000
     48 N12       -1.0603    5.0126   23.8619 N.pl3     2 RES2    0.0000
     49 C1         2.0372    4.7548    2.6217 C.ar      1 RES1    0.0000
     50 C2         2.3127    3.6230    1.8338 C.ar      1 RES1    0.0000
     51 C3         2.9903    3.7442    0.6046 C.ar      1 RES1    0.0000
     52 C4         3.3613    5.0273    0.1530 C.ar      1 RES1    0.0000
     53 C5         3.0589    6.1778    0.9089 C.ar      1 RES1    0.0000
     54 C6         2.4067    6.0326    2.1513 C.ar      1 RES1    0.0000
     55 C7         1.3276    4.5989    3.9535 C.3       1 RES1    0.0000
     56 C8        -0.2027    4.6321    3.8187 C.3       1 RES1    0.0000
     57 C9         3.3942    2.5203   -0.1876 C.3       1 RES1    0.0000
     58 C10        4.7581    1.9864    0.2360 C.3       1 RES1    0.0000
     59 C11        3.4778    7.5532    0.3988 C.3       1 RES1    0.0000
     60 C12        4.8417    7.9876    0.9384 C.3       1 RES1    0.0000
     61 C13        2.1142    7.2432    2.9986 C.3       1 RES1    0.0000
     62 C14        3.3242    8.5616    4.5762 C.2       1 RES1    0.0000
     63 C15        4.3978    8.5696    5.6229 C.ar      1 RES1    0.0000
     64 C16        4.5587    7.6163    6.6253 C.ar      1 RES1    0.0000
     65 C17        5.5235    7.7118    7.6074 C.ar      1 RES1    0.0000
     66 C18        6.3642    8.8157    7.5449 C.ar      1 RES1    0.0000
     67 C19        6.2908    9.7551    6.5607 C.ar      1 RES1    0.0000
     68 C20        5.2867    9.6493    5.6078 C.ar      1 RES1    0.0000
     69 C21        1.8746    2.2735    2.3335 C.3       1 RES1    0.0000
     70 C22        2.7438    0.4698    3.5877 C.2       1 RES1    0.0000
     71 C23        3.8279   -0.0017    4.5170 C.ar      1 RES1    0.0000
     72 C24        3.9697    0.5913    5.7779 C.ar      1 RES1    0.0000
     73 C25        4.9036    0.0911    6.6710 C.ar      1 RES1    0.0000
     74 C26        5.6745   -0.9936    6.3088 C.ar      1 RES1    0.0000
     75 C27        5.5474   -1.6390    5.0802 C.ar      1 RES1    0.0000
     76 C28        4.6318   -1.0920    4.2077 C.ar      1 RES1    0.0000
     77 C29        4.0602    5.1623   -1.1755 C.3       1 RES1    0.0000
     78 C30        3.2502    5.0408   -3.4377 C.2       1 RES1    0.0000
     79 C31        2.1523    5.4760   -4.3688 C.ar      1 RES1    0.0000
     80 C32        1.9467    4.6999   -5.5150 C.ar      1 RES1    0.0000
     81 C33        0.9241    4.9868   -6.4017 C.ar      1 RES1    0.0000
     82 C34        0.0952    6.0572   -6.1313 C.ar      1 RES1    0.0000
     83 C35        0.2681    6.8774   -5.0221 C.ar      1 RES1    0.0000
     84 C36        1.3050    6.5613   -4.1643 C.ar      1 RES1    0.0000
     85 C37        3.3341    6.3519   16.6610 C.ar      2 RES2    0.0000
     86 C38        3.0354    5.1954   15.9058 C.ar      2 RES2    0.0000
     87 C39        2.3862    5.3488   14.6604 C.ar      2 RES2    0.0000
     88 C40        2.0106    6.6227   14.1866 C.ar      2 RES2    0.0000
     89 C41        2.2846    7.7514   14.9805 C.ar      2 RES2    0.0000
     90 C42        2.9578    7.6292   16.2111 C.ar      2 RES2    0.0000
     91 C43        3.4687    3.8212   16.4159 C.3       2 RES2    0.0000
     92 C44        4.8239    3.3913   15.8728 C.3       2 RES2    0.0000
     93 C45        1.3052    6.7795   12.8554 C.3       2 RES2    0.0000
     94 C46       -0.2172    6.7414   12.9973 C.3       2 RES2    0.0000
     95 C47        3.3559    8.8607   16.9975 C.3       2 RES2    0.0000
     96 C48        4.7219    9.3758   16.5769 C.3       2 RES2    0.0000
     97 C49        4.0317    6.2133   17.9908 C.3       2 RES2    0.0000
     98 C50        3.2129    6.3314   20.2503 C.2       2 RES2    0.0000
     99 C51        2.1117    5.9034   21.1867 C.ar      2 RES2    0.0000
    100 C52        1.2682    4.8094   20.9753 C.ar      2 RES2    0.0000
    101 C53        0.2347    4.5005   21.8387 C.ar      2 RES2    0.0000
    102 C54        0.0549    5.3175   22.9446 C.ar      2 RES2    0.0000
    103 C55        0.8765    6.3910   23.2176 C.ar      2 RES2    0.0000
    104 C56        1.8997    6.6712   22.3316 C.ar      2 RES2    0.0000
    105 C57        1.8391    9.1051   14.4842 C.3       2 RES2    0.0000
    106 C58        2.7032   10.9090   13.2256 C.2       2 RES2    0.0000
    107 C59        3.7946   11.3729   12.2872 C.ar      2 RES2    0.0000
    108 C60        3.9382   10.7870   11.0307 C.ar      2 RES2    0.0000
    109 C61        4.8765   11.2781   10.1282 C.ar      2 RES2    0.0000
    110 C62        5.6356   12.3725   10.4994 C.ar      2 RES2    0.0000
    111 C63        5.5055   13.0125   11.7250 C.ar      2 RES2    0.0000
    112 C64        4.5877   12.4694   12.6043 C.ar      2 RES2    0.0000
    113 C65        2.1063    4.1349   13.8103 C.3       2 RES2    0.0000
    114 C66        3.3325    2.8222   12.2361 C.2       2 RES2    0.0000
    115 C67        4.4053    2.8015   11.1910 C.ar      2 RES2    0.0000
    116 C68        5.2961    1.7357   11.2028 C.ar      2 RES2    0.0000
    117 C69        6.2988    1.6165   10.2513 C.ar      2 RES2    0.0000
    118 C70        6.3801    2.5681    9.2641 C.ar      2 RES2    0.0000
    119 C71        5.5306    3.6528    9.2015 C.ar      2 RES2    0.0000
    120 C72        4.5626    3.7681   10.1847 C.ar      2 RES2    0.0000
    121 H1         1.6165    5.2708    4.6300 H         1 RES1    0.0000
    122 H2         1.5916    3.7241    4.3375 H         1 RES1    0.0000
    123 H3        -0.5940    4.4575    4.7309 H         1 RES1    0.0000
    124 H4        -0.5000    3.9568    3.1842 H         1 RES1    0.0000
    125 H5        -0.5340    5.4948    3.4666 H         1 RES1    0.0000
    126 H6         3.3650    2.7551   -1.1600 H         1 RES1    0.0000
    127 H7         2.7350    1.8341   -0.0605 H         1 RES1    0.0000
    128 H8         5.4892    2.6844    0.0471 H         1 RES1    0.0000
    129 H9         4.7280    1.8089    1.2138 H         1 RES1    0.0000
    130 H10        4.9740    1.1911   -0.2824 H         1 RES1    0.0000
    131 H11        2.7311    8.2185    0.6120 H         1 RES1    0.0000
    132 H12        3.5206    7.5503   -0.5817 H         1 RES1    0.0000
    133 H13        5.6315    7.3345    0.6489 H         1 RES1    0.0000
    134 H14        4.8751    8.0687    1.8560 H         1 RES1    0.0000
    135 H15        5.0857    8.8482    0.5851 H         1 RES1    0.0000
    136 H16        2.0487    8.0355    2.4714 H         1 RES1    0.0000
    137 H17        1.2914    7.1581    3.5339 H         1 RES1    0.0000
    138 H18        5.5994    7.0243    8.3387 H         1 RES1    0.0000
    139 H19        6.9017   10.5067    6.4894 H         1 RES1    0.0000
    140 H20        5.1976   10.2917    4.8687 H         1 RES1    0.0000
    141 H21        1.0169    2.3607    2.8883 H         1 RES1    0.0000
    142 H22        1.7417    1.6477    1.5938 H         1 RES1    0.0000
    143 H23        3.4429    1.3345    6.0523 H         1 RES1    0.0000
    144 H24        5.0279    0.4974    7.5486 H         1 RES1    0.0000
    145 H25        6.1183   -2.3853    4.8318 H         1 RES1    0.0000
    146 H26        4.7441    5.8714   -1.2407 H         1 RES1    0.0000
    147 H27        4.5422    4.3747   -1.4795 H         1 RES1    0.0000
    148 H28        2.5283    4.0038   -5.6723 H         1 RES1    0.0000
    149 H29        0.7842    4.5248   -7.1686 H         1 RES1    0.0000
    150 H30       -0.3060    7.5892   -4.8217 H         1 RES1    0.0000
    151 H31        2.7576    3.2108   16.1496 H         2 RES2    0.0000
    152 H32        3.4812    3.7752   17.3667 H         2 RES2    0.0000
    153 H33        4.8007    3.3015   14.8819 H         2 RES2    0.0000
    154 H34        5.0975    2.5651   16.2370 H         2 RES2    0.0000
    155 H35        5.5950    4.0310   16.1227 H         2 RES2    0.0000
    156 H36        1.5796    7.5548   12.4106 H         2 RES2    0.0000
    157 H37        1.5961    6.0554   12.2055 H         2 RES2    0.0000
    158 H38       -0.6428    6.9338   12.1920 H         2 RES2    0.0000
    159 H39       -0.5368    5.8321   13.3554 H         2 RES2    0.0000
    160 H40       -0.5087    7.3596   13.6513 H         2 RES2    0.0000
    161 H41        2.7034    9.5206   16.9061 H         2 RES2    0.0000
    162 H42        3.3279    8.6510   17.9249 H         2 RES2    0.0000
    163 H43        4.7061    9.6205   15.6116 H         2 RES2    0.0000
    164 H44        4.9337   10.2214   17.0742 H         2 RES2    0.0000
    165 H45        5.4667    8.6875   16.7514 H         2 RES2    0.0000
    166 H46        4.4898    6.9836   18.2376 H         2 RES2    0.0000
    167 H47        4.6950    5.4278   17.9955 H         2 RES2    0.0000
    168 H48       -0.3031    3.7594   21.6874 H         2 RES2    0.0000
    169 H49        0.7328    6.8917   24.0041 H         2 RES2    0.0000
    170 H50        2.4587    7.4084   22.4608 H         2 RES2    0.0000
    171 H51        1.0149    9.1175   13.9337 H         2 RES2    0.0000
    172 H52        1.6987    9.7409   15.1946 H         2 RES2    0.0000
    173 H53        3.4164   10.0038   10.7865 H         2 RES2    0.0000
    174 H54        4.9911   10.9073    9.2230 H         2 RES2    0.0000
    175 H55        6.0705   13.7620   11.9970 H         2 RES2    0.0000
    176 H56        2.0306    3.3284   14.3036 H         2 RES2    0.0000
    177 H57        1.2514    4.2297   13.2882 H         2 RES2    0.0000
    178 H58        5.2573    1.0789   11.8524 H         2 RES2    0.0000
    179 H59        6.9104    0.9161   10.3293 H         2 RES2    0.0000
    180 H60        5.6607    4.3191    8.4699 H         2 RES2    0.0000
@<TRIPOS>BOND
     1    1   37 2
     2    2   37 2
     3    3   38 2
     4    4   38 2
     5    5   70 2
     6    6   69 1
     7    7   40 2
     8    8   40 2
     9    9   39 2
    10   10   39 2
    11   11   78 2
    12   12   77 1
    13   13   41 2
    14   14   41 2
    15   15   42 2
    16   16   42 2
    17   17   62 2
    18   18   61 1
    19   19   43 2
    20   20   43 2
    21   21   44 2
    22   22   44 2
    23   23  106 2
    24   24  105 1
    25   25   46 2
    26   26   46 2
    27   27   45 2
    28   28   45 2
    29   29  114 2
    30   30  113 1
    31   31   48 2
    32   32   48 2
    33   33   47 2
    34   34   47 2
    35   35   98 2
    36   36   97 1
    37   37   74 1
    38   38   76 1
    39   39   84 1
    40   40   82 1
    41   41   66 1
    42   42   64 1
    43   43  110 1
    44   44  112 1
    45   45  120 1
    46   46  118 1
    47   47  100 1
    48   48  102 1
    49   49   50 ar
    50   50   51 ar
    51   51   52 ar
    52   52   53 ar
    53   53   54 ar
    54   54   49 ar
    55   55   49 1
    56   56   55 1
    57   57   51 1
    58   58   57 1
    59   59   53 1
    60   60   59 1
    61   61   54 1
    62   62   18 1
    63   63   62 1
    64   64   63 ar
    65   65   64 ar
    66   66   65 ar
    67   67   66 ar
    68   68   63 ar
    69   69   50 1
    70   70    6 1
    71   71   70 1
    72   72   71 ar
    73   73   72 ar
    74   74   73 ar
    75   75   74 ar
    76   76   71 ar
    77   77   52 1
    78   78   12 1
    79   79   78 1
    80   80   79 ar
    81   81   80 ar
    82   82   81 ar
    83   83   82 ar
    84   84   79 ar
    85   85   86 ar
    86   86   87 ar
    87   87   88 ar
    88   88   89 ar
    89   89   90 ar
    90   90   85 ar
    91   91   86 1
    92   92   91 1
    93   93   88 1
    94   94   93 1
    95   95   90 1
    96   96   95 1
    97   97   85 1
    98   98   36 1
    99   99   98 1
   100  100   99 ar
   101  101  100 ar
   102  102  101 ar
   103  103  102 ar
   104  104   99 ar
   105  105   89 1
   106  106   24 1
   107  107  106 1
   108  108  107 ar
   109  109  108 ar
   110  110  109 ar
   111  111  110 ar
   112  112  107 ar
   113  113   87 1
   114  114   30 1
   115  115  114 1
   116  116  115 ar
   117  117  116 ar
   118  118  117 ar
   119  119  118 ar
   120  120  115 ar
   121  121   55 1
   122  122   55 1
   123  123   56 1
   124  124   56 1
   125  125   56 1
   126  126   57 1
   127  127   57 1
   128  128   58 1
   129  129   58 1
   130  130   58 1
   131  131   59 1
   132  132   59 1
   133  133   60 1
   134  134   60 1
   135  135   60 1
   136  136   61 1
   137  137   61 1
   138  138   65 1
   139  139   67 1
   140  140   68 1
   141  141   69 1
   142  142   69 1
   143  143   72 1
   144  144   73 1
   145  145   75 1
   146  146   77 1
   147  147   77 1
   148  148   80 1
   149  149   81 1
   150  150   83 1
   151  151   91 1
   152  152   91 1
   153  153   92 1
   154  154   92 1
   155  155   92 1
   156  156   93 1
   157  157   93 1
   158  158   94 1
   159  159   94 1
   160  160   94 1
   161  161   95 1
   162  162   95 1
   163  163   96 1
   164  164   96 1
   165  165   96 1
   166  166   97 1
   167  167   97 1
   168  168  101 1
   169  169  103 1
   170  170  104 1
   171  171  105 1
   172  172  105 1
   173  173  108 1
   174  174  109 1
   175  175  111 1
   176  176  113 1
   177  177  113 1
   178  178  116 1
   179  179  117 1
   180  180  119 1
   181   67   68 ar
   182   75   76 ar
   183   83   84 ar
   184  103  104 ar
   185  111  112 ar
   186  119  120 ar
@<TRIPOS>SUBSTRUCTURE
     1 RES1 1
     2 RES2 19

@<TRIPOS>CRYSIN
   5.6949   19.8330   33.8830  84.1060  85.2780  81.8730   2 1

