# MOL2 file generated by ConQuest
# Please check atom types

@<TRIPOS>MOLECULE
GOJDOA
    90    96     2
SMALL
NO_CHARGES
****
Generated from CSD

@<TRIPOS>ATOM
      1 O1         4.4993    4.4555    5.2722 O.3       1 RES1    0.0000
      2 O2         2.2245    4.8073    5.0495 O.3       1 RES1    0.0000
      3 H1         1.8196    4.9201    5.7541 H         1 RES1    0.0000
      4 O3         2.5390    1.8789   -0.8928 O.2       1 RES1    0.0000
      5 C1         5.9681    5.8910    4.0951 C.ar      1 RES1    0.0000
      6 H2         6.2915    6.1922    4.9123 H         1 RES1    0.0000
      7 N1         3.4825    3.4723    2.8516 N.3       1 RES1    0.0000
      8 C2         4.4757    4.4475    2.8543 C.ar      1 RES1    0.0000
      9 C3         3.2075    3.8393    5.2315 C.3       1 RES1    0.0000
     10 H3         3.0471    3.3810    6.0829 H         1 RES1    0.0000
     11 C4         3.9766    1.6005    4.4458 C.ar      1 RES1    0.0000
     12 C5         0.4940    5.8667    1.1497 C.ar      1 RES1    0.0000
     13 H4         0.1286    6.5349    1.6837 H         1 RES1    0.0000
     14 N2         2.1901    2.9541   -1.3156 N.pl3     1 RES1    0.0000
     15 C6         5.4778   -0.6439    5.1726 C.ar      1 RES1    0.0000
     16 H5         5.9757   -1.3906    5.4140 H         1 RES1    0.0000
     17 C7         6.0890    0.4369    4.5569 C.ar      1 RES1    0.0000
     18 H6         7.0033    0.4169    4.3878 H         1 RES1    0.0000
     19 C8         6.0037    5.9481    1.7065 C.ar      1 RES1    0.0000
     20 H7         6.3462    6.2893    0.9121 H         1 RES1    0.0000
     21 C9         0.7041    4.8187   -0.9540 C.ar      1 RES1    0.0000
     22 H8         0.4864    4.7645   -1.8566 H         1 RES1    0.0000
     23 C10        2.9516    2.9740    1.6153 C.3       1 RES1    0.0000
     24 H9         2.4881    2.1402    1.7844 H         1 RES1    0.0000
     25 H10        3.6850    2.7884    1.0091 H         1 RES1    0.0000
     26 C11        3.1426    2.8184    4.1012 C.3       1 RES1    0.0000
     27 H11        2.2105    2.5214    4.0305 H         1 RES1    0.0000
     28 C12        4.9698    4.9429    4.0600 C.ar      1 RES1    0.0000
     29 C13        5.3403    1.5491    4.1921 C.ar      1 RES1    0.0000
     30 H12        5.7580    2.2673    3.7740 H         1 RES1    0.0000
     31 O4         2.2640    3.2710   -2.4955 O.2       1 RES1    0.0000
     32 C14        4.1230   -0.6011    5.4254 C.ar      1 RES1    0.0000
     33 H13        3.7066   -1.3221    5.8396 H         1 RES1    0.0000
     34 C15        5.0041    4.9872    1.6761 C.ar      1 RES1    0.0000
     35 H14        4.6795    4.6945    0.8551 H         1 RES1    0.0000
     36 C16        1.4083    4.9686    1.6932 C.ar      1 RES1    0.0000
     37 H15        1.6400    5.0515    2.5901 H         1 RES1    0.0000
     38 C17        6.4888    6.3964    2.9208 C.ar      1 RES1    0.0000
     39 H16        7.1637    7.0361    2.9474 H         1 RES1    0.0000
     40 C18        1.6197    3.9192   -0.4067 C.ar      1 RES1    0.0000
     41 C19        0.1273    5.7768   -0.1729 C.ar      1 RES1    0.0000
     42 H17       -0.5042    6.3593   -0.5302 H         1 RES1    0.0000
     43 C20        1.9851    3.9549    0.9444 C.ar      1 RES1    0.0000
     44 C21        3.3832    0.5054    5.0662 C.ar      1 RES1    0.0000
     45 H18        2.4702    0.5211    5.2429 H         1 RES1    0.0000
     46 O5         1.1153    4.5950    7.6588 O.3       2 RES2    0.0000
     47 O6        -1.1460    5.1001    7.8845 O.3       2 RES2    0.0000
     48 H19       -1.1574    5.5954    7.2306 H         2 RES2    0.0000
     49 O7        -0.9053    3.3795   15.3753 O.2       2 RES2    0.0000
     50 O8        -1.0097    1.9423   13.7745 O.2       2 RES2    0.0000
     51 N3        -0.0038    3.6537   10.0492 N.3       2 RES2    0.0000
     52 N4        -1.1727    3.0611   14.2190 N.pl3     2 RES2    0.0000
     53 C22       -3.1693    5.9952   13.2242 C.ar      2 RES2    0.0000
     54 H20       -3.7436    6.6091   13.6214 H         2 RES2    0.0000
     55 C23        3.1387    6.4292   10.0811 C.ar      2 RES2    0.0000
     56 H21        3.8454    7.0346   10.0830 H         2 RES2    0.0000
     57 C24        1.6426   -0.6511    7.8729 C.ar      2 RES2    0.0000
     58 H22        2.0666   -1.4592    7.6924 H         2 RES2    0.0000
     59 C25        0.3629    1.7490    8.4725 C.ar      2 RES2    0.0000
     60 C26        2.6141    5.9695   11.2612 C.ar      2 RES2    0.0000
     61 H23        2.9681    6.2708   12.0650 H         2 RES2    0.0000
     62 C27       -0.2126    4.0749    7.6772 C.3       2 RES2    0.0000
     63 H24       -0.3960    3.6494    6.8126 H         2 RES2    0.0000
     64 C28        2.5950    5.9752    8.8725 C.ar      2 RES2    0.0000
     65 H25        2.9312    6.2893    8.0649 H         2 RES2    0.0000
     66 C29        0.3412   -0.4569    7.4729 C.ar      2 RES2    0.0000
     67 H26       -0.1082   -1.1237    7.0045 H         2 RES2    0.0000
     68 C30        1.0237    4.5617   10.0811 C.ar      2 RES2    0.0000
     69 C31       -2.5696    5.0143   13.9748 C.ar      2 RES2    0.0000
     70 H27       -2.7122    4.9701   14.8927 H         2 RES2    0.0000
     71 C32       -1.7508    4.0934   13.3515 C.ar      2 RES2    0.0000
     72 C33       -0.5603    3.1168   11.2821 C.3       2 RES2    0.0000
     73 H28        0.1655    2.8670   11.8750 H         2 RES2    0.0000
     74 H29       -1.0670    2.3144   11.0787 H         2 RES2    0.0000
     75 C34        1.5675    5.0629   11.2764 C.ar      2 RES2    0.0000
     76 H30        1.2173    4.7816   12.0916 H         2 RES2    0.0000
     77 C35       -1.4656    4.1120   11.9928 C.ar      2 RES2    0.0000
     78 C36       -2.9095    6.0580   11.8750 C.ar      2 RES2    0.0000
     79 H31       -3.3055    6.7234   11.3600 H         2 RES2    0.0000
     80 C37        1.6846    1.5334    8.8440 C.ar      2 RES2    0.0000
     81 H32        2.1468    2.1973    9.3039 H         2 RES2    0.0000
     82 C38        1.5585    5.0600    8.8801 C.ar      2 RES2    0.0000
     83 C39       -2.0691    5.1428   11.2764 C.ar      2 RES2    0.0000
     84 H33       -1.8985    5.2171   10.3642 H         2 RES2    0.0000
     85 C40        2.3225    0.3469    8.5399 C.ar      2 RES2    0.0000
     86 H34        3.2100    0.2199    8.7870 H         2 RES2    0.0000
     87 C41       -0.3833    3.0354    8.7828 C.3       2 RES2    0.0000
     88 H35       -1.3383    2.8170    8.8364 H         2 RES2    0.0000
     89 C42       -0.3056    0.7510    7.7737 C.ar      2 RES2    0.0000
     90 H36       -1.1855    0.8838    7.5043 H         2 RES2    0.0000
@<TRIPOS>BOND
     1    1    9 1
     2    2    3 1
     3    4   14 2
     4    5    6 1
     5    7    8 1
     6    8   28 ar
     7    9    2 1
     8   10    9 1
     9   11   26 1
    10   12   13 1
    11   14   31 2
    12   15   16 1
    13   17   15 ar
    14   18   17 1
    15   19   20 1
    16   21   22 1
    17   23    7 1
    18   24   23 1
    19   25   23 1
    20   26    7 1
    21   27   26 1
    22   28    1 1
    23   29   11 ar
    24   30   29 1
    25   32   15 ar
    26   33   32 1
    27   34    8 ar
    28   35   34 1
    29   36   12 ar
    30   37   36 1
    31   38    5 ar
    32   39   38 1
    33   40   14 1
    34   41   12 ar
    35   42   41 1
    36   43   23 1
    37   44   11 ar
    38   45   44 1
    39   46   62 1
    40   47   48 1
    41   49   52 2
    42   50   52 2
    43   51   68 1
    44   52   71 1
    45   53   54 1
    46   55   56 1
    47   57   58 1
    48   59   80 ar
    49   60   55 ar
    50   61   60 1
    51   62   47 1
    52   63   62 1
    53   64   55 ar
    54   65   64 1
    55   66   57 ar
    56   67   66 1
    57   68   75 ar
    58   69   53 ar
    59   70   69 1
    60   71   69 ar
    61   72   51 1
    62   73   72 1
    63   74   72 1
    64   75   60 ar
    65   76   75 1
    66   77   71 ar
    67   78   53 ar
    68   79   78 1
    69   80   81 1
    70   82   46 1
    71   83   77 ar
    72   84   83 1
    73   85   57 ar
    74   86   85 1
    75   87   51 1
    76   88   87 1
    77   89   59 ar
    78   90   89 1
    79    5   28 ar
    80    9   26 1
    81   17   29 ar
    82   19   34 ar
    83   19   38 ar
    84   21   40 ar
    85   21   41 ar
    86   32   44 ar
    87   36   43 ar
    88   40   43 ar
    89   59   87 1
    90   62   87 1
    91   64   82 ar
    92   66   89 ar
    93   68   82 ar
    94   72   77 1
    95   78   83 ar
    96   80   85 ar
@<TRIPOS>SUBSTRUCTURE
     1 RES1 1
     2 RES2 46

@<TRIPOS>CRYSIN
  12.7332   14.2777   19.0030  90.0000  90.0000  90.0000  33 1

