# MOL2 file generated by ConQuest
# Please check atom types

@<TRIPOS>MOLECULE
GOJDUE
    14    15     1
SMALL
NO_CHARGES
****
Generated from CSD

@<TRIPOS>ATOM
      1 N1         1.8957   -3.0540    8.2631 N.pl3     1 RES1    0.0000
      2 C1         0.9527   -2.1874    7.7436 C.ar      1 RES1    0.0000
      3 C2        -0.4252   -2.1874    7.9081 C.ar      1 RES1    0.0000
      4 C3        -1.1301   -1.1648    7.3157 C.ar      1 RES1    0.0000
      5 C4        -0.4792   -0.1772    6.5724 C.ar      1 RES1    0.0000
      6 C5         0.8919   -0.1962    6.3957 C.ar      1 RES1    0.0000
      7 C6         1.6385   -1.2157    6.9882 C.ar      1 RES1    0.0000
      8 C7         3.0478   -1.5456    7.0814 C.2       1 RES1    0.0000
      9 C8         3.1304   -2.6722    7.8773 C.2       1 RES1    0.0000
     10 C9         4.1999   -0.9240    6.5238 C.2       1 RES1    0.0000
     11 C10        4.2355    0.2016    5.8081 C.2       1 RES1    0.0000
     12 N2         5.4680    0.7086    5.3056 N.pl3     1 RES1    0.0000
     13 O1         6.5055    0.0467    5.4069 O.2       1 RES1    0.0000
     14 O2         5.4516    1.8172    4.7739 O.2       1 RES1    0.0000
@<TRIPOS>BOND
     1    1    2 1
     2    2    3 ar
     3    3    4 ar
     4    4    5 ar
     5    5    6 ar
     6    6    7 ar
     7    7    2 ar
     8    8    7 1
     9    9    1 1
    10   10    8 1
    11   11   10 2
    12   12   11 1
    13   13   12 2
    14   14   12 2
    15    8    9 2
@<TRIPOS>SUBSTRUCTURE
     1 RES1 1

@<TRIPOS>CRYSIN
  10.1780   10.6080    8.4110  90.0000 105.5000  90.0000 231 1

