# MOL2 file generated by ConQuest
# Please check atom types

@<TRIPOS>MOLECULE
GOJDOY
    32    34     2
SMALL
NO_CHARGES
****
Generated from CSD

@<TRIPOS>ATOM
      1 N1        17.8808    2.3117    0.6534 N.pl3     1 RES1    0.0000
      2 C1        18.0129    1.9731    1.9876 C.ar      1 RES1    0.0000
      3 C2        19.0874    2.2012    2.8286 C.ar      1 RES1    0.0000
      4 C3        18.9854    1.6909    4.1065 C.ar      1 RES1    0.0000
      5 C4        17.8764    0.9534    4.5091 C.ar      1 RES1    0.0000
      6 C5        16.8183    0.7391    3.6629 C.ar      1 RES1    0.0000
      7 C6        16.8492    1.2935    2.3697 C.ar      1 RES1    0.0000
      8 C7        15.9966    1.2516    1.2011 C.2       1 RES1    0.0000
      9 C8        16.7005    1.8740    0.1689 C.2       1 RES1    0.0000
     10 C9        14.7190    0.6414    0.9520 C.2       1 RES1    0.0000
     11 C10       13.7496    0.3287    1.8255 C.2       1 RES1    0.0000
     12 C11       13.6135    0.7215    3.2449 C.3       1 RES1    0.0000
     13 C12       16.3232    2.0928   -1.2557 C.3       1 RES1    0.0000
     14 N2        12.6195   -0.3913    1.2898 N.pl3     1 RES1    0.0000
     15 O1        12.6006   -0.7482    0.1092 O.2       1 RES1    0.0000
     16 O2        11.6808   -0.6414    2.0473 O.2       1 RES1    0.0000
     17 N3         7.1271    1.5391    0.2013 N.pl3     2 RES2    0.0000
     18 C13        7.2599    1.3187    1.5645 C.ar      2 RES2    0.0000
     19 C14        6.2987    0.8817    2.4704 C.ar      2 RES2    0.0000
     20 C15        6.7143    0.6635    3.7687 C.ar      2 RES2    0.0000
     21 C16        8.0394    0.8596    4.1355 C.ar      2 RES2    0.0000
     22 C17        8.9837    1.2989    3.2176 C.ar      2 RES2    0.0000
     23 C18        8.5945    1.5689    1.9142 C.ar      2 RES2    0.0000
     24 C19        9.2725    1.9655    0.6824 C.2       2 RES2    0.0000
     25 C20        8.3209    1.8900   -0.3327 C.2       2 RES2    0.0000
     26 C21       10.5971    2.4094    0.3873 C.2       2 RES2    0.0000
     27 C22       11.5033    3.0233    1.1567 C.2       2 RES2    0.0000
     28 C23       11.3630    3.5732    2.5352 C.3       2 RES2    0.0000
     29 C24        8.4589    2.1790   -1.7845 C.3       2 RES2    0.0000
     30 N4        12.7628    3.3719    0.5135 N.pl3     2 RES2    0.0000
     31 O3        12.9886    3.0470   -0.6449 O.2       2 RES2    0.0000
     32 O4        13.5961    3.9897    1.1857 O.2       2 RES2    0.0000
@<TRIPOS>BOND
     1    1    2 1
     2    2    3 ar
     3    3    4 ar
     4    4    5 ar
     5    5    6 ar
     6    6    7 ar
     7    7    2 ar
     8    8    7 1
     9    9    1 1
    10   10    8 1
    11   11   10 2
    12   12   11 1
    13   13    9 1
    14   14   11 1
    15   15   14 2
    16   16   14 2
    17   17   18 1
    18   18   19 ar
    19   19   20 ar
    20   20   21 ar
    21   21   22 ar
    22   22   23 ar
    23   23   18 ar
    24   24   23 1
    25   25   17 1
    26   26   24 1
    27   27   26 2
    28   28   27 1
    29   29   25 1
    30   30   27 1
    31   31   30 2
    32   32   30 2
    33    8    9 2
    34   24   25 2
@<TRIPOS>SUBSTRUCTURE
     1 RES1 1
     2 RES2 17

@<TRIPOS>CRYSIN
  16.7100    7.6270   17.6460  90.0000 104.8000  90.0000 231 1

