# MOL2 file generated by ConQuest
# Please check atom types

@<TRIPOS>MOLECULE
GOJROM02
    40    40     2
SMALL
NO_CHARGES
****
Generated from CSD

@<TRIPOS>ATOM
      1 O1         7.3360    4.7565    4.4950 O.3       1 RES1    0.0000
      2 H1         6.8647    4.9898    5.1248 H         1 RES1    0.0000
      3 O2         5.3454    4.6740    3.5467 O.2       1 RES1    0.0000
      4 O3         6.1915    2.5867   -2.0903 O.2       1 RES1    0.0000
      5 N1         5.7738    2.9765   -1.0243 N.pl3     1 RES1    0.0000
      6 O4         4.5784    3.0699   -0.7547 O.2       1 RES1    0.0000
      7 C1         6.6279    4.5514    3.5040 C.2       1 RES1    0.0000
      8 C2         8.6031    3.9912    1.9831 C.ar      1 RES1    0.0000
      9 C3         7.2086    4.1178    2.2152 C.ar      1 RES1    0.0000
     10 C4         6.7558    3.3408    0.0073 C.ar      1 RES1    0.0000
     11 C5         6.3004    3.7906    1.2034 C.ar      1 RES1    0.0000
     12 H2         5.3859    3.8805    1.3502 H         1 RES1    0.0000
     13 C6         8.1000    3.1785   -0.2582 C.ar      1 RES1    0.0000
     14 H3         8.3922    2.8582   -1.0816 H         1 RES1    0.0000
     15 C7         8.9919    3.5062    0.7308 C.ar      1 RES1    0.0000
     16 H4         9.8995    3.3995    0.5601 H         1 RES1    0.0000
     17 C8         9.6538    4.3429    2.9887 C.3       1 RES1    0.0000
     18 H5        10.5194    4.1166    2.6400 H         1 RES1    0.0000
     19 H6         9.4972    3.8540    3.7996 H         1 RES1    0.0000
     20 H7         9.6194    5.2850    3.1709 H         1 RES1    0.0000
     21 O5         6.3046    9.7511    9.6292 O.2       2 RES2    0.0000
     22 O6         9.2903    7.7594    4.5720 O.2       2 RES2    0.0000
     23 O7         8.3261    9.3489    8.8505 O.3       2 RES2    0.0000
     24 H8         8.5286    9.5752    9.6115 H         2 RES2    0.0000
     25 O8         7.7730    7.5873    3.0491 O.2       2 RES2    0.0000
     26 N2         8.1226    7.8233    4.2014 N.pl3     2 RES2    0.0000
     27 C9         7.0830    8.2191    5.1789 C.ar      2 RES2    0.0000
     28 C10        7.0514    9.3964    8.7152 C.2       2 RES2    0.0000
     29 C11        6.5471    9.0028    7.3619 C.ar      2 RES2    0.0000
     30 C12        5.1709    9.0278    7.0080 C.ar      2 RES2    0.0000
     31 C13        7.4882    8.5906    6.4365 C.ar      2 RES2    0.0000
     32 H9         8.3897    8.5653    6.6644 H         2 RES2    0.0000
     33 C14        4.8468    8.6284    5.7307 C.ar      2 RES2    0.0000
     34 H10        3.9498    8.6297    5.4850 H         2 RES2    0.0000
     35 C15        4.0649    9.4855    7.9365 C.3       2 RES2    0.0000
     36 H11        4.1857   10.4159    8.1437 H         2 RES2    0.0000
     37 H12        4.0937    8.9713    8.7464 H         2 RES2    0.0000
     38 H13        3.2154    9.3612    7.5076 H         2 RES2    0.0000
     39 C16        5.7759    8.2285    4.7969 C.ar      2 RES2    0.0000
     40 H14        5.5208    7.9739    3.9391 H         2 RES2    0.0000
@<TRIPOS>BOND
     1    1    2 1
     2    3    7 2
     3    4    5 2
     4    5    6 2
     5    7    1 1
     6    8    9 ar
     7    9    7 1
     8   10    5 1
     9   11    9 ar
    10   12   11 1
    11   13   10 ar
    12   14   13 1
    13   15    8 ar
    14   16   15 1
    15   17    8 1
    16   18   17 1
    17   19   17 1
    18   20   17 1
    19   21   28 2
    20   22   26 2
    21   23   24 1
    22   25   26 2
    23   26   27 1
    24   27   31 ar
    25   28   23 1
    26   29   28 1
    27   30   29 ar
    28   31   29 ar
    29   32   31 1
    30   33   30 ar
    31   34   33 1
    32   35   30 1
    33   36   35 1
    34   37   35 1
    35   38   35 1
    36   39   27 ar
    37   40   39 1
    38   10   11 ar
    39   13   15 ar
    40   33   39 ar
@<TRIPOS>SUBSTRUCTURE
     1 RES1 1
     2 RES2 21

@<TRIPOS>CRYSIN
   7.6360   10.4260   10.5200  89.2800  81.8000  76.3200   2 1

