# MOL2 file generated by ConQuest
# Please check atom types

@<TRIPOS>MOLECULE
GOJROM01
    40    40     2
SMALL
NO_CHARGES
****
Generated from CSD

@<TRIPOS>ATOM
      1 O1         7.2904    4.7787    4.5178 O.3       1 RES1    0.0000
      2 H1         6.8211    5.0135    5.1474 H         1 RES1    0.0000
      3 O2         5.3012    4.6984    3.5604 O.2       1 RES1    0.0000
      4 O3         6.1590    2.6120   -2.1060 O.2       1 RES1    0.0000
      5 N1         5.7379    2.9950   -1.0232 N.pl3     1 RES1    0.0000
      6 O4         4.5494    3.1008   -0.7580 O.2       1 RES1    0.0000
      7 C1         6.5812    4.5820    3.5291 C.2       1 RES1    0.0000
      8 C2         8.5448    4.0131    1.9911 C.ar      1 RES1    0.0000
      9 C3         7.1652    4.1452    2.2187 C.ar      1 RES1    0.0000
     10 C4         6.7135    3.3550   -0.0010 C.ar      1 RES1    0.0000
     11 C5         6.2582    3.8163    1.2195 C.ar      1 RES1    0.0000
     12 H2         5.3452    3.9065    1.3709 H         1 RES1    0.0000
     13 C6         8.0535    3.2001   -0.2600 C.ar      1 RES1    0.0000
     14 H3         8.3496    2.8823   -1.0827 H         1 RES1    0.0000
     15 C7         8.9468    3.5330    0.7434 C.ar      1 RES1    0.0000
     16 H4         9.8566    3.4309    0.5795 H         1 RES1    0.0000
     17 C8         9.5936    4.3652    3.0008 C.3       1 RES1    0.0000
     18 H5        10.4632    4.1833    2.6364 H         1 RES1    0.0000
     19 H6         9.4630    3.8409    3.7932 H         1 RES1    0.0000
     20 H7         9.5274    5.2976    3.2190 H         1 RES1    0.0000
     21 O5         6.2166    9.7987    9.6496 O.2       2 RES2    0.0000
     22 O6         9.2117    7.7968    4.5826 O.2       2 RES2    0.0000
     23 O7         8.2390    9.3850    8.8718 O.3       2 RES2    0.0000
     24 H8         8.4423    9.6136    9.6319 H         2 RES2    0.0000
     25 O8         7.7026    7.6300    3.0644 O.2       2 RES2    0.0000
     26 N2         8.0527    7.8688    4.2130 N.pl3     2 RES2    0.0000
     27 C9         7.0228    8.2562    5.1976 C.ar      2 RES2    0.0000
     28 C10        6.9664    9.4423    8.7339 C.2       2 RES2    0.0000
     29 C11        6.4699    9.0431    7.3870 C.ar      2 RES2    0.0000
     30 C12        5.0963    9.0709    7.0310 C.ar      2 RES2    0.0000
     31 C13        7.4113    8.6311    6.4505 C.ar      2 RES2    0.0000
     32 H9         8.3126    8.6104    6.6791 H         2 RES2    0.0000
     33 C14        4.7717    8.6724    5.7384 C.ar      2 RES2    0.0000
     34 H10        3.8761    8.6794    5.4878 H         2 RES2    0.0000
     35 C15        4.0014    9.5292    7.9467 C.3       2 RES2    0.0000
     36 H11        4.1516   10.4457    8.1920 H         2 RES2    0.0000
     37 H12        3.9947    8.9836    8.7360 H         2 RES2    0.0000
     38 H13        3.1559    9.4532    7.4988 H         2 RES2    0.0000
     39 C16        5.7059    8.2694    4.8112 C.ar      2 RES2    0.0000
     40 H14        5.4538    8.0146    3.9530 H         2 RES2    0.0000
@<TRIPOS>BOND
     1    1    2 1
     2    3    7 2
     3    4    5 2
     4    5    6 2
     5    7    1 1
     6    8    9 ar
     7    9    7 1
     8   10    5 1
     9   11    9 ar
    10   12   11 1
    11   13   10 ar
    12   14   13 1
    13   15    8 ar
    14   16   15 1
    15   17    8 1
    16   18   17 1
    17   19   17 1
    18   20   17 1
    19   21   28 2
    20   22   26 2
    21   23   24 1
    22   25   26 2
    23   26   27 1
    24   27   31 ar
    25   28   23 1
    26   29   28 1
    27   30   29 ar
    28   31   29 ar
    29   32   31 1
    30   33   30 ar
    31   34   33 1
    32   35   30 1
    33   36   35 1
    34   37   35 1
    35   38   35 1
    36   39   27 ar
    37   40   39 1
    38   10   11 ar
    39   13   15 ar
    40   33   39 ar
@<TRIPOS>SUBSTRUCTURE
     1 RES1 1
     2 RES2 21

@<TRIPOS>CRYSIN
   7.6110   10.4700   10.5500  89.4500  81.8700  76.7500   2 1

