# MOL2 file generated by ConQuest
# Please check atom types

@<TRIPOS>MOLECULE
GOJROM
    26    26     2
SMALL
NO_CHARGES
****
Generated from CSD

@<TRIPOS>ATOM
      1 C1         3.0569    4.3124    8.2555 C.ar      1 RES1    0.0000
      2 C2         4.0124    3.8997    9.1863 C.ar      1 RES1    0.0000
      3 C3         3.6172    3.5304   10.4399 C.ar      1 RES1    0.0000
      4 C4         2.2880    3.5347   10.8366 C.ar      1 RES1    0.0000
      5 C5         1.3476    3.9380    9.8974 C.ar      1 RES1    0.0000
      6 C6         1.6826    4.3472    8.6053 C.ar      1 RES1    0.0000
      7 C7         0.5954    4.8012    7.6995 C.3       1 RES1    0.0000
      8 C8         3.5565    4.7191    6.8999 C.2       1 RES1    0.0000
      9 N1         4.6446    3.1371   11.4154 N.pl3     1 RES1    0.0000
     10 O1         2.8163    5.0603    6.0055 O.co2     1 RES1    0.0000
     11 O2         4.8376    4.6510    6.7770 O.co2     1 RES1    0.0000
     12 O3         4.2796    2.9077   12.5607 O.2       1 RES1    0.0000
     13 O4         5.8054    3.0673   11.0490 O.2       1 RES1    0.0000
     14 C9         0.9102    1.0762    7.4236 C.ar      2 RES2    0.0000
     15 C10        1.8205    1.3988    6.4293 C.ar      2 RES2    0.0000
     16 C11        1.3625    1.8656    5.2028 C.ar      2 RES2    0.0000
     17 C12        0.0135    2.0205    4.9508 C.ar      2 RES2    0.0000
     18 C13       -0.8814    1.6713    5.9420 C.ar      2 RES2    0.0000
     19 C14       -0.4794    1.2050    7.1862 C.ar      2 RES2    0.0000
     20 C15       -1.5321    0.8747    8.1972 C.3       2 RES2    0.0000
     21 C16        1.4845    0.6387    8.7198 C.2       2 RES2    0.0000
     22 N2         2.3442    2.2198    4.1699 N.pl3     2 RES2    0.0000
     23 O5         0.7827    0.4364    9.7235 O.co2     2 RES2    0.0000
     24 O6         2.7640    0.5253    8.7490 O.co2     2 RES2    0.0000
     25 O7         3.5374    2.1115    4.4521 O.2       2 RES2    0.0000
     26 O8         1.9272    2.5977    3.1017 O.2       2 RES2    0.0000
@<TRIPOS>BOND
     1    1    2 ar
     2    2    3 ar
     3    3    4 ar
     4    4    5 ar
     5    5    6 ar
     6    6    1 ar
     7    7    6 1
     8    8    1 1
     9    9    3 1
    10   10    8 1
    11   11    8 2
    12   12    9 2
    13   13    9 2
    14   14   15 ar
    15   15   16 ar
    16   16   17 ar
    17   17   18 ar
    18   18   19 ar
    19   19   14 ar
    20   20   19 1
    21   21   14 1
    22   22   16 1
    23   23   21 1
    24   24   21 2
    25   25   22 2
    26   26   22 2
@<TRIPOS>SUBSTRUCTURE
     1 RES1 1
     2 RES2 14

@<TRIPOS>CRYSIN
   7.6280   10.4750   10.5220  90.6100  98.1900  76.4100   2 1

