# MOL2 file generated by ConQuest
# Please check atom types

@<TRIPOS>MOLECULE
GOJSIJ
    29    30     1
SMALL
NO_CHARGES
****
Generated from CSD

@<TRIPOS>ATOM
      1 O1         1.4441    5.2872    5.2063 O.2       1 RES1    0.0000
      2 O2         2.8941    6.6397    6.0596 O.2       1 RES1    0.0000
      3 O3         5.4047    8.5677    7.3695 O.2       1 RES1    0.0000
      4 O4         3.8900    8.5362    8.9101 O.2       1 RES1    0.0000
      5 N1         2.5930    5.7130    5.3040 N.pl3     1 RES1    0.0000
      6 N2         4.7052    7.9692    8.1888 N.pl3     1 RES1    0.0000
      7 C1         3.6463    5.0870    4.4867 C.ar      1 RES1    0.0000
      8 C2         3.1960    4.3243    3.4094 C.ar      1 RES1    0.0000
      9 C3         4.1106    3.7168    2.5760 C.ar      1 RES1    0.0000
     10 C4         5.4589    3.8598    2.8322 C.ar      1 RES1    0.0000
     11 C5         5.8973    4.6265    3.9099 C.ar      1 RES1    0.0000
     12 C6         5.0060    5.2880    4.7604 C.ar      1 RES1    0.0000
     13 C7         5.5782    6.1717    5.8560 C.3       1 RES1    0.0000
     14 C8         5.2660    5.6975    7.2723 C.ar      1 RES1    0.0000
     15 C9         5.3750    4.3363    7.5592 C.ar      1 RES1    0.0000
     16 C10        5.0882    3.8131    8.8169 C.ar      1 RES1    0.0000
     17 C11        4.6646    4.6447    9.8368 C.ar      1 RES1    0.0000
     18 C12        4.5402    5.9955    9.5990 C.ar      1 RES1    0.0000
     19 C13        4.8529    6.5065    8.3336 C.ar      1 RES1    0.0000
     20 H1         2.2647    4.2246    3.2508 H         1 RES1    0.0000
     21 H2         3.8150    3.2054    1.8315 H         1 RES1    0.0000
     22 H3         6.0930    3.4319    2.2685 H         1 RES1    0.0000
     23 H4         6.8305    4.7023    4.0715 H         1 RES1    0.0000
     24 H5         5.2217    7.0880    5.7424 H         1 RES1    0.0000
     25 H6         6.5611    6.2170    5.7460 H         1 RES1    0.0000
     26 H7         5.6546    3.7449    6.8697 H         1 RES1    0.0000
     27 H8         5.1852    2.8807    8.9757 H         1 RES1    0.0000
     28 H9         4.4607    4.2876   10.6933 H         1 RES1    0.0000
     29 H10        4.2446    6.5775   10.2894 H         1 RES1    0.0000
@<TRIPOS>BOND
     1    1    5 2
     2    2    5 2
     3    3    6 2
     4    4    6 2
     5    5    7 1
     6    6   19 1
     7    7    8 ar
     8    8    9 ar
     9    9   10 ar
    10   10   11 ar
    11   11   12 ar
    12   12    7 ar
    13   13   12 1
    14   14   13 1
    15   15   14 ar
    16   16   15 ar
    17   17   16 ar
    18   18   17 ar
    19   19   14 ar
    20   20    8 1
    21   21    9 1
    22   22   10 1
    23   23   11 1
    24   24   13 1
    25   25   13 1
    26   26   15 1
    27   27   16 1
    28   28   17 1
    29   29   18 1
    30   18   19 ar
@<TRIPOS>SUBSTRUCTURE
     1 RES1 1

@<TRIPOS>CRYSIN
   7.6280    8.3400    9.4640 103.5440  92.5550  94.8700   2 1

