# MOL2 file generated by ConQuest
# Please check atom types

@<TRIPOS>MOLECULE
GOJWEJ
    59    62     1
SMALL
NO_CHARGES
****
Generated from CSD

@<TRIPOS>ATOM
      1 C1         1.9283    3.9787    3.0068 C.ar      1 RES1    0.0000
      2 H1         1.6122    4.4249    2.2286 H         1 RES1    0.0000
      3 C2         1.3099    4.1898    4.2134 C.ar      1 RES1    0.0000
      4 H2         0.5517    4.7596    4.2611 H         1 RES1    0.0000
      5 C3         1.7842    3.5741    5.3694 C.ar      1 RES1    0.0000
      6 H3         1.3619    3.7186    6.2085 H         1 RES1    0.0000
      7 C4         2.8881    2.7460    5.2612 C.ar      1 RES1    0.0000
      8 C5         4.7555    2.4039    6.8623 C.2       1 RES1    0.0000
      9 C6         4.9566    1.7672    8.2393 C.3       1 RES1    0.0000
     10 C7         6.0106    3.6730    9.1515 C.2       1 RES1    0.0000
     11 H4         6.5713    3.6792    8.3842 H         1 RES1    0.0000
     12 C8         6.2243    4.6486   10.2456 C.ar      1 RES1    0.0000
     13 C9         7.0739    5.7555   10.1792 C.ar      1 RES1    0.0000
     14 C10        7.3610    6.5563   11.2720 C.ar      1 RES1    0.0000
     15 H5         7.9652    7.2845   11.1922 H         1 RES1    0.0000
     16 C11        6.7537    6.2770   12.4797 C.ar      1 RES1    0.0000
     17 H6         6.9334    6.8194   13.2389 H         1 RES1    0.0000
     18 C12        3.6647    0.9551    8.4579 C.3       1 RES1    0.0000
     19 H7         3.9009   -0.0098    8.3351 H         1 RES1    0.0000
     20 C13        2.7490    1.3353    7.3170 C.2       1 RES1    0.0000
     21 C14        3.0012    3.1289    2.9167 C.ar      1 RES1    0.0000
     22 H8         3.4078    2.9704    2.0725 H         1 RES1    0.0000
     23 C15        3.4969    2.4984    4.0491 C.ar      1 RES1    0.0000
     24 H9         4.2403    1.9097    3.9901 H         1 RES1    0.0000
     25 C16        3.0106    1.0836    9.8295 C.3       1 RES1    0.0000
     26 H10        2.2652    0.4356    9.8915 H         1 RES1    0.0000
     27 H11        3.6742    0.8466   10.5251 H         1 RES1    0.0000
     28 C17        2.4809    2.4617   10.1139 C.2       1 RES1    0.0000
     29 C18        2.0874    4.0345   11.8357 C.3       1 RES1    0.0000
     30 H12        2.3821    4.7202   11.2013 H         1 RES1    0.0000
     31 H13        2.4300    4.2477   12.7292 H         1 RES1    0.0000
     32 H14        1.1076    4.0114   11.8594 H         1 RES1    0.0000
     33 C19        6.2142    0.8734    8.2172 C.3       1 RES1    0.0000
     34 H15        6.1228    0.2116    7.4860 H         1 RES1    0.0000
     35 H16        7.0024    1.4372    8.0151 H         1 RES1    0.0000
     36 C20        6.4615    0.1368    9.5137 C.ar      1 RES1    0.0000
     37 C21        6.1544   -1.2054    9.6190 C.ar      1 RES1    0.0000
     38 H17        5.7754   -1.6587    8.8759 H         1 RES1    0.0000
     39 C22        6.3920   -1.8991   10.7974 C.ar      1 RES1    0.0000
     40 H18        6.1782   -2.8228   10.8529 H         1 RES1    0.0000
     41 C23        6.9364   -1.2563   11.8847 C.ar      1 RES1    0.0000
     42 H19        7.0943   -1.7325   12.6918 H         1 RES1    0.0000
     43 C24        7.2495    0.0765   11.7967 C.ar      1 RES1    0.0000
     44 H20        7.6256    0.5242   12.5447 H         1 RES1    0.0000
     45 C25        7.0180    0.7686   10.6219 C.ar      1 RES1    0.0000
     46 H21        7.2427    1.6907   10.5702 H         1 RES1    0.0000
     47 C26        5.6416    4.3948   11.4893 C.ar      1 RES1    0.0000
     48 H22        5.0651    3.6472   11.5871 H         1 RES1    0.0000
     49 C27        5.8834    5.2070   12.5831 C.ar      1 RES1    0.0000
     50 H23        5.4494    5.0278   13.4093 H         1 RES1    0.0000
     51 N1         3.4447    2.1819    6.4584 N.am      1 RES1    0.0000
     52 N2         5.0696    2.8314    9.2531 N.2       1 RES1    0.0000
     53 N3         7.7035    6.1431    8.9152 N.pl3     1 RES1    0.0000
     54 O1         8.7838    6.7163    8.9710 O.2       1 RES1    0.0000
     55 O2         7.1141    5.9054    7.8692 O.2       1 RES1    0.0000
     56 O3         1.6319    0.9246    7.1084 O.2       1 RES1    0.0000
     57 O4         5.5802    3.0233    6.2341 O.2       1 RES1    0.0000
     58 O5         2.5906    2.7462   11.4209 O.3       1 RES1    0.0000
     59 O6         1.9645    3.1914    9.3093 O.2       1 RES1    0.0000
@<TRIPOS>BOND
     1    1    2 1
     2    3    1 ar
     3    4    3 1
     4    5    3 ar
     5    6    5 1
     6    7    5 ar
     7    8    9 1
     8    9   18 1
     9   10   11 1
    10   12   10 1
    11   13   12 ar
    12   14   13 ar
    13   15   14 1
    14   16   14 ar
    15   17   16 1
    16   18   19 1
    17   20   18 1
    18   21    1 ar
    19   22   21 1
    20   23    7 ar
    21   24   23 1
    22   25   18 1
    23   26   25 1
    24   27   25 1
    25   28   25 1
    26   29   30 1
    27   31   29 1
    28   32   29 1
    29   33    9 1
    30   34   33 1
    31   35   33 1
    32   36   33 1
    33   37   36 ar
    34   38   37 1
    35   39   37 ar
    36   40   39 1
    37   41   39 ar
    38   42   41 1
    39   43   41 ar
    40   44   43 1
    41   45   36 ar
    42   46   45 1
    43   47   12 ar
    44   48   47 1
    45   49   16 ar
    46   50   49 1
    47   51    7 1
    48   52    9 1
    49   53   13 1
    50   54   53 2
    51   55   53 2
    52   56   20 2
    53   57    8 2
    54   58   28 1
    55   59   28 2
    56    8   51 1
    57   10   52 2
    58   20   51 1
    59   21   23 ar
    60   29   58 1
    61   43   45 ar
    62   47   49 ar
@<TRIPOS>SUBSTRUCTURE
     1 RES1 1

@<TRIPOS>CRYSIN
   7.5045   24.6099   13.0441  90.0000  98.3840  90.0000 231 1

