# MOL2 file generated by ConQuest
# Please check atom types

@<TRIPOS>MOLECULE
GOJYEL
    56    56     1
SMALL
NO_CHARGES
****
Generated from CSD

@<TRIPOS>ATOM
      1 C1         0.2187    2.8553    1.7299 C.3       1 RES1    0.0000
      2 H1        -0.1978    2.0372    1.3335 H         1 RES1    0.0000
      3 C2         1.1945    2.3763    2.7877 C.3       1 RES1    0.0000
      4 H2         1.8115    1.7068    2.4006 H         1 RES1    0.0000
      5 H3         1.7304    3.1388    3.1233 H         1 RES1    0.0000
      6 C3         0.4100    1.7598    3.9206 C.2       1 RES1    0.0000
      7 C4         1.1295    0.9077    4.9227 C.2       1 RES1    0.0000
      8 C5         3.1577   -0.2000    5.4533 C.3       1 RES1    0.0000
      9 H4         2.8209   -1.1294    5.4166 H         1 RES1    0.0000
     10 H5         3.0787    0.1278    6.3846 H         1 RES1    0.0000
     11 C6         4.5855   -0.1461    5.0040 C.3       1 RES1    0.0000
     12 H6         4.6508   -0.4765    4.0831 H         1 RES1    0.0000
     13 H7         5.1350   -0.7060    5.5911 H         1 RES1    0.0000
     14 H8         4.9054    0.7790    5.0417 H         1 RES1    0.0000
     15 C7        -0.9060    1.9233    4.0675 C.2       1 RES1    0.0000
     16 H9        -1.3231    1.4807    4.7964 H         1 RES1    0.0000
     17 C8        -1.7842    2.7580    3.1659 C.3       1 RES1    0.0000
     18 H10       -2.3664    3.3240    3.7494 H         1 RES1    0.0000
     19 C9        -2.6892    1.8815    2.3261 C.2       1 RES1    0.0000
     20 H11       -2.2897    1.1373    1.8912 H         1 RES1    0.0000
     21 C10       -3.9980    2.0624    2.1425 C.2       1 RES1    0.0000
     22 C11       -4.7686    1.1555    1.2156 C.3       1 RES1    0.0000
     23 H12       -4.1625    0.4878    0.8324 H         1 RES1    0.0000
     24 H13       -5.1670    1.6868    0.4952 H         1 RES1    0.0000
     25 H14       -5.4779    0.7025    1.7179 H         1 RES1    0.0000
     26 C12       -4.8343    3.1223    2.7967 C.3       1 RES1    0.0000
     27 H15       -4.2746    3.6544    3.4004 H         1 RES1    0.0000
     28 H16       -5.5560    2.6988    3.3085 H         1 RES1    0.0000
     29 H17       -5.2194    3.7048    2.1093 H         1 RES1    0.0000
     30 C13       -0.9304    3.7109    2.2853 C.3       1 RES1    0.0000
     31 H18       -1.4937    4.0161    1.5175 H         1 RES1    0.0000
     32 C14       -0.4669    4.9542    3.0709 C.3       1 RES1    0.0000
     33 H19        0.0321    4.6282    3.8732 H         1 RES1    0.0000
     34 C15       -1.6272    5.8281    3.5785 C.3       1 RES1    0.0000
     35 H20       -2.1642    5.2716    4.2140 H         1 RES1    0.0000
     36 C16       -2.5745    6.3054    2.4772 C.3       1 RES1    0.0000
     37 H21       -3.2686    6.8758    2.8675 H         1 RES1    0.0000
     38 H22       -2.9914    5.5307    2.0469 H         1 RES1    0.0000
     39 H23       -2.0692    6.8166    1.8110 H         1 RES1    0.0000
     40 C17       -1.0730    7.0158    4.3684 C.3       1 RES1    0.0000
     41 H24       -0.6254    7.6357    3.7553 H         1 RES1    0.0000
     42 H25       -0.4300    6.6940    5.0346 H         1 RES1    0.0000
     43 H26       -1.8091    7.4783    4.8224 H         1 RES1    0.0000
     44 C18        1.7441    6.0115    2.6556 C.2       1 RES1    0.0000
     45 C19        2.5185    6.9427    1.7651 C.3       1 RES1    0.0000
     46 H27        2.3205    7.8704    2.0115 H         1 RES1    0.0000
     47 H28        2.2620    6.7906    0.8312 H         1 RES1    0.0000
     48 H29        3.4780    6.7740    1.8724 H         1 RES1    0.0000
     49 N1         0.9471    3.5613    0.6016 N.pl3     1 RES1    0.0000
     50 N2         0.4711    5.7489    2.2682 N.am      1 RES1    0.0000
     51 O1         0.2555    3.9601   -0.3432 O.2       1 RES1    0.0000
     52 O2         2.1554    3.6666    0.6387 O.2       1 RES1    0.0000
     53 O3         0.6369    0.4895    5.9372 O.2       1 RES1    0.0000
     54 O4         2.3856    0.6574    4.5452 O.3       1 RES1    0.0000
     55 O5         2.2485    5.5046    3.6502 O.2       1 RES1    0.0000
     56 H30        0.1409    6.2428    1.6861 H         1 RES1    0.0000
@<TRIPOS>BOND
     1    1    2 1
     2    3    1 1
     3    4    3 1
     4    5    3 1
     5    6    3 1
     6    7    6 1
     7    8    9 1
     8   10    8 1
     9   11    8 1
    10   12   11 1
    11   13   11 1
    12   14   11 1
    13   15    6 2
    14   16   15 1
    15   17   15 1
    16   18   17 1
    17   19   17 1
    18   20   19 1
    19   21   19 2
    20   22   21 1
    21   23   22 1
    22   24   22 1
    23   25   22 1
    24   26   21 1
    25   27   26 1
    26   28   26 1
    27   29   26 1
    28   30    1 1
    29   31   30 1
    30   32   30 1
    31   33   32 1
    32   34   32 1
    33   35   34 1
    34   36   34 1
    35   37   36 1
    36   38   36 1
    37   39   36 1
    38   40   34 1
    39   41   40 1
    40   42   40 1
    41   43   40 1
    42   44   45 1
    43   45   46 1
    44   47   45 1
    45   48   45 1
    46   49    1 1
    47   50   32 1
    48   51   49 2
    49   52   49 2
    50   53    7 2
    51   54    7 1
    52   55   44 2
    53   56   50 1
    54    8   54 1
    55   17   30 1
    56   44   50 1
@<TRIPOS>SUBSTRUCTURE
     1 RES1 1

@<TRIPOS>CRYSIN
   9.7735    8.6947   12.2310  90.0000 105.4210  90.0000   4 1

