# MOL2 file generated by ConQuest
# Please check atom types

@<TRIPOS>MOLECULE
GOKKOG
    76    78     1
SMALL
NO_CHARGES
****
Generated from CSD

@<TRIPOS>ATOM
      1 O1         3.7449   -3.4086    6.4532 O.2       1 RES1    0.0000
      2 O2         3.8821    6.2203    5.0631 O.2       1 RES1    0.0000
      3 O3        14.0131    1.2233    4.6097 O.2       1 RES1    0.0000
      4 N1         4.9950   -3.5494    6.1586 N.3       1 RES1    0.0000
      5 N2         5.0590    6.2764    5.5751 N.3       1 RES1    0.0000
      6 N3        13.4550    1.2833    5.7767 N.3       1 RES1    0.0000
      7 N4         7.8125    1.3378    5.7015 N.pl3     1 RES1    0.0000
      8 C1         7.1221    0.1108    5.8250 C.ar      1 RES1    0.0000
      9 C2         7.6785   -1.0687    5.3205 C.ar      1 RES1    0.0000
     10 C3         7.0254   -2.2804    5.4274 C.ar      1 RES1    0.0000
     11 C4         5.7637   -2.3658    6.0434 C.ar      1 RES1    0.0000
     12 C5         5.2115   -1.1864    6.5656 C.ar      1 RES1    0.0000
     13 C6         5.8796    0.0185    6.4680 C.ar      1 RES1    0.0000
     14 C7         5.4953   -4.9440    5.9338 C.3       1 RES1    0.0000
     15 C8         4.4038   -5.9064    6.4076 C.3       1 RES1    0.0000
     16 C9         5.7182   -5.1540    4.4285 C.3       1 RES1    0.0000
     17 C10        6.7560   -5.1886    6.7626 C.3       1 RES1    0.0000
     18 C11        7.1321    2.5851    5.6754 C.ar      1 RES1    0.0000
     19 C12        5.9014    2.7328    5.0027 C.ar      1 RES1    0.0000
     20 C13        5.2503    3.9492    4.9888 C.ar      1 RES1    0.0000
     21 C14        5.7950    5.0686    5.6234 C.ar      1 RES1    0.0000
     22 C15        7.0441    4.9324    6.2571 C.ar      1 RES1    0.0000
     23 C16        7.6849    3.7022    6.2915 C.ar      1 RES1    0.0000
     24 C17        5.5537    7.6283    6.0127 C.3       1 RES1    0.0000
     25 C18        4.4496    8.6300    5.7070 C.3       1 RES1    0.0000
     26 C19        5.8227    7.6375    7.5124 C.3       1 RES1    0.0000
     27 C20        6.7915    8.0091    5.2285 C.3       1 RES1    0.0000
     28 C21        9.2408    1.3343    5.7340 C.ar      1 RES1    0.0000
     29 C22        9.9716    1.9157    4.6998 C.ar      1 RES1    0.0000
     30 C23       11.3579    1.8973    4.7221 C.ar      1 RES1    0.0000
     31 C24       12.0422    1.3133    5.8018 C.ar      1 RES1    0.0000
     32 C25       11.3077    0.7201    6.8276 C.ar      1 RES1    0.0000
     33 C26        9.9184    0.7363    6.7932 C.ar      1 RES1    0.0000
     34 C27       14.3683    1.3525    6.9717 C.3       1 RES1    0.0000
     35 C28       13.7401    2.1973    8.0569 C.3       1 RES1    0.0000
     36 C29       15.6665    2.0150    6.5219 C.3       1 RES1    0.0000
     37 C30       14.6665   -0.0646    7.4558 C.3       1 RES1    0.0000
     38 H1         8.5251   -1.0363    4.9033 H         1 RES1    0.0000
     39 H2         7.4318   -3.0652    5.0901 H         1 RES1    0.0000
     40 H3         4.3617   -1.2164    7.0023 H         1 RES1    0.0000
     41 H4         5.4895    0.7986    6.8536 H         1 RES1    0.0000
     42 H5         3.6095   -5.7587    5.9142 H         1 RES1    0.0000
     43 H6         4.6927   -6.8020    6.2924 H         1 RES1    0.0000
     44 H7         4.2258   -5.7564    7.3387 H         1 RES1    0.0000
     45 H8         4.8984   -5.0155    3.9750 H         1 RES1    0.0000
     46 H9         6.3659   -4.5331    4.1246 H         1 RES1    0.0000
     47 H10        6.0234   -6.0380    4.2835 H         1 RES1    0.0000
     48 H11        7.0623   -6.0749    6.6260 H         1 RES1    0.0000
     49 H12        7.4294   -4.5723    6.5117 H         1 RES1    0.0000
     50 H13        6.5563   -5.0709    7.6927 H         1 RES1    0.0000
     51 H14        5.5154    1.9896    4.5651 H         1 RES1    0.0000
     52 H15        4.4148    4.0253    4.5483 H         1 RES1    0.0000
     53 H16        7.4513    5.6872    6.6734 H         1 RES1    0.0000
     54 H17        8.5144    3.6214    6.7542 H         1 RES1    0.0000
     55 H18        4.7277    9.5001    5.9793 H         1 RES1    0.0000
     56 H19        4.2641    8.6254    4.7844 H         1 RES1    0.0000
     57 H20        3.6630    8.3923    6.1949 H         1 RES1    0.0000
     58 H21        5.0305    7.3859    7.9854 H         1 RES1    0.0000
     59 H22        6.5159    7.0212    7.7234 H         1 RES1    0.0000
     60 H23        6.0817    8.5100    7.7912 H         1 RES1    0.0000
     61 H24        7.4745    7.3698    5.3948 H         1 RES1    0.0000
     62 H25        6.5827    8.0299    4.3105 H         1 RES1    0.0000
     63 H26        7.0888    8.8677    5.5147 H         1 RES1    0.0000
     64 H27        9.5150    2.3266    3.9843 H         1 RES1    0.0000
     65 H28       11.8454    2.2827    4.0141 H         1 RES1    0.0000
     66 H29       11.7576    0.3047    7.5617 H         1 RES1    0.0000
     67 H30        9.4246    0.3370    7.5087 H         1 RES1    0.0000
     68 H31       14.3197    2.2296    8.8170 H         1 RES1    0.0000
     69 H32       13.5925    3.0767    7.7392 H         1 RES1    0.0000
     70 H33       12.9079    1.8142    8.3236 H         1 RES1    0.0000
     71 H34       16.2646    2.0704    7.2662 H         1 RES1    0.0000
     72 H35       16.0613    1.4980    5.8390 H         1 RES1    0.0000
     73 H36       15.4804    2.8897    6.2079 H         1 RES1    0.0000
     74 H37       13.8512   -0.4962    7.7020 H         1 RES1    0.0000
     75 H38       15.0911   -0.5539    6.7709 H         1 RES1    0.0000
     76 H39       15.2363   -0.0277    8.2223 H         1 RES1    0.0000
@<TRIPOS>BOND
     1    1    4 1
     2    2    5 1
     3    3    6 1
     4    4   11 1
     5    5   21 1
     6    6   31 1
     7    7    8 1
     8    8    9 ar
     9    9   10 ar
    10   10   11 ar
    11   11   12 ar
    12   12   13 ar
    13   13    8 ar
    14   14    4 1
    15   15   14 1
    16   16   14 1
    17   17   14 1
    18   18    7 1
    19   19   18 ar
    20   20   19 ar
    21   21   20 ar
    22   22   21 ar
    23   23   18 ar
    24   24    5 1
    25   25   24 1
    26   26   24 1
    27   27   24 1
    28   28    7 1
    29   29   28 ar
    30   30   29 ar
    31   31   30 ar
    32   32   31 ar
    33   33   28 ar
    34   34    6 1
    35   35   34 1
    36   36   34 1
    37   37   34 1
    38   38    9 1
    39   39   10 1
    40   40   12 1
    41   41   13 1
    42   42   15 1
    43   43   15 1
    44   44   15 1
    45   45   16 1
    46   46   16 1
    47   47   16 1
    48   48   17 1
    49   49   17 1
    50   50   17 1
    51   51   19 1
    52   52   20 1
    53   53   22 1
    54   54   23 1
    55   55   25 1
    56   56   25 1
    57   57   25 1
    58   58   26 1
    59   59   26 1
    60   60   26 1
    61   61   27 1
    62   62   27 1
    63   63   27 1
    64   64   29 1
    65   65   30 1
    66   66   32 1
    67   67   33 1
    68   68   35 1
    69   69   35 1
    70   70   35 1
    71   71   36 1
    72   72   36 1
    73   73   36 1
    74   74   37 1
    75   75   37 1
    76   76   37 1
    77   22   23 ar
    78   32   33 ar
@<TRIPOS>SUBSTRUCTURE
     1 RES1 1

@<TRIPOS>CRYSIN
  13.1100   23.0810   10.4100  90.0000 116.8000  90.0000   9 1

