# MOL2 file generated by ConQuest
# Please check atom types

@<TRIPOS>MOLECULE
GOKLEX
   132   136     2
SMALL
NO_CHARGES
****
Generated from CSD

@<TRIPOS>ATOM
      1 C1         2.2580    1.0696    5.9656 C.3       1 RES1    0.0000
      2 H1         2.1812    0.2432    5.4442 H         1 RES1    0.0000
      3 C2         2.2596    2.2616    5.0331 C.3       1 RES1    0.0000
      4 H2         1.4012    2.3202    4.5890 H         1 RES1    0.0000
      5 H3         2.9393    2.1318    4.3519 H         1 RES1    0.0000
      6 C3         2.5357    3.5730    5.7695 C.3       1 RES1    0.0000
      7 H4         1.8142    3.7539    6.3928 H         1 RES1    0.0000
      8 H5         2.5728    4.3034    5.1319 H         1 RES1    0.0000
      9 C4         3.8626    3.4844    6.5308 C.3       1 RES1    0.0000
     10 H6         4.5888    3.3418    5.9038 H         1 RES1    0.0000
     11 H7         4.0273    4.3169    7.0003 H         1 RES1    0.0000
     12 C5         3.8093    2.3480    7.5128 C.3       1 RES1    0.0000
     13 H8         3.1295    2.5401    8.1771 H         1 RES1    0.0000
     14 H9         4.6630    2.2902    7.9709 H         1 RES1    0.0000
     15 C6         3.5037    0.9983    6.8698 C.3       1 RES1    0.0000
     16 H10        4.2649    0.7739    6.2949 H         1 RES1    0.0000
     17 C7         3.3506   -0.1426    7.8816 C.3       1 RES1    0.0000
     18 H11        2.6159    0.0691    8.4783 H         1 RES1    0.0000
     19 H12        3.1154   -0.9518    7.4023 H         1 RES1    0.0000
     20 C8         4.5918   -0.4151    8.7165 C.3       1 RES1    0.0000
     21 H13        4.8966    0.4264    9.1165 H         1 RES1    0.0000
     22 C9         4.3730   -1.4262    9.8119 C.3       1 RES1    0.0000
     23 H14        4.2269   -2.2932    9.4019 H         1 RES1    0.0000
     24 H15        3.5634   -1.1890   10.2883 H         1 RES1    0.0000
     25 C10        5.5074   -1.5606   10.8283 C.3       1 RES1    0.0000
     26 H16        6.2498   -2.0252   10.4132 H         1 RES1    0.0000
     27 H17        5.8137   -0.6748   11.0774 H         1 RES1    0.0000
     28 C11        5.0968   -2.3082   12.0781 C.3       1 RES1    0.0000
     29 H18        4.7442   -3.1759   11.8230 H         1 RES1    0.0000
     30 H19        4.3846   -1.8180   12.5176 H         1 RES1    0.0000
     31 C12        6.2313   -2.5101   13.0616 C.3       1 RES1    0.0000
     32 H20        5.9297   -3.0536   13.7916 H         1 RES1    0.0000
     33 H21        6.5212   -1.6581   13.3937 H         1 RES1    0.0000
     34 H22        6.9643   -2.9470   12.6206 H         1 RES1    0.0000
     35 O1         5.6137   -0.8887    7.7593 O.3       1 RES1    0.0000
     36 O2         7.2550    0.1629    8.8969 O.2       1 RES1    0.0000
     37 C13        6.8653   -0.4706    7.9343 C.2       1 RES1    0.0000
     38 C14        7.7645   -0.8317    6.7970 C.ar      1 RES1    0.0000
     39 C15        9.0959   -0.4264    6.8967 C.ar      1 RES1    0.0000
     40 H23        9.3824    0.0353    7.6517 H         1 RES1    0.0000
     41 C16        9.9860   -0.7033    5.8892 C.ar      1 RES1    0.0000
     42 H24       10.8750   -0.4384    5.9579 H         1 RES1    0.0000
     43 C17        9.5385   -1.3834    4.7682 C.ar      1 RES1    0.0000
     44 C18        8.2194   -1.8053    4.6325 C.ar      1 RES1    0.0000
     45 H25        7.9387   -2.2669    3.8767 H         1 RES1    0.0000
     46 C19        7.3325   -1.5103    5.6724 C.ar      1 RES1    0.0000
     47 H26        6.4428   -1.7737    5.6068 H         1 RES1    0.0000
     48 N1        10.4850   -1.6634    3.6894 N.pl3     1 RES1    0.0000
     49 O3        11.5995   -1.1395    3.7593 O.2       1 RES1    0.0000
     50 O4        10.1317   -2.3622    2.7709 O.2       1 RES1    0.0000
     51 O5         1.1087    1.1845    6.8884 O.3       1 RES1    0.0000
     52 O6        -0.2689    0.2432    5.3715 O.2       1 RES1    0.0000
     53 C20       -0.0691    0.6951    6.4661 C.2       1 RES1    0.0000
     54 C21       -1.1024    0.7747    7.5437 C.ar      1 RES1    0.0000
     55 C22       -2.4090    0.4421    7.2048 C.ar      1 RES1    0.0000
     56 H27       -2.6039    0.1389    6.3473 H         1 RES1    0.0000
     57 C23       -3.4174    0.5615    8.1399 C.ar      1 RES1    0.0000
     58 H28       -4.2955    0.3460    7.9225 H         1 RES1    0.0000
     59 C24       -3.0920    1.0073    9.4045 C.ar      1 RES1    0.0000
     60 C25       -1.7951    1.3031    9.7724 C.ar      1 RES1    0.0000
     61 H29       -1.5996    1.5733   10.6405 H         1 RES1    0.0000
     62 C26       -0.7964    1.1920    8.8322 C.ar      1 RES1    0.0000
     63 H30        0.0819    1.3954    9.0595 H         1 RES1    0.0000
     64 N2        -4.1533    1.2160   10.3951 N.pl3     1 RES1    0.0000
     65 O7        -3.8496    1.6942   11.4866 O.2       1 RES1    0.0000
     66 O8        -5.3151    0.9450   10.0722 O.2       1 RES1    0.0000
     67 C27        3.4873    4.8363    1.8960 C.3       2 RES2    0.0000
     68 H31        3.5884    4.0241    2.4345 H         2 RES2    0.0000
     69 C28        3.4474    6.0306    2.8001 C.3       2 RES2    0.0000
     70 H32        4.3081    6.1184    3.2411 H         2 RES2    0.0000
     71 H33        2.7792    5.8812    3.4873 H         2 RES2    0.0000
     72 C29        3.1295    7.3322    2.0786 C.3       2 RES2    0.0000
     73 H34        3.0669    8.0573    2.7200 H         2 RES2    0.0000
     74 H35        3.8394    7.5423    1.4516 H         2 RES2    0.0000
     75 C30        1.8211    7.1805    1.3428 C.3       2 RES2    0.0000
     76 H36        1.6123    8.0070    0.8790 H         2 RES2    0.0000
     77 H37        1.1089    7.0049    1.9784 H         2 RES2    0.0000
     78 C31        1.8977    6.0261    0.3258 C.3       2 RES2    0.0000
     79 H38        1.0440    5.9405   -0.1268 H         2 RES2    0.0000
     80 H39        2.5704    6.2302   -0.3416 H         2 RES2    0.0000
     81 C32        2.2429    4.7057    1.0024 C.3       2 RES2    0.0000
     82 H40        1.4905    4.4723    1.5853 H         2 RES2    0.0000
     83 C33        2.4092    3.5625    0.0003 C.3       2 RES2    0.0000
     84 H41        3.1337    3.7899   -0.6033 H         2 RES2    0.0000
     85 H42        2.6765    2.7668    0.4873 H         2 RES2    0.0000
     86 C34        1.1964    3.2255   -0.8243 C.3       2 RES2    0.0000
     87 H43        0.8964    4.0279   -1.3010 H         2 RES2    0.0000
     88 C35        1.4407    2.0913   -1.8381 C.3       2 RES2    0.0000
     89 H44        2.2990    2.2474   -2.2619 H         2 RES2    0.0000
     90 H45        1.5103    1.2588   -1.3457 H         2 RES2    0.0000
     91 C36        0.4037    1.9013   -2.9376 C.3       2 RES2    0.0000
     92 H46        0.5893    1.0719   -3.4042 H         2 RES2    0.0000
     93 H47       -0.4733    1.8233   -2.5310 H         2 RES2    0.0000
     94 C37        0.3874    3.0325   -3.9311 C.3       2 RES2    0.0000
     95 H48        1.2806    3.1617   -4.2890 H         2 RES2    0.0000
     96 H49        0.1230    3.8515   -3.4844 H         2 RES2    0.0000
     97 C38       -0.5846    2.7496   -5.0878 C.3       2 RES2    0.0000
     98 H50       -0.5498    3.4717   -5.7177 H         2 RES2    0.0000
     99 H51       -1.4778    2.6700   -4.7413 H         2 RES2    0.0000
    100 H52       -0.3341    1.9314   -5.5201 H         2 RES2    0.0000
    101 O9         0.1578    2.8126    0.1343 O.3       2 RES2    0.0000
    102 O10       -1.4511    3.8342   -1.0425 O.2       2 RES2    0.0000
    103 C39       -1.0892    3.2412   -0.0633 C.2       2 RES2    0.0000
    104 C40       -1.9995    2.9139    1.0699 C.ar      2 RES2    0.0000
    105 C41       -3.3246    3.3441    0.9603 C.ar      2 RES2    0.0000
    106 H53       -3.5984    3.8064    0.2013 H         2 RES2    0.0000
    107 C42       -4.2276    3.0881    1.9658 C.ar      2 RES2    0.0000
    108 H54       -5.1080    3.3816    1.9017 H         2 RES2    0.0000
    109 C43       -3.7965    2.3893    3.0678 C.ar      2 RES2    0.0000
    110 C44       -2.4893    1.9396    3.2067 C.ar      2 RES2    0.0000
    111 H55       -2.2271    1.4697    3.9654 H         2 RES2    0.0000
    112 C45       -1.5956    2.2023    2.2055 C.ar      2 RES2    0.0000
    113 H56       -0.7168    1.9074    2.2793 H         2 RES2    0.0000
    114 N3        -4.7739    2.1220    4.1475 N.pl3     2 RES2    0.0000
    115 O11       -5.8782    2.6407    4.0539 O.2       2 RES2    0.0000
    116 O12       -4.4315    1.4217    5.0714 O.2       2 RES2    0.0000
    117 O13        4.6296    4.9594    0.9786 O.3       2 RES2    0.0000
    118 O14        6.0127    3.9926    2.4694 O.2       2 RES2    0.0000
    119 C46        5.8030    4.4647    1.3663 C.2       2 RES2    0.0000
    120 C47        6.8335    4.5894    0.3081 C.ar      2 RES2    0.0000
    121 C48        8.1364    4.1900    0.5984 C.ar      2 RES2    0.0000
    122 H57        8.3324    3.8342    1.4347 H         2 RES2    0.0000
    123 C49        9.1411    4.3184   -0.3424 C.ar      2 RES2    0.0000
    124 H58       10.0143    4.0639   -0.1483 H         2 RES2    0.0000
    125 C50        8.8077    4.8371   -1.5836 C.ar      2 RES2    0.0000
    126 C51        7.5160    5.2049   -1.9186 C.ar      2 RES2    0.0000
    127 H59        7.3188    5.5321   -2.7663 H         2 RES2    0.0000
    128 C52        6.5296    5.0743   -0.9669 C.ar      2 RES2    0.0000
    129 H60        5.6543    5.3100   -1.1742 H         2 RES2    0.0000
    130 N4         9.8754    5.0232   -2.5731 N.pl3     2 RES2    0.0000
    131 O15        9.5540    5.4368   -3.6788 O.2       2 RES2    0.0000
    132 O16       11.0216    4.7853   -2.2413 O.2       2 RES2    0.0000
@<TRIPOS>BOND
     1    1    2 1
     2    3    1 1
     3    4    3 1
     4    5    3 1
     5    6    3 1
     6    7    6 1
     7    8    6 1
     8    9    6 1
     9   10    9 1
    10   11    9 1
    11   12    9 1
    12   13   12 1
    13   14   12 1
    14   15    1 1
    15   16   15 1
    16   17   15 1
    17   18   17 1
    18   19   17 1
    19   20   17 1
    20   21   20 1
    21   22   20 1
    22   23   22 1
    23   24   22 1
    24   25   22 1
    25   26   25 1
    26   27   25 1
    27   28   25 1
    28   29   28 1
    29   30   28 1
    30   31   28 1
    31   32   31 1
    32   33   31 1
    33   34   31 1
    34   35   20 1
    35   36   37 2
    36   37   35 1
    37   38   37 1
    38   39   38 ar
    39   40   39 1
    40   41   39 ar
    41   42   41 1
    42   43   41 ar
    43   44   43 ar
    44   45   44 1
    45   46   38 ar
    46   47   46 1
    47   48   43 1
    48   49   48 2
    49   50   48 2
    50   51    1 1
    51   52   53 2
    52   53   51 1
    53   54   53 1
    54   55   54 ar
    55   56   55 1
    56   57   55 ar
    57   58   57 1
    58   59   57 ar
    59   60   59 ar
    60   61   60 1
    61   62   54 ar
    62   63   62 1
    63   64   59 1
    64   65   64 2
    65   66   64 2
    66   67   68 1
    67   69   67 1
    68   70   69 1
    69   71   69 1
    70   72   69 1
    71   73   72 1
    72   74   72 1
    73   75   72 1
    74   76   75 1
    75   77   75 1
    76   78   75 1
    77   79   78 1
    78   80   78 1
    79   81   67 1
    80   82   81 1
    81   83   81 1
    82   84   83 1
    83   85   83 1
    84   86   83 1
    85   87   86 1
    86   88   86 1
    87   89   88 1
    88   90   88 1
    89   91   88 1
    90   92   91 1
    91   93   91 1
    92   94   91 1
    93   95   94 1
    94   96   94 1
    95   97   94 1
    96   98   97 1
    97   99   97 1
    98  100   97 1
    99  101   86 1
   100  102  103 2
   101  103  101 1
   102  104  103 1
   103  105  104 ar
   104  106  105 1
   105  107  105 ar
   106  108  107 1
   107  109  107 ar
   108  110  109 ar
   109  111  110 1
   110  112  104 ar
   111  113  112 1
   112  114  109 1
   113  115  114 2
   114  116  114 2
   115  117   67 1
   116  118  119 2
   117  119  117 1
   118  120  119 1
   119  121  120 ar
   120  122  121 1
   121  123  121 ar
   122  124  123 1
   123  125  123 ar
   124  126  125 ar
   125  127  126 1
   126  128  120 ar
   127  129  128 1
   128  130  125 1
   129  131  130 2
   130  132  130 2
   131   12   15 1
   132   44   46 ar
   133   60   62 ar
   134   78   81 1
   135  110  112 ar
   136  126  128 ar
@<TRIPOS>SUBSTRUCTURE
     1 RES1 1
     2 RES2 67

@<TRIPOS>CRYSIN
  23.1990    7.5063   28.6312  90.0000  90.0000  90.0000  33 1

