# MOL2 file generated by ConQuest
# Please check atom types

@<TRIPOS>MOLECULE
GOLDOB
    59    59     1
SMALL
NO_CHARGES
****
Generated from CSD

@<TRIPOS>ATOM
      1 N1        -0.7183    1.5738   14.0958 N.am      1 RES1    0.0000
      2 N2        -2.7608    1.0440   12.0109 N.am      1 RES1    0.0000
      3 N3         0.0526   -0.8175   11.0997 N.2       1 RES1    0.0000
      4 O1        -1.9645    1.9265   15.9075 O.3       1 RES1    0.0000
      5 O2        -0.3434    3.4081   15.3636 O.2       1 RES1    0.0000
      6 O3        -2.0948    0.8807    9.8821 O.3       1 RES1    0.0000
      7 O4        -4.0272    1.9395   10.3466 O.2       1 RES1    0.0000
      8 O5         1.3095   -0.5174   10.5025 O.3       1 RES1    0.0000
      9 C1        -1.3443    0.2735   13.8933 C.3       1 RES1    0.0000
     10 H1        -2.1363    0.2129   14.4503 H         1 RES1    0.0000
     11 H2        -0.7272   -0.4215   14.1742 H         1 RES1    0.0000
     12 C2        -1.7457    0.0266   12.4191 C.3       1 RES1    0.0000
     13 C3        -0.4438    0.2191   11.6646 C.2       1 RES1    0.0000
     14 C4         0.2036    1.5534   11.8198 C.3       1 RES1    0.0000
     15 H3        -0.3779    2.2434   11.4643 H         1 RES1    0.0000
     16 H4         1.0378    1.5732   11.3239 H         1 RES1    0.0000
     17 C5         0.4734    1.8182   13.2978 C.3       1 RES1    0.0000
     18 H5         1.1896    1.2408   13.6032 H         1 RES1    0.0000
     19 H6         0.7582    2.7385   13.4136 H         1 RES1    0.0000
     20 C6        -0.9568    2.3864   15.1498 C.2       1 RES1    0.0000
     21 C7        -2.5331    2.7416   16.9980 C.3       1 RES1    0.0000
     22 C8        -1.5238    2.9483   18.0913 C.3       1 RES1    0.0000
     23 H7        -1.1894    2.0967   18.3840 H         1 RES1    0.0000
     24 H8        -1.9389    3.4001   18.8287 H         1 RES1    0.0000
     25 H9        -0.7973    3.4799   17.7592 H         1 RES1    0.0000
     26 C9        -3.0469    4.0499   16.4457 C.3       1 RES1    0.0000
     27 H10       -2.3045    4.6174   16.2264 H         1 RES1    0.0000
     28 H11       -3.5966    4.4812   17.1040 H         1 RES1    0.0000
     29 H12       -3.5659    3.8816   15.6555 H         1 RES1    0.0000
     30 C10       -3.6606    1.8715   17.4751 C.3       1 RES1    0.0000
     31 H13       -4.2681    1.7093   16.7506 H         1 RES1    0.0000
     32 H14       -4.1245    2.3133   18.1898 H         1 RES1    0.0000
     33 H15       -3.3080    1.0360   17.7920 H         1 RES1    0.0000
     34 C11       -2.3291   -1.3764   12.2946 C.3       1 RES1    0.0000
     35 H16       -3.1489   -1.4271   12.7911 H         1 RES1    0.0000
     36 H17       -1.7043   -2.0150   12.6437 H         1 RES1    0.0000
     37 H18       -2.5036   -1.5701   11.3707 H         1 RES1    0.0000
     38 C12       -3.0461    1.3324   10.7140 C.2       1 RES1    0.0000
     39 C13       -3.8224    1.3795   12.9599 C.3       1 RES1    0.0000
     40 H19       -4.4199    2.0157   12.5595 H         1 RES1    0.0000
     41 H20       -3.4342    1.7582   13.7529 H         1 RES1    0.0000
     42 H21       -4.3089    0.5842   13.1890 H         1 RES1    0.0000
     43 C14       -2.1290    1.1666    8.4514 C.3       1 RES1    0.0000
     44 C15       -2.1650    2.6525    8.2117 C.3       1 RES1    0.0000
     45 H22       -3.0216    2.9978    8.4713 H         1 RES1    0.0000
     46 H23       -2.0164    2.8301    7.2801 H         1 RES1    0.0000
     47 H24       -1.4794    3.0770    8.7310 H         1 RES1    0.0000
     48 C16       -0.8271    0.5663    7.9782 C.3       1 RES1    0.0000
     49 H25       -0.0993    0.9469    8.4759 H         1 RES1    0.0000
     50 H26       -0.7077    0.7532    7.0438 H         1 RES1    0.0000
     51 H27       -0.8448   -0.3843    8.1132 H         1 RES1    0.0000
     52 C17       -3.3066    0.4425    7.8373 C.3       1 RES1    0.0000
     53 H28       -3.2859   -0.4815    8.0968 H         1 RES1    0.0000
     54 H29       -3.2601    0.5087    6.8800 H         1 RES1    0.0000
     55 H30       -4.1234    0.8417    8.1460 H         1 RES1    0.0000
     56 C18        1.7735   -1.6963    9.8552 C.3       1 RES1    0.0000
     57 H31        1.9867   -2.3610   10.5142 H         1 RES1    0.0000
     58 H32        2.5597   -1.4921    9.3418 H         1 RES1    0.0000
     59 H33        1.0880   -2.0318    9.2716 H         1 RES1    0.0000
@<TRIPOS>BOND
     1    1    9 1
     2    2   12 1
     3    3    8 1
     4    4   20 1
     5    5   20 2
     6    6   38 1
     7    7   38 2
     8    8   56 1
     9    9   10 1
    10   11    9 1
    11   12    9 1
    12   13    3 2
    13   14   13 1
    14   15   14 1
    15   16   14 1
    16   17    1 1
    17   18   17 1
    18   19   17 1
    19   20    1 1
    20   21    4 1
    21   22   21 1
    22   23   22 1
    23   24   22 1
    24   25   22 1
    25   26   21 1
    26   27   26 1
    27   28   26 1
    28   29   26 1
    29   30   21 1
    30   31   30 1
    31   32   30 1
    32   33   30 1
    33   34   12 1
    34   35   34 1
    35   36   34 1
    36   37   34 1
    37   38    2 1
    38   39    2 1
    39   40   39 1
    40   41   39 1
    41   42   39 1
    42   43    6 1
    43   44   43 1
    44   45   44 1
    45   46   44 1
    46   47   44 1
    47   48   43 1
    48   49   48 1
    49   50   48 1
    50   51   48 1
    51   52   43 1
    52   53   52 1
    53   54   52 1
    54   55   52 1
    55   56   57 1
    56   58   56 1
    57   59   56 1
    58   12   13 1
    59   14   17 1
@<TRIPOS>SUBSTRUCTURE
     1 RES1 1

@<TRIPOS>CRYSIN
  28.8670    6.1887   25.3790  90.0000 112.7690  90.0000  15 1

