# MOL2 file generated by ConQuest
# Please check atom types

@<TRIPOS>MOLECULE
GOLVAE
    29    30     1
SMALL
NO_CHARGES
****
Generated from CSD

@<TRIPOS>ATOM
      1 N1         4.9329    1.4903    6.3037 N.ar      1 RES1    0.0000
      2 C1         4.9536    0.5434    5.4034 C.ar      1 RES1    0.0000
      3 C2         4.8957   -0.8169    5.6685 C.ar      1 RES1    0.0000
      4 C3         4.8036   -1.2253    6.9613 C.ar      1 RES1    0.0000
      5 C4         4.6878   -0.5710    9.3655 C.ar      1 RES1    0.0000
      6 C5         4.7003    0.3987   10.3399 C.ar      1 RES1    0.0000
      7 C6         4.7908    1.7395    9.9124 C.ar      1 RES1    0.0000
      8 C7         4.8541    2.0653    8.6043 C.ar      1 RES1    0.0000
      9 C8         4.8535    1.0928    7.6040 C.ar      1 RES1    0.0000
     10 C9         4.7774   -0.2577    7.9813 C.ar      1 RES1    0.0000
     11 C10        4.5934   -1.9693    9.7006 C.1       1 RES1    0.0000
     12 N2         4.5228   -3.0743    9.9241 N.1       1 RES1    0.0000
     13 C11        4.5354    0.0936   11.8253 C.3       1 RES1    0.0000
     14 C12        4.8832    1.2496   12.7488 C.3       1 RES1    0.0000
     15 C13        3.1431   -0.4291   12.1109 C.3       1 RES1    0.0000
     16 N3         5.5676   -0.9810   12.2200 N.pl3     1 RES1    0.0000
     17 O1         6.6854   -0.8740   11.7700 O.2       1 RES1    0.0000
     18 O2         5.2454   -1.8142   13.0287 O.2       1 RES1    0.0000
     19 H1         5.0505    0.8497    4.5323 H         1 RES1    0.0000
     20 H2         4.9535   -1.4624    4.9858 H         1 RES1    0.0000
     21 H3         4.7038   -2.1431    7.1967 H         1 RES1    0.0000
     22 H4         4.7689    2.4069   10.5542 H         1 RES1    0.0000
     23 H5         4.9658    2.9150    8.3447 H         1 RES1    0.0000
     24 H6         4.1885    1.9754   12.6375 H         1 RES1    0.0000
     25 H7         5.8158    1.5973   12.4604 H         1 RES1    0.0000
     26 H8         4.8282    0.8619   13.6168 H         1 RES1    0.0000
     27 H9         3.0730   -1.2533   11.5958 H         1 RES1    0.0000
     28 H10        3.1457   -0.7002   13.0272 H         1 RES1    0.0000
     29 H11        2.4792    0.1568   11.9827 H         1 RES1    0.0000
@<TRIPOS>BOND
     1    1    2 ar
     2    2    3 ar
     3    3    4 ar
     4    4   10 ar
     5    5    6 ar
     6    6    7 ar
     7    7    8 ar
     8    8    9 ar
     9    9    1 ar
    10   10    5 ar
    11   11    5 1
    12   12   11 3
    13   13    6 1
    14   14   13 1
    15   15   13 1
    16   16   13 1
    17   17   16 2
    18   18   16 2
    19   19    2 1
    20   20    3 1
    21   21    4 1
    22   22    7 1
    23   23    8 1
    24   24   14 1
    25   25   14 1
    26   26   14 1
    27   27   15 1
    28   28   15 1
    29   29   15 1
    30    9   10 ar
@<TRIPOS>SUBSTRUCTURE
     1 RES1 1

@<TRIPOS>CRYSIN
   6.8420   12.1560   14.1840  90.0000  92.3200  90.0000  14 1

