# MOL2 file generated by ConQuest
# Please check atom types

@<TRIPOS>MOLECULE
GOLWEK
    52    53     1
SMALL
NO_CHARGES
****
Generated from CSD

@<TRIPOS>ATOM
      1 O1        -2.6697   12.1053   17.3444 O.2       1 RES1    0.0000
      2 O2        -2.9240    2.9052   12.9781 O.2       1 RES1    0.0000
      3 O3        -5.0452    2.5059   13.2511 O.2       1 RES1    0.0000
      4 N1        -3.6893   10.2834   16.5380 N.am      1 RES1    0.0000
      5 H1        -4.4333   10.5517   16.9476 H         1 RES1    0.0000
      6 N2        -3.5988    9.0738   15.8875 N.2       1 RES1    0.0000
      7 N3        -4.0576    3.2320   13.3479 N.pl3     1 RES1    0.0000
      8 C1        -0.2790    8.3342   16.4103 C.ar      1 RES1    0.0000
      9 H2        -0.5969    8.0841   15.5723 H         1 RES1    0.0000
     10 C2         0.4545    7.4252   17.1600 C.ar      1 RES1    0.0000
     11 H3         0.6315    6.5824   16.8090 H         1 RES1    0.0000
     12 C3         0.9314    7.7525   18.4315 C.ar      1 RES1    0.0000
     13 C4         0.6663    9.0364   18.9123 C.ar      1 RES1    0.0000
     14 H4         0.9780    9.2831   19.7526 H         1 RES1    0.0000
     15 C5        -0.0580    9.9553   18.1536 C.ar      1 RES1    0.0000
     16 H5        -0.2165   10.8062   18.4931 H         1 RES1    0.0000
     17 C6        -0.5479    9.6159   16.8901 C.ar      1 RES1    0.0000
     18 C7        -1.2876   10.6243   16.0205 C.3       1 RES1    0.0000
     19 H6        -1.5146   10.1897   15.1723 H         1 RES1    0.0000
     20 C8        -2.5816   11.0697   16.6888 C.2       1 RES1    0.0000
     21 C9        -4.6815    8.3659   15.8154 C.2       1 RES1    0.0000
     22 C10       -4.5375    7.0524   15.1357 C.ar      1 RES1    0.0000
     23 C11       -3.4022    6.7661   14.3527 C.ar      1 RES1    0.0000
     24 H7        -2.7554    7.4226   14.2268 H         1 RES1    0.0000
     25 C12       -3.2357    5.5241   13.7703 C.ar      1 RES1    0.0000
     26 H8        -2.4748    5.3351   13.2690 H         1 RES1    0.0000
     27 C13       -4.2238    4.5609   13.9458 C.ar      1 RES1    0.0000
     28 C14       -5.3681    4.8174   14.6903 C.ar      1 RES1    0.0000
     29 H9        -6.0241    4.1669   14.7899 H         1 RES1    0.0000
     30 C15       -5.5104    6.0614   15.2793 C.ar      1 RES1    0.0000
     31 H10       -6.2723    6.2417   15.7828 H         1 RES1    0.0000
     32 C16        1.6764    6.7227   19.2448 C.3       1 RES1    0.0000
     33 H11        2.1764    7.1752   19.9421 H         1 RES1    0.0000
     34 H12        2.3150    6.2717   18.6702 H         1 RES1    0.0000
     35 C17        0.7552    5.6649   19.8961 C.3       1 RES1    0.0000
     36 H13        0.1391    5.3336   19.2105 H         1 RES1    0.0000
     37 C18        1.5781    4.4870   20.4041 C.3       1 RES1    0.0000
     38 H14        0.9970    3.8500   20.8279 H         1 RES1    0.0000
     39 H15        2.2271    4.8000   21.0385 H         1 RES1    0.0000
     40 H16        2.0275    4.0689   19.6666 H         1 RES1    0.0000
     41 C19       -0.0760    6.2765   21.0279 C.3       1 RES1    0.0000
     42 H17       -0.7082    5.6284   21.3472 H         1 RES1    0.0000
     43 H18       -0.5457    7.0471   20.6999 H         1 RES1    0.0000
     44 H19        0.5049    6.5373   21.7472 H         1 RES1    0.0000
     45 C20       -0.4134   11.8457   15.7147 C.3       1 RES1    0.0000
     46 H20        0.3690   11.5666   15.2355 H         1 RES1    0.0000
     47 H21       -0.1513   12.2661   16.5371 H         1 RES1    0.0000
     48 H22       -0.9104   12.4692   15.1811 H         1 RES1    0.0000
     49 C21       -5.9981    8.7994   16.3959 C.3       1 RES1    0.0000
     50 H23       -6.2493    9.6475   16.0231 H         1 RES1    0.0000
     51 H24       -5.9174    8.8808   17.3493 H         1 RES1    0.0000
     52 H25       -6.6698    8.1465   16.1863 H         1 RES1    0.0000
@<TRIPOS>BOND
     1    1   20 2
     2    2    7 2
     3    3    7 2
     4    4    5 1
     5    6    4 1
     6    7   27 1
     7    8    9 1
     8   10    8 ar
     9   11   10 1
    10   12   10 ar
    11   13   12 ar
    12   14   13 1
    13   15   13 ar
    14   16   15 1
    15   17    8 ar
    16   18   17 1
    17   19   18 1
    18   20    4 1
    19   21    6 2
    20   22   21 1
    21   23   22 ar
    22   24   23 1
    23   25   23 ar
    24   26   25 1
    25   27   25 ar
    26   28   27 ar
    27   29   28 1
    28   30   22 ar
    29   31   30 1
    30   32   12 1
    31   33   32 1
    32   34   32 1
    33   35   32 1
    34   36   35 1
    35   37   35 1
    36   38   37 1
    37   39   37 1
    38   40   37 1
    39   41   35 1
    40   42   41 1
    41   43   41 1
    42   44   41 1
    43   45   18 1
    44   46   45 1
    45   47   45 1
    46   48   45 1
    47   49   21 1
    48   50   49 1
    49   51   49 1
    50   52   49 1
    51   15   17 ar
    52   18   20 1
    53   28   30 ar
@<TRIPOS>SUBSTRUCTURE
     1 RES1 1

@<TRIPOS>CRYSIN
  13.7343    7.9039   20.8408  90.0000 122.6770  90.0000  14 1

