# MOL2 file generated by ConQuest
# Please check atom types

@<TRIPOS>MOLECULE
GOLYAH
    36    39     1
SMALL
NO_CHARGES
****
Generated from CSD

@<TRIPOS>ATOM
      1 O1        12.5067    4.2644   -0.8969 O.2       1 RES1    0.0000
      2 O2        12.4420    5.2196   -2.8031 O.2       1 RES1    0.0000
      3 O3         9.7449    8.7937    2.5502 O.2       1 RES1    0.0000
      4 N1        12.3509    5.2344   -1.5900 N.pl3     1 RES1    0.0000
      5 C1        12.0501    6.5738   -0.9482 C.3       1 RES1    0.0000
      6 H1        11.4241    7.0718   -1.5143 H         1 RES1    0.0000
      7 C2        13.3678    7.3428   -0.8527 C.3       1 RES1    0.0000
      8 H2        13.7837    7.3736   -1.7288 H         1 RES1    0.0000
      9 H3        13.9680    6.8721   -0.2544 H         1 RES1    0.0000
     10 C3        13.1661    8.7757   -0.3403 C.3       1 RES1    0.0000
     11 H4        12.8930    9.3201   -1.1077 H         1 RES1    0.0000
     12 C4        12.0608    8.8483    0.6671 C.2       1 RES1    0.0000
     13 H5        11.8902    9.6664    1.0742 H         1 RES1    0.0000
     14 C5        11.3112    7.8087    1.0100 C.2       1 RES1    0.0000
     15 C6        10.0475    7.8930    1.7938 C.2       1 RES1    0.0000
     16 C7         9.1893    6.7045    1.4412 C.3       1 RES1    0.0000
     17 H6         8.4014    6.9985    0.9387 H         1 RES1    0.0000
     18 C8         8.7553    5.7811    2.6192 C.3       1 RES1    0.0000
     19 H7         7.9931    6.0946    3.1503 H         1 RES1    0.0000
     20 C9        10.0051    5.4442    3.3963 C.2       1 RES1    0.0000
     21 H8        10.2262    5.7538    4.2450 H         1 RES1    0.0000
     22 C10       10.7272    4.6285    2.6489 C.2       1 RES1    0.0000
     23 H9        11.5451    4.2518    2.8829 H         1 RES1    0.0000
     24 C11        9.9901    4.4148    1.3439 C.3       1 RES1    0.0000
     25 H10       10.2352    3.6115    0.8393 H         1 RES1    0.0000
     26 C12       10.0620    5.7638    0.5591 C.3       1 RES1    0.0000
     27 H11        9.6589    5.6610   -0.3277 H         1 RES1    0.0000
     28 C13       11.4568    6.4159    0.4381 C.3       1 RES1    0.0000
     29 H12       12.0872    5.9129    0.9944 H         1 RES1    0.0000
     30 C14        8.5438    4.4717    1.8523 C.3       1 RES1    0.0000
     31 H13        7.8937    4.5528    1.1364 H         1 RES1    0.0000
     32 H14        8.3165    3.7262    2.4298 H         1 RES1    0.0000
     33 C15       14.4704    9.3661    0.1876 C.3       1 RES1    0.0000
     34 H15       14.3077   10.2497    0.5264 H         1 RES1    0.0000
     35 H16       15.1135    9.4106   -0.5246 H         1 RES1    0.0000
     36 H17       14.8117    8.8101    0.8923 H         1 RES1    0.0000
@<TRIPOS>BOND
     1    1    4 2
     2    2    4 2
     3    3   15 2
     4    4    5 1
     5    5    6 1
     6    7    5 1
     7    8    7 1
     8    9    7 1
     9   10    7 1
    10   11   10 1
    11   12   10 1
    12   13   12 1
    13   14   12 2
    14   15   14 1
    15   16   15 1
    16   17   16 1
    17   18   16 1
    18   19   18 1
    19   20   18 1
    20   21   20 1
    21   22   20 2
    22   23   22 1
    23   24   22 1
    24   25   24 1
    25   26   16 1
    26   27   26 1
    27   28    5 1
    28   29   28 1
    29   30   18 1
    30   31   30 1
    31   32   30 1
    32   33   10 1
    33   34   33 1
    34   35   33 1
    35   36   33 1
    36   14   28 1
    37   24   26 1
    38   24   30 1
    39   26   28 1
@<TRIPOS>SUBSTRUCTURE
     1 RES1 1

@<TRIPOS>CRYSIN
  18.0675    7.7986    9.2847  90.0000  90.0000  90.0000  29 1

