# MOL2 file generated by ConQuest
# Please check atom types

@<TRIPOS>MOLECULE
GOLYIP
    76    78     2
SMALL
NO_CHARGES
****
Generated from CSD

@<TRIPOS>ATOM
      1 O1         2.3468    2.3711    0.0975 O.3       1 RES1    0.0000
      2 O2         0.5620    1.6441    4.3079 O.3       1 RES1    0.0000
      3 N1         1.4286    5.1000    2.1803 N.3       1 RES1    0.0000
      4 N2         2.1268    3.7193    0.4702 N.2       1 RES1    0.0000
      5 N3         0.8911    2.8311    3.6660 N.2       1 RES1    0.0000
      6 C1         2.2086   12.7086    1.6527 C.ar      1 RES1    0.0000
      7 C2         1.1843   12.0099    1.0857 C.ar      1 RES1    0.0000
      8 C3         0.6916   10.8564    1.6863 C.ar      1 RES1    0.0000
      9 C4         1.2362   10.3960    2.8679 C.ar      1 RES1    0.0000
     10 C5         2.2801   11.1121    3.4286 C.ar      1 RES1    0.0000
     11 C6         2.7531   12.2658    2.8292 C.ar      1 RES1    0.0000
     12 C7         0.6977    9.1574    3.5408 C.3       1 RES1    0.0000
     13 C8         0.7261    7.8918    2.6809 C.3       1 RES1    0.0000
     14 C9         2.1441    7.4459    2.3298 C.3       1 RES1    0.0000
     15 C10        2.1468    6.1780    1.4812 C.3       1 RES1    0.0000
     16 C11        0.0327    5.4932    2.4906 C.3       1 RES1    0.0000
     17 C12        0.0062    6.7316    3.3550 C.3       1 RES1    0.0000
     18 C13        1.5771    3.8202    1.6296 C.2       1 RES1    0.0000
     19 C14        1.1721    2.6602    2.4428 C.2       1 RES1    0.0000
     20 O3         2.9870    4.5897    4.9996 O.3       2 RES2    0.0000
     21 O4         2.3384    4.8985    9.3951 O.3       2 RES2    0.0000
     22 N4         3.7340    1.7632    7.0164 N.3       2 RES2    0.0000
     23 N5         3.4528    3.2685    5.2931 N.2       2 RES2    0.0000
     24 N6         2.6087    3.7808    8.6256 N.2       2 RES2    0.0000
     25 C15        4.6661   -5.6562    5.9046 C.ar      2 RES2    0.0000
     26 C16        5.7755   -4.9088    6.2056 C.ar      2 RES2    0.0000
     27 C17        5.6843   -3.8129    7.0475 C.ar      2 RES2    0.0000
     28 C18        4.4636   -3.4451    7.5944 C.ar      2 RES2    0.0000
     29 C19        3.3618   -4.2079    7.2676 C.ar      2 RES2    0.0000
     30 C20        3.4654   -5.3123    6.4369 C.ar      2 RES2    0.0000
     31 C21        4.3628   -2.2460    8.5063 C.3       2 RES2    0.0000
     32 C22        4.6050   -0.9066    7.8054 C.3       2 RES2    0.0000
     33 C23        3.6064   -0.6641    6.6848 C.3       2 RES2    0.0000
     34 C24        3.7836    0.6890    6.0201 C.3       2 RES2    0.0000
     35 C25        4.7406    1.5914    8.0846 C.3       2 RES2    0.0000
     36 C26        4.5426    0.2635    8.7810 C.3       2 RES2    0.0000
     37 C27        3.4845    3.0452    6.5626 C.2       2 RES2    0.0000
     38 C28        3.1754    4.1052    7.5320 C.2       2 RES2    0.0000
     39 H1         2.5961   13.4872    1.2560 H         1 RES1    0.0000
     40 H2         0.7722   12.2644    0.2363 H         1 RES1    0.0000
     41 H3        -0.0753   10.3808    1.2933 H         1 RES1    0.0000
     42 H4         2.6999   10.7559    4.2655 H         1 RES1    0.0000
     43 H5         3.4699   12.7289    3.1960 H         1 RES1    0.0000
     44 H6        -0.2386    9.3341    3.8328 H         1 RES1    0.0000
     45 H7         1.1875    8.9928    4.3663 H         1 RES1    0.0000
     46 H8         0.2759    8.0842    1.8356 H         1 RES1    0.0000
     47 H9         2.6430    8.1709    1.8604 H         1 RES1    0.0000
     48 H10        2.6378    7.2663    3.2122 H         1 RES1    0.0000
     49 H11        1.7366    6.3848    0.5969 H         1 RES1    0.0000
     50 H12        3.0770    5.8404    1.3195 H         1 RES1    0.0000
     51 H13       -0.4580    5.6928    1.6266 H         1 RES1    0.0000
     52 H14       -0.4324    4.7652    2.9336 H         1 RES1    0.0000
     53 H15        0.4657    6.5256    4.2407 H         1 RES1    0.0000
     54 H16       -0.9292    6.9643    3.5132 H         1 RES1    0.0000
     55 H17        1.1329    1.8159    2.0482 H         1 RES1    0.0000
     56 H18        2.8367    2.4591   -0.5845 H         1 RES1    0.0000
     57 H19        0.3540    1.9296    5.1609 H         1 RES1    0.0000
     58 H20        4.7175   -6.4024    5.3612 H         2 RES2    0.0000
     59 H21        6.6597   -5.0956    5.8710 H         2 RES2    0.0000
     60 H22        6.4907   -3.2824    7.2875 H         2 RES2    0.0000
     61 H23        2.4776   -3.9636    7.6220 H         2 RES2    0.0000
     62 H24        2.6780   -5.8025    6.2180 H         2 RES2    0.0000
     63 H25        5.0134   -2.3264    9.2399 H         2 RES2    0.0000
     64 H26        3.4708   -2.2479    8.9054 H         2 RES2    0.0000
     65 H27        5.5130   -0.9140    7.3944 H         2 RES2    0.0000
     66 H28        2.6730   -0.7231    7.0611 H         2 RES2    0.0000
     67 H29        3.6697   -1.3690    6.0016 H         2 RES2    0.0000
     68 H30        3.0511    0.8490    5.3947 H         2 RES2    0.0000
     69 H31        4.6692    0.7326    5.5552 H         2 RES2    0.0000
     70 H32        5.6621    1.6006    7.6879 H         2 RES2    0.0000
     71 H33        4.6652    2.3440    8.6890 H         2 RES2    0.0000
     72 H34        5.2135    0.1896    9.4551 H         2 RES2    0.0000
     73 H35        3.6667    0.2207    9.2213 H         2 RES2    0.0000
     74 H36        3.3855    5.0171    7.3124 H         2 RES2    0.0000
     75 H37        2.8672    4.5905    4.1661 H         2 RES2    0.0000
     76 H38        1.8083    4.3739   10.2348 H         2 RES2    0.0000
@<TRIPOS>BOND
     1    1    4 1
     2    2    5 1
     3    3   15 1
     4    4   18 2
     5    5   19 2
     6    6    7 ar
     7    7    8 ar
     8    8    9 ar
     9    9   10 ar
    10   10   11 ar
    11   11    6 ar
    12   12    9 1
    13   13   12 1
    14   14   13 1
    15   15   14 1
    16   16    3 1
    17   17   13 1
    18   18    3 1
    19   19   18 1
    20   20   23 1
    21   21   24 1
    22   22   34 1
    23   23   37 2
    24   24   38 2
    25   25   26 ar
    26   26   27 ar
    27   27   28 ar
    28   28   29 ar
    29   29   30 ar
    30   30   25 ar
    31   31   28 1
    32   32   31 1
    33   33   32 1
    34   34   33 1
    35   35   22 1
    36   36   32 1
    37   37   22 1
    38   38   37 1
    39   39    6 1
    40   40    7 1
    41   41    8 1
    42   42   10 1
    43   43   11 1
    44   44   12 1
    45   45   12 1
    46   46   13 1
    47   47   14 1
    48   48   14 1
    49   49   15 1
    50   50   15 1
    51   51   16 1
    52   52   16 1
    53   53   17 1
    54   54   17 1
    55   55   19 1
    56   56    1 1
    57   57    2 1
    58   58   25 1
    59   59   26 1
    60   60   27 1
    61   61   29 1
    62   62   30 1
    63   63   31 1
    64   64   31 1
    65   65   32 1
    66   66   33 1
    67   67   33 1
    68   68   34 1
    69   69   34 1
    70   70   35 1
    71   71   35 1
    72   72   36 1
    73   73   36 1
    74   74   38 1
    75   75   20 1
    76   76   21 1
    77   16   17 1
    78   35   36 1
@<TRIPOS>SUBSTRUCTURE
     1 RES1 1
     2 RES2 20

@<TRIPOS>CRYSIN
  17.0422   13.5414   13.1573  90.0000 109.0600  90.0000  14 1

