# MOL2 file generated by ConQuest
# Please check atom types

@<TRIPOS>MOLECULE
GOMFIY
    41    43     1
SMALL
NO_CHARGES
****
Generated from CSD

@<TRIPOS>ATOM
      1 O1         7.2301    4.3929   15.7756 O.2       1 RES1    0.0000
      2 O2         2.9238    5.7635   10.8599 O.3       1 RES1    0.0000
      3 O3         6.6935    2.0897   13.7116 O.2       1 RES1    0.0000
      4 O4         5.5172    0.3341   13.5630 O.2       1 RES1    0.0000
      5 N1         5.4118    4.6232   14.4903 N.am      1 RES1    0.0000
      6 N2         4.1710    4.1479   14.1179 N.2       1 RES1    0.0000
      7 N3         5.8867    1.3168   14.1654 N.pl3     1 RES1    0.0000
      8 C1         5.4923    2.8023   16.0807 C.ar      1 RES1    0.0000
      9 C2         5.3576    1.5585   15.5051 C.ar      1 RES1    0.0000
     10 C3         4.7549    0.5066   16.1486 C.ar      1 RES1    0.0000
     11 H1         4.6728   -0.3192   15.7287 H         1 RES1    0.0000
     12 C4         4.2775    0.6894   17.4138 C.ar      1 RES1    0.0000
     13 H2         3.8664   -0.0144   17.8620 H         1 RES1    0.0000
     14 C5         4.4050    1.8987   18.0182 C.ar      1 RES1    0.0000
     15 H3         4.0795    2.0184   18.8813 H         1 RES1    0.0000
     16 C6         5.0096    2.9517   17.3658 C.ar      1 RES1    0.0000
     17 H4         5.0944    3.7719   17.7960 H         1 RES1    0.0000
     18 C7         6.1300    3.9888   15.4168 C.2       1 RES1    0.0000
     19 C8         3.5826    4.8485   13.2386 C.2       1 RES1    0.0000
     20 H5         4.0416    5.5775   12.8876 H         1 RES1    0.0000
     21 C9         2.2429    4.5908   12.7436 C.ar      1 RES1    0.0000
     22 C10        1.9099    5.1479   11.5255 C.ar      1 RES1    0.0000
     23 C11        0.6228    5.0543   10.9969 C.ar      1 RES1    0.0000
     24 H6         0.4252    5.4356   10.1714 H         1 RES1    0.0000
     25 C12       -0.3330    4.4048   11.6927 C.ar      1 RES1    0.0000
     26 H7        -1.1891    4.3483   11.3342 H         1 RES1    0.0000
     27 C13       -0.0794    3.8142   12.9377 C.ar      1 RES1    0.0000
     28 C14       -1.0957    3.1709   13.6628 C.ar      1 RES1    0.0000
     29 H8        -1.9516    3.1213   13.3039 H         1 RES1    0.0000
     30 C15       -0.8544    2.6282   14.8615 C.ar      1 RES1    0.0000
     31 H9        -1.5408    2.2113   15.3310 H         1 RES1    0.0000
     32 C16        0.4243    2.6892   15.4048 C.ar      1 RES1    0.0000
     33 H10        0.5878    2.3044   16.2354 H         1 RES1    0.0000
     34 C17        1.4391    3.3018   14.7397 C.ar      1 RES1    0.0000
     35 H11        2.2850    3.3296   15.1243 H         1 RES1    0.0000
     36 C18        1.2311    3.8955   13.4779 C.ar      1 RES1    0.0000
     37 C19        2.6395    6.5639    9.7236 C.3       1 RES1    0.0000
     38 H12        2.3202    6.0064    9.0114 H         1 RES1    0.0000
     39 H13        3.4390    7.0162    9.4421 H         1 RES1    0.0000
     40 H14        1.9678    7.2113    9.9489 H         1 RES1    0.0000
     41 H15        5.7501    5.3369   14.0547 H         1 RES1    0.0000
@<TRIPOS>BOND
     1    1   18 2
     2    2   22 1
     3    3    7 2
     4    4    7 2
     5    5    6 1
     6    6   19 2
     7    7    9 1
     8    8    9 ar
     9    9   10 ar
    10   10   11 1
    11   12   10 ar
    12   13   12 1
    13   14   12 ar
    14   15   14 1
    15   16    8 ar
    16   17   16 1
    17   18    5 1
    18   19   20 1
    19   21   19 1
    20   22   21 ar
    21   23   22 ar
    22   24   23 1
    23   25   23 ar
    24   26   25 1
    25   27   25 ar
    26   28   27 ar
    27   29   28 1
    28   30   28 ar
    29   31   30 1
    30   32   30 ar
    31   33   32 1
    32   34   32 ar
    33   35   34 1
    34   36   21 ar
    35   37    2 1
    36   38   37 1
    37   39   37 1
    38   40   37 1
    39   41    5 1
    40    8   18 1
    41   14   16 ar
    42   27   36 ar
    43   34   36 ar
@<TRIPOS>SUBSTRUCTURE
     1 RES1 1

@<TRIPOS>CRYSIN
  10.9090   11.0840   14.8880  90.0000 105.3600  90.0000  14 1

