# MOL2 file generated by ConQuest
# Please check atom types

@<TRIPOS>MOLECULE
GOMJIC
    54    55     2
SMALL
NO_CHARGES
****
Generated from CSD

@<TRIPOS>ATOM
      1 C1         6.2697    2.4681    7.8539 C.3       1 RES1    0.0000
      2 H1         5.3485    2.6294    8.2006 H         1 RES1    0.0000
      3 C2         6.3744    1.1918    7.0183 C.3       1 RES1    0.0000
      4 H2         7.3585    1.1370    6.6818 H         1 RES1    0.0000
      5 C3         5.4006    1.3293    5.8529 C.3       1 RES1    0.0000
      6 H3         4.4884    1.4284    6.2582 H         1 RES1    0.0000
      7 C4         5.7505    2.5725    5.0371 C.3       1 RES1    0.0000
      8 H4         5.0786    2.7289    4.3409 H         1 RES1    0.0000
      9 C5         5.7832    3.7863    5.9572 C.3       1 RES1    0.0000
     10 H5         4.8666    3.9512    6.1903 H         1 RES1    0.0000
     11 H6         6.1002    4.6121    5.4892 H         1 RES1    0.0000
     12 C6         6.8440    3.2860    9.9827 C.3       1 RES1    0.0000
     13 H7         6.7760    4.2212    9.6766 H         1 RES1    0.0000
     14 H8         5.9190    3.1339   10.3659 H         1 RES1    0.0000
     15 H9         7.5702    3.2121   10.6389 H         1 RES1    0.0000
     16 C7         6.2210   -0.0945    7.8131 C.3       1 RES1    0.0000
     17 H10        6.8020   -0.1492    8.6345 H         1 RES1    0.0000
     18 H11        6.3793   -0.8599    7.2943 H         1 RES1    0.0000
     19 C8         4.2347   -0.1364    4.3894 C.3       1 RES1    0.0000
     20 H12        3.5896   -0.7249    4.9682 H         1 RES1    0.0000
     21 H13        3.8630    0.6822    4.1165 H         1 RES1    0.0000
     22 C9         4.5423   -0.8911    3.1245 C.ar      1 RES1    0.0000
     23 C10        3.6275   -1.7873    2.6032 C.ar      1 RES1    0.0000
     24 H14        2.8190   -1.9400    3.0760 H         1 RES1    0.0000
     25 C11        3.8910   -2.4531    1.4137 C.ar      1 RES1    0.0000
     26 H15        3.3125   -3.1766    1.1158 H         1 RES1    0.0000
     27 C12        5.0788   -2.2406    0.7429 C.ar      1 RES1    0.0000
     28 H16        5.2734   -2.7573   -0.1225 H         1 RES1    0.0000
     29 C13        5.9925   -1.3566    1.2649 C.ar      1 RES1    0.0000
     30 H17        6.8535   -1.3147    0.8428 H         1 RES1    0.0000
     31 C14        5.7313   -0.6872    2.4411 C.ar      1 RES1    0.0000
     32 H18        6.4228   -0.0782    2.8206 H         1 RES1    0.0000
     33 C15        7.3244    3.2306    3.3616 C.3       1 RES1    0.0000
     34 H19        6.5575    3.3613    2.8103 H         1 RES1    0.0000
     35 H20        7.6573    4.1928    3.8080 H         1 RES1    0.0000
     36 C16        8.4385    2.6073    2.5712 C.ar      1 RES1    0.0000
     37 C17        8.1611    1.8093    1.4770 C.ar      1 RES1    0.0000
     38 H21        7.2139    1.6487    1.1749 H         1 RES1    0.0000
     39 C18        9.1469    1.1285    0.8167 C.ar      1 RES1    0.0000
     40 H22        8.8344    0.4477   -0.0192 H         1 RES1    0.0000
     41 C19       10.4140    1.2038    1.2443 C.ar      1 RES1    0.0000
     42 H23       11.2763    0.6964    0.9004 H         1 RES1    0.0000
     43 C20       10.7482    2.0267    2.3143 C.ar      1 RES1    0.0000
     44 H24       11.5557    2.2243    2.6420 H         1 RES1    0.0000
     45 C21        9.7418    2.7452    2.9734 C.ar      1 RES1    0.0000
     46 H25        9.9041    3.2689    3.6590 H         1 RES1    0.0000
     47 N1         4.8316   -0.2899    8.3281 N.pl3     1 RES1    0.0000
     48 O1         6.6647    3.5843    7.0642 O.3       1 RES1    0.0000
     49 O2         7.1415    2.3745    8.9318 O.3       1 RES1    0.0000
     50 O3         5.4440    0.1423    5.0772 O.3       1 RES1    0.0000
     51 O4         7.0007    2.3224    4.4135 O.3       1 RES1    0.0000
     52 O5         4.3902    0.4676    9.1498 O.2       1 RES1    0.0000
     53 O6         4.0498   -0.9693    7.6456 O.2       1 RES1    0.0000
     54 O7         4.4409   -1.4739    8.3526 Du        2 SUP2    0.0000
@<TRIPOS>BOND
     1    1    2 1
     2    3    1 1
     3    4    3 1
     4    5    3 1
     5    6    5 1
     6    7    5 1
     7    8    7 1
     8    9    7 1
     9   10    9 1
    10   11    9 1
    11   12   13 1
    12   14   12 1
    13   15   12 1
    14   16    3 1
    15   17   16 1
    16   18   16 1
    17   19   20 1
    18   21   19 1
    19   22   19 1
    20   23   22 ar
    21   24   23 1
    22   25   23 ar
    23   26   25 1
    24   27   25 ar
    25   28   27 1
    26   29   27 ar
    27   30   29 1
    28   31   22 ar
    29   32   31 1
    30   33   34 1
    31   35   33 1
    32   36   33 1
    33   37   36 ar
    34   38   37 1
    35   39   37 ar
    36   40   39 1
    37   41   39 ar
    38   42   41 1
    39   43   41 ar
    40   44   43 1
    41   45   36 ar
    42   46   45 1
    43   47   16 1
    44   48    1 1
    45   49    1 1
    46   50    5 1
    47   51    7 1
    48   52   47 2
    49   53   47 2
    50    9   48 1
    51   12   49 1
    52   19   50 1
    53   29   31 ar
    54   33   51 1
    55   43   45 ar
@<TRIPOS>SUBSTRUCTURE
     1 RES1 1
     2 SUP2 54

@<TRIPOS>CRYSIN
   9.4749    7.1064   15.0482  90.0000 101.2340  90.0000   4 1

