# MOL2 file generated by ConQuest
# Please check atom types

@<TRIPOS>MOLECULE
GOMLID
   156   160     3
SMALL
NO_CHARGES
****
Generated from CSD

@<TRIPOS>ATOM
      1 O1         4.1869    9.0314   17.3798 O.3       1 RES1    0.0000
      2 C1         3.9706    7.7327   17.5598 C.2       1 RES1    0.0000
      3 N1         5.1766    7.0614   17.4140 N.am      1 RES1    0.0000
      4 C2         6.1832    7.9647   16.8488 C.3       1 RES1    0.0000
      5 H1         7.0522    7.7857   17.2646 H         1 RES1    0.0000
      6 C3         5.6147    9.3209   17.3888 C.3       1 RES1    0.0000
      7 O2         2.8813    7.2840   17.7433 O.2       1 RES1    0.0000
      8 C4         6.3082    7.8381   15.3243 C.3       1 RES1    0.0000
      9 H2         6.7897    8.6325   15.0111 H         1 RES1    0.0000
     10 C5         7.1559    6.6207   14.9319 C.3       1 RES1    0.0000
     11 H3         6.6505    5.8181   15.0831 H         1 RES1    0.0000
     12 H4         7.9530    6.6012   15.4647 H         1 RES1    0.0000
     13 H5         7.3913    6.6820   14.0032 H         1 RES1    0.0000
     14 C6         4.9884    7.8250   14.6205 C.3       1 RES1    0.0000
     15 H6         5.1289    7.7382   13.6756 H         1 RES1    0.0000
     16 H7         4.5204    8.6445   14.8005 H         1 RES1    0.0000
     17 H8         4.4646    7.0835   14.9355 H         1 RES1    0.0000
     18 C7         5.8759   10.5569   16.5176 C.ar      1 RES1    0.0000
     19 C8         4.8632   11.2198   15.9003 C.ar      1 RES1    0.0000
     20 H9         3.9912   10.9031   15.9615 H         1 RES1    0.0000
     21 C9         5.1472   12.3953   15.1659 C.ar      1 RES1    0.0000
     22 H10        4.4551   12.8603   14.7501 H         1 RES1    0.0000
     23 C10        6.4015   12.8385   15.0669 C.ar      1 RES1    0.0000
     24 H11        6.5805   13.5957   14.5575 H         1 RES1    0.0000
     25 C11        7.4155   12.2126   15.6915 C.ar      1 RES1    0.0000
     26 H12        8.2824   12.5361   15.6141 H         1 RES1    0.0000
     27 C12        7.1535   11.0704   16.4564 C.ar      1 RES1    0.0000
     28 H13        7.8415   10.6567   16.9244 H         1 RES1    0.0000
     29 C13        6.0329    9.5896   18.8521 C.ar      1 RES1    0.0000
     30 C14        5.0946   10.2492   19.6566 C.ar      1 RES1    0.0000
     31 H14        4.2333   10.4214   19.3488 H         1 RES1    0.0000
     32 C15        5.5049   10.6483   20.9616 C.ar      1 RES1    0.0000
     33 H15        4.8904   11.0698   21.5177 H         1 RES1    0.0000
     34 C16        6.7271   10.4379   21.4061 C.ar      1 RES1    0.0000
     35 H16        6.9721   10.7224   22.2575 H         1 RES1    0.0000
     36 C17        7.6652    9.7806   20.5890 C.ar      1 RES1    0.0000
     37 H17        8.5276    9.6106   20.8950 H         1 RES1    0.0000
     38 C18        7.2777    9.3934   19.3183 C.ar      1 RES1    0.0000
     39 H18        7.9031    8.9818   18.7657 H         1 RES1    0.0000
     40 C19        5.4448    5.7745   17.8513 C.2       1 RES1    0.0000
     41 C20        4.4014    4.8843   18.4849 C.3       1 RES1    0.0000
     42 H19        3.5649    5.3829   18.5929 H         1 RES1    0.0000
     43 C21        4.1712    3.6712   17.5274 C.3       1 RES1    0.0000
     44 H20        5.0485    3.3123   17.2844 H         1 RES1    0.0000
     45 C22        3.4789    4.1700   16.2116 C.3       1 RES1    0.0000
     46 H21        2.6111    4.5495   16.4186 H         1 RES1    0.0000
     47 H22        4.0216    4.8581   15.7959 H         1 RES1    0.0000
     48 N2         3.3186    3.0368   15.2937 N.pl3     1 RES1    0.0000
     49 O3         4.3103    2.5500   14.8023 O.2       1 RES1    0.0000
     50 O4         2.2037    2.6742   15.0975 O.2       1 RES1    0.0000
     51 C23        4.8930    4.4121   19.8420 C.3       1 RES1    0.0000
     52 H23        4.2351    3.8080   20.2236 H         1 RES1    0.0000
     53 H24        5.7176    3.9167   19.7250 H         1 RES1    0.0000
     54 C24        5.1276    5.5379   20.7906 C.ar      1 RES1    0.0000
     55 C25        6.3254    5.6923   21.4295 C.ar      1 RES1    0.0000
     56 H25        7.0150    5.1011   21.2207 H         1 RES1    0.0000
     57 C26        6.5749    6.6605   22.3547 C.ar      1 RES1    0.0000
     58 H26        7.4289    6.7789   22.7110 H         1 RES1    0.0000
     59 C27        5.5166    7.4627   22.7452 C.ar      1 RES1    0.0000
     60 H27        5.6465    8.0918   23.4166 H         1 RES1    0.0000
     61 C28        4.3013    7.3507   22.1711 C.ar      1 RES1    0.0000
     62 H28        3.6235    7.9303   22.4267 H         1 RES1    0.0000
     63 C29        4.0526    6.3770   21.1991 C.ar      1 RES1    0.0000
     64 H29        3.2028    6.2815   20.8284 H         1 RES1    0.0000
     65 C30        3.3747    2.5536   18.1249 C.ar      1 RES1    0.0000
     66 C31        3.8574    1.2704   18.1321 C.ar      1 RES1    0.0000
     67 H30        4.6947    1.0903   17.7703 H         1 RES1    0.0000
     68 C32        3.1128    0.2520   18.6703 C.ar      1 RES1    0.0000
     69 H31        3.4711   -0.6079   18.6865 H         1 RES1    0.0000
     70 C33        1.8755    0.4616   19.1779 C.ar      1 RES1    0.0000
     71 H32        1.3764   -0.2376   19.5342 H         1 RES1    0.0000
     72 C34        1.4026    1.6878   19.1509 C.ar      1 RES1    0.0000
     73 H33        0.5464    1.8407   19.4856 H         1 RES1    0.0000
     74 C35        2.1072    2.7516   18.6505 C.ar      1 RES1    0.0000
     75 H34        1.7370    3.6040   18.6649 H         1 RES1    0.0000
     76 O5         6.6209    5.3882   17.7577 O.2       1 RES1    0.0000
     77 O6         3.3482   11.4605    9.5970 O.3       2 RES2    0.0000
     78 C36        3.5255   10.1372    9.4638 C.2       2 RES2    0.0000
     79 N3         2.3349    9.4953    9.6294 N.am      2 RES2    0.0000
     80 C37        1.3252   10.4493   10.1496 C.3       2 RES2    0.0000
     81 H35        0.4587   10.2736    9.7266 H         2 RES2    0.0000
     82 C38        1.8916   11.7501    9.6240 C.3       2 RES2    0.0000
     83 O7         4.6256    9.6778    9.2748 O.2       2 RES2    0.0000
     84 C39        1.1860   10.3249   11.6957 C.3       2 RES2    0.0000
     85 H36        0.9848    9.3668   11.7299 H         2 RES2    0.0000
     86 C40        2.4247   10.2917   12.4949 C.3       2 RES2    0.0000
     87 H37        2.2132   10.4633   13.4146 H         2 RES2    0.0000
     88 H38        3.0292   10.9619   12.1727 H         2 RES2    0.0000
     89 H39        2.8306    9.4253   12.4139 H         2 RES2    0.0000
     90 C41       -0.0219   10.7964   12.2807 C.3       2 RES2    0.0000
     91 H40       -0.7570   10.5949   11.6939 H         2 RES2    0.0000
     92 H41        0.0336   11.7377   12.4193 H         2 RES2    0.0000
     93 H42       -0.1597   10.3505   13.1230 H         2 RES2    0.0000
     94 C42        0.1642    9.3972   12.1313 Du        3 SUP3    0.0000
     95 H43        0.0293    9.4914   13.0798 Du        3 SUP3    0.0000
     96 H44        0.4474    8.4955   11.9423 Du        3 SUP3    0.0000
     97 H45       -0.6552    9.5767   11.6723 Du        3 SUP3    0.0000
     98 C43        1.6825   13.0287   10.4322 C.ar      2 RES2    0.0000
     99 C44        0.4382   13.6120   10.4916 C.ar      2 RES2    0.0000
    100 H46       -0.2681   13.2366   10.0164 H         2 RES2    0.0000
    101 C45        0.2246   14.7426   11.2439 C.ar      2 RES2    0.0000
    102 H47       -0.6289   15.1105   11.2799 H         2 RES2    0.0000
    103 C46        1.2331   15.3317   11.9297 C.ar      2 RES2    0.0000
    104 H48        1.0796   16.1041   12.4247 H         2 RES2    0.0000
    105 C47        2.5017   14.7558   11.8793 C.ar      2 RES2    0.0000
    106 H49        3.2104   15.1556   12.3293 H         2 RES2    0.0000
    107 C48        2.6945   13.6088   11.1701 C.ar      2 RES2    0.0000
    108 H50        3.5350   13.2053   11.1845 H         2 RES2    0.0000
    109 C49        1.4844   12.0561    8.1427 C.ar      2 RES2    0.0000
    110 C50        2.3882   12.6879    7.3382 C.ar      2 RES2    0.0000
    111 H51        3.2538   12.8350    7.6477 H         2 RES2    0.0000
    112 C51        2.0418   13.1121    6.0692 C.ar      2 RES2    0.0000
    113 H52        2.6468   13.5691    5.5329 H         2 RES2    0.0000
    114 C52        0.7686   12.8431    5.6175 C.ar      2 RES2    0.0000
    115 H53        0.5244   13.0959    4.7571 H         2 RES2    0.0000
    116 C53       -0.1275   12.2087    6.4166 C.ar      2 RES2    0.0000
    117 H54       -0.9936   12.0475    6.1142 H         2 RES2    0.0000
    118 C54        0.2526   11.8056    7.6801 C.ar      2 RES2    0.0000
    119 H55       -0.3551   11.3533    8.2201 H         2 RES2    0.0000
    120 C55        1.9921    8.1742    9.3342 C.2       2 RES2    0.0000
    121 C56        3.1008    7.2419    8.7313 C.3       2 RES2    0.0000
    122 H56        3.9395    7.7306    8.6017 H         2 RES2    0.0000
    123 C57        3.2909    6.0796    9.6888 C.3       2 RES2    0.0000
    124 H57        2.4140    5.7450    9.9696 H         2 RES2    0.0000
    125 C58        4.0723    6.5853   10.9379 C.3       2 RES2    0.0000
    126 H58        4.9767    6.8307   10.6806 H         2 RES2    0.0000
    127 H59        3.6385    7.3717   11.2997 H         2 RES2    0.0000
    128 N4         4.1210    5.5070   11.9819 N.pl3     2 RES2    0.0000
    129 O8         5.2091    5.0606   12.1871 O.2       2 RES2    0.0000
    130 O9         3.1083    5.2026   12.5831 O.2       2 RES2    0.0000
    131 C59        2.5095    6.7740    7.3724 C.3       2 RES2    0.0000
    132 H60        3.1141    6.1196    6.9854 H         2 RES2    0.0000
    133 H61        1.6662    6.3308    7.5398 H         2 RES2    0.0000
    134 C60        2.2849    7.8706    6.3626 C.ar      2 RES2    0.0000
    135 C61        3.2582    8.7268    5.9756 C.ar      2 RES2    0.0000
    136 H62        4.0920    8.6717    6.3878 H         2 RES2    0.0000
    137 C62        3.0646    9.6965    4.9677 C.ar      2 RES2    0.0000
    138 H63        3.7535   10.2721    4.7193 H         2 RES2    0.0000
    139 C63        0.8386    8.9340    4.7733 C.ar      2 RES2    0.0000
    140 H64       -0.0004    9.0002    4.3755 H         2 RES2    0.0000
    141 C64        1.8353    9.7650    4.3683 C.ar      2 RES2    0.0000
    142 H65        1.6847   10.3794    3.6880 H         2 RES2    0.0000
    143 C65        1.0511    7.9788    5.7759 C.ar      2 RES2    0.0000
    144 H66        0.3574    7.4205    6.0422 H         2 RES2    0.0000
    145 C66        4.0818    4.9472    9.0661 C.ar      2 RES2    0.0000
    146 C67        5.3329    5.1164    8.5279 C.ar      2 RES2    0.0000
    147 H67        5.7306    5.9576    8.5279 H         2 RES2    0.0000
    148 C68        6.0095    4.0284    7.9843 C.ar      2 RES2    0.0000
    149 H68        6.8669    4.1654    7.6549 H         2 RES2    0.0000
    150 C69        5.5119    2.8346    7.9123 C.ar      2 RES2    0.0000
    151 H69        5.9904    2.1458    7.5128 H         2 RES2    0.0000
    152 C70        4.2780    2.6101    8.4325 C.ar      2 RES2    0.0000
    153 H70        3.9213    1.7518    8.4271 H         2 RES2    0.0000
    154 C71        3.5319    3.6953    8.9869 C.ar      2 RES2    0.0000
    155 H71        2.6660    3.5494    9.2946 H         2 RES2    0.0000
    156 O10        0.8903    7.7783    9.5592 O.2       2 RES2    0.0000
@<TRIPOS>BOND
     1    1    2 1
     2    2    3 1
     3    3    4 1
     4    4    5 1
     5    6    1 1
     6    7    2 2
     7    8    4 1
     8    9    8 1
     9   10    8 1
    10   11   10 1
    11   12   10 1
    12   13   10 1
    13   14    8 1
    14   15   14 1
    15   16   14 1
    16   17   14 1
    17   18    6 1
    18   19   18 ar
    19   20   19 1
    20   21   19 ar
    21   22   21 1
    22   23   21 ar
    23   24   23 1
    24   25   23 ar
    25   26   25 1
    26   27   18 ar
    27   28   27 1
    28   29    6 1
    29   30   29 ar
    30   31   30 1
    31   32   30 ar
    32   33   32 1
    33   34   32 ar
    34   35   34 1
    35   36   34 ar
    36   37   36 1
    37   38   29 ar
    38   39   38 1
    39   40    3 1
    40   41   40 1
    41   42   41 1
    42   43   41 1
    43   44   43 1
    44   45   43 1
    45   46   45 1
    46   47   45 1
    47   48   45 1
    48   49   48 2
    49   50   48 2
    50   51   41 1
    51   52   51 1
    52   53   51 1
    53   54   51 1
    54   55   54 ar
    55   56   55 1
    56   57   55 ar
    57   58   57 1
    58   59   57 ar
    59   60   59 1
    60   61   59 ar
    61   62   61 1
    62   63   54 ar
    63   64   63 1
    64   65   43 1
    65   66   65 ar
    66   67   66 1
    67   68   66 ar
    68   69   68 1
    69   70   68 ar
    70   71   70 1
    71   72   70 ar
    72   73   72 1
    73   74   65 ar
    74   75   74 1
    75   76   40 2
    76   77   78 1
    77   78   79 1
    78   79   80 1
    79   80   81 1
    80   82   77 1
    81   83   78 2
    82   84   80 1
    83   85   84 1
    84   86   84 1
    85   87   86 1
    86   88   86 1
    87   89   86 1
    88   90   84 1
    89   91   90 1
    90   92   90 1
    91   93   90 1
    92   98   82 1
    93   99   98 ar
    94  100   99 1
    95  101   99 ar
    96  102  101 1
    97  103  101 ar
    98  104  103 1
    99  105  103 ar
   100  106  105 1
   101  107   98 ar
   102  108  107 1
   103  109   82 1
   104  110  109 ar
   105  111  110 1
   106  112  110 ar
   107  113  112 1
   108  114  112 ar
   109  115  114 1
   110  116  114 ar
   111  117  116 1
   112  118  109 ar
   113  119  118 1
   114  120   79 1
   115  121  120 1
   116  122  121 1
   117  123  121 1
   118  124  123 1
   119  125  123 1
   120  126  125 1
   121  127  125 1
   122  128  125 1
   123  129  128 2
   124  130  128 2
   125  131  121 1
   126  132  131 1
   127  133  131 1
   128  134  131 1
   129  135  134 ar
   130  136  135 1
   131  137  135 ar
   132  138  137 1
   133  139  140 1
   134  141  137 ar
   135  142  141 1
   136  143  134 ar
   137  144  143 1
   138  145  123 1
   139  146  145 ar
   140  147  146 1
   141  148  146 ar
   142  149  148 1
   143  150  148 ar
   144  151  150 1
   145  152  150 ar
   146  153  152 1
   147  154  145 ar
   148  155  154 1
   149  156  120 2
   150    4    6 1
   151   25   27 ar
   152   36   38 ar
   153   61   63 ar
   154   72   74 ar
   155   80   82 1
   156  105  107 ar
   157  116  118 ar
   158  139  141 ar
   159  139  143 ar
   160  152  154 ar
@<TRIPOS>SUBSTRUCTURE
     1 RES1 1
     2 RES2 77
     3 SUP3 94

@<TRIPOS>CRYSIN
   6.4360   13.1250   18.5960  77.1000  83.2300  89.3900   1 1

