# MOL2 file generated by ConQuest
# Please check atom types

@<TRIPOS>MOLECULE
GOMZOX
    37    40     1
SMALL
NO_CHARGES
****
Generated from CSD

@<TRIPOS>ATOM
      1 O1         3.8486    4.3055    2.8433 O.3       1 RES1    0.0000
      2 O2         7.2248    3.4781    2.9913 O.2       1 RES1    0.0000
      3 N1         5.0796    3.8167    2.2611 N.am      1 RES1    0.0000
      4 N2         5.7974    4.5499    4.3680 N.am      1 RES1    0.0000
      5 C1         4.8625    2.4182    1.6526 C.3       1 RES1    0.0000
      6 C2         2.8250    3.2296    3.0363 C.3       1 RES1    0.0000
      7 C3         3.5283    2.0456    3.6486 C.ar      1 RES1    0.0000
      8 C4         4.5859    1.5547    2.8774 C.ar      1 RES1    0.0000
      9 C5         3.5609    2.5104    0.8658 C.ar      1 RES1    0.0000
     10 C6         2.4567    2.8870    1.6115 C.ar      1 RES1    0.0000
     11 C7         1.2012    2.9712    1.0472 C.ar      1 RES1    0.0000
     12 C8         1.0521    2.6707   -0.3054 C.ar      1 RES1    0.0000
     13 C9         2.1398    2.3080   -1.0573 C.ar      1 RES1    0.0000
     14 C10        3.3978    2.2199   -0.4852 C.ar      1 RES1    0.0000
     15 C11        5.3234    0.4728    3.3122 C.ar      1 RES1    0.0000
     16 C12        4.9966   -0.1322    4.5191 C.ar      1 RES1    0.0000
     17 C13        3.9769    0.3586    5.2927 C.ar      1 RES1    0.0000
     18 C14        3.2389    1.4525    4.8649 C.ar      1 RES1    0.0000
     19 C15        6.1148    3.9028    3.2440 C.2       1 RES1    0.0000
     20 C16        6.0432    2.0015    0.7984 C.3       1 RES1    0.0000
     21 C17        1.7425    3.8788    3.8587 C.3       1 RES1    0.0000
     22 H1         6.4179    4.7022    4.9811 H         1 RES1    0.0000
     23 H2         4.8916    4.7663    4.5160 H         1 RES1    0.0000
     24 H3         0.4677    3.2256    1.5596 H         1 RES1    0.0000
     25 H4         0.2116    2.7167   -0.7000 H         1 RES1    0.0000
     26 H5         2.0313    2.1177   -1.9611 H         1 RES1    0.0000
     27 H6         4.1293    1.9694   -1.0007 H         1 RES1    0.0000
     28 H7         6.0319    0.1503    2.8022 H         1 RES1    0.0000
     29 H8         5.4735   -0.8775    4.8052 H         1 RES1    0.0000
     30 H9         3.7792   -0.0441    6.1074 H         1 RES1    0.0000
     31 H10        2.5506    1.7851    5.3943 H         1 RES1    0.0000
     32 H11        6.8325    1.9614    1.3426 H         1 RES1    0.0000
     33 H12        6.1719    2.6426    0.0953 H         1 RES1    0.0000
     34 H13        5.8721    1.1380    0.4163 H         1 RES1    0.0000
     35 H14        1.3682    4.6161    3.3704 H         1 RES1    0.0000
     36 H15        2.1147    4.1993    4.6842 H         1 RES1    0.0000
     37 H16        1.0537    3.2377    4.0455 H         1 RES1    0.0000
@<TRIPOS>BOND
     1    1    3 1
     2    2   19 2
     3    3    5 1
     4    4   19 1
     5    5    8 1
     6    6    1 1
     7    7    6 1
     8    8    7 ar
     9    9    5 1
    10   10    6 1
    11   11   10 ar
    12   12   11 ar
    13   13   12 ar
    14   14    9 ar
    15   15    8 ar
    16   16   15 ar
    17   17   16 ar
    18   18    7 ar
    19   19    3 1
    20   20    5 1
    21   21    6 1
    22   22    4 1
    23   23    4 1
    24   24   11 1
    25   25   12 1
    26   26   13 1
    27   27   14 1
    28   28   15 1
    29   29   16 1
    30   30   17 1
    31   31   18 1
    32   32   20 1
    33   33   20 1
    34   34   20 1
    35   35   21 1
    36   36   21 1
    37   37   21 1
    38    9   10 ar
    39   13   14 ar
    40   17   18 ar
@<TRIPOS>SUBSTRUCTURE
     1 RES1 1

@<TRIPOS>CRYSIN
   8.8730   20.0350    8.5553  90.0000 115.0350  90.0000  14 1

