# MOL2 file generated by ConQuest
# Please check atom types

@<TRIPOS>MOLECULE
GONBIU
    42    45     1
SMALL
NO_CHARGES
****
Generated from CSD

@<TRIPOS>ATOM
      1 O1         9.1489    1.8368    6.9931 O.2       1 RES1    0.0000
      2 O2         7.3970   -0.3015   10.6467 O.2       1 RES1    0.0000
      3 O3         4.7725    2.3893   11.0951 O.3       1 RES1    0.0000
      4 N1         8.5900    0.7991    8.9911 N.am      1 RES1    0.0000
      5 N2         6.9868    1.2461    7.5437 N.am      1 RES1    0.0000
      6 N3         3.5641    2.8487   11.7456 N.2       1 RES1    0.0000
      7 C1         8.2925    1.3641    7.7192 C.2       1 RES1    0.0000
      8 C2         7.4540    0.2741    9.5759 C.2       1 RES1    0.0000
      9 C3         6.3377    0.6013    8.6524 C.3       1 RES1    0.0000
     10 C4         5.1815   -0.3344    8.4538 C.3       1 RES1    0.0000
     11 C5         4.9365    0.9916    9.1092 C.3       1 RES1    0.0000
     12 C6         4.5464    1.0368   10.5675 C.3       1 RES1    0.0000
     13 C7         3.0619    0.7822   10.7856 C.3       1 RES1    0.0000
     14 C8         2.6528    1.9787   11.5836 C.2       1 RES1    0.0000
     15 C9         1.2883    2.1667   12.1745 C.3       1 RES1    0.0000
     16 C10        1.0794    3.4554   12.9566 C.3       1 RES1    0.0000
     17 C11       -0.3208    3.5671   13.5487 C.3       1 RES1    0.0000
     18 C12        9.8964    0.7902    9.5893 C.ar      1 RES1    0.0000
     19 C13       10.9363    0.1809    8.9387 C.ar      1 RES1    0.0000
     20 C14       12.1993    0.1996    9.5088 C.ar      1 RES1    0.0000
     21 C15       12.4068    0.8443   10.7125 C.ar      1 RES1    0.0000
     22 C16       11.3431    1.4501   11.3534 C.ar      1 RES1    0.0000
     23 C17       10.0818    1.4598   10.7929 C.ar      1 RES1    0.0000
     24 H1         6.5628    1.5308    6.8274 H         1 RES1    0.0000
     25 H2         4.8458   -0.4603    7.5315 H         1 RES1    0.0000
     26 H3         5.1417   -1.1423    9.0240 H         1 RES1    0.0000
     27 H4         4.4806    1.6674    8.5305 H         1 RES1    0.0000
     28 H5         5.0857    0.3743   11.0865 H         1 RES1    0.0000
     29 H6         2.5730    0.7388    9.9255 H         1 RES1    0.0000
     30 H7         2.9097   -0.0568   11.2900 H         1 RES1    0.0000
     31 H8         1.1007    1.4031   12.7763 H         1 RES1    0.0000
     32 H9         0.6240    2.1365   11.4411 H         1 RES1    0.0000
     33 H10        1.2387    4.2261   12.3560 H         1 RES1    0.0000
     34 H11        1.7438    3.4988   13.6888 H         1 RES1    0.0000
     35 H12       -0.4224    4.4389   13.9849 H         1 RES1    0.0000
     36 H13       -0.4539    2.8540   14.2078 H         1 RES1    0.0000
     37 H14       -0.9845    3.4802   12.8336 H         1 RES1    0.0000
     38 H15       10.7944   -0.2501    8.1041 H         1 RES1    0.0000
     39 H16       12.9237   -0.2324    9.0703 H         1 RES1    0.0000
     40 H17       13.2749    0.8718   11.0963 H         1 RES1    0.0000
     41 H18       11.4826    1.8669   12.1952 H         1 RES1    0.0000
     42 H19        9.3623    1.9113   11.2169 H         1 RES1    0.0000
@<TRIPOS>BOND
     1    1    7 2
     2    2    8 2
     3    3    6 1
     4    4    7 1
     5    5    7 1
     6    6   14 2
     7    8    4 1
     8    9    5 1
     9   10    9 1
    10   11    9 1
    11   12    3 1
    12   13   12 1
    13   14   13 1
    14   15   14 1
    15   16   15 1
    16   17   16 1
    17   18    4 1
    18   19   18 ar
    19   20   19 ar
    20   21   20 ar
    21   22   21 ar
    22   23   18 ar
    23   24    5 1
    24   25   10 1
    25   26   10 1
    26   27   11 1
    27   28   12 1
    28   29   13 1
    29   30   13 1
    30   31   15 1
    31   32   15 1
    32   33   16 1
    33   34   16 1
    34   35   17 1
    35   36   17 1
    36   37   17 1
    37   38   19 1
    38   39   20 1
    39   40   21 1
    40   41   22 1
    41   42   23 1
    42    8    9 1
    43   10   11 1
    44   11   12 1
    45   22   23 ar
@<TRIPOS>SUBSTRUCTURE
     1 RES1 1

@<TRIPOS>CRYSIN
  14.7870    8.8690   12.2930  90.0000  97.6700  90.0000  14 1

