# MOL2 file generated by ConQuest
# Please check atom types

@<TRIPOS>MOLECULE
GONYEN
    30    30     1
SMALL
NO_CHARGES
****
Generated from CSD

@<TRIPOS>ATOM
      1 O1         4.1153    3.0430    1.2593 O.3       1 RES1    0.0000
      2 O2         2.9840    6.3869    2.7445 O.3       1 RES1    0.0000
      3 O3         5.5026   -1.2547   -0.1327 O.3       1 RES1    0.0000
      4 N1         3.4438    5.0788    2.6262 N.2       1 RES1    0.0000
      5 N2         4.9152   -0.6900    1.0142 N.2       1 RES1    0.0000
      6 C1         4.2732    2.4168    2.4650 C.ar      1 RES1    0.0000
      7 C2         3.8625    3.0278    3.6664 C.ar      1 RES1    0.0000
      8 C3         3.9784    2.2753    4.8342 C.ar      1 RES1    0.0000
      9 C4         4.4912    0.9953    4.8611 C.ar      1 RES1    0.0000
     10 C5         4.9196    0.4486    3.6597 C.ar      1 RES1    0.0000
     11 C6         4.8161    1.1348    2.4608 C.ar      1 RES1    0.0000
     12 C7         3.3748    4.4182    3.7302 C.2       1 RES1    0.0000
     13 C8         2.8699    5.0052    5.0063 C.3       1 RES1    0.0000
     14 C9         4.5690    0.2001    6.1532 C.3       1 RES1    0.0000
     15 C10        5.3175    0.5196    1.1939 C.2       1 RES1    0.0000
     16 C11        6.2405    1.2554    0.3006 C.3       1 RES1    0.0000
     17 H1         3.7920    3.7870    1.3786 H         1 RES1    0.0000
     18 H2         3.0472    6.7650    2.0200 H         1 RES1    0.0000
     19 H3         5.0355   -1.8709   -0.4038 H         1 RES1    0.0000
     20 H4         3.6955    2.6558    5.6352 H         1 RES1    0.0000
     21 H5         5.2884   -0.4045    3.6588 H         1 RES1    0.0000
     22 H6         3.6034    5.1272    5.6142 H         1 RES1    0.0000
     23 H7         2.2250    4.4111    5.3984 H         1 RES1    0.0000
     24 H8         2.4576    5.8535    4.8275 H         1 RES1    0.0000
     25 H9         5.1006    0.6802    6.7929 H         1 RES1    0.0000
     26 H10        4.9715   -0.6534    5.9794 H         1 RES1    0.0000
     27 H11        3.6849    0.0724    6.5041 H         1 RES1    0.0000
     28 H12        7.1325    0.9195    0.4139 H         1 RES1    0.0000
     29 H13        6.2208    2.1904    0.5197 H         1 RES1    0.0000
     30 H14        5.9672    1.1349   -0.6120 H         1 RES1    0.0000
@<TRIPOS>BOND
     1    1    6 1
     2    2    4 1
     3    3    5 1
     4    4   12 2
     5    5   15 2
     6    6    7 ar
     7    7    8 ar
     8    8    9 ar
     9    9   10 ar
    10   10   11 ar
    11   11    6 ar
    12   12    7 1
    13   13   12 1
    14   14    9 1
    15   15   11 1
    16   16   15 1
    17   17    1 1
    18   18    2 1
    19   19    3 1
    20   20    8 1
    21   21   10 1
    22   22   13 1
    23   23   13 1
    24   24   13 1
    25   25   14 1
    26   26   14 1
    27   27   14 1
    28   28   16 1
    29   29   16 1
    30   30   16 1
@<TRIPOS>SUBSTRUCTURE
     1 RES1 1

@<TRIPOS>CRYSIN
   7.7070    8.5740    9.5970 108.5600 110.7000  92.0700   2 1

