# MOL2 file generated by ConQuest
# Please check atom types

@<TRIPOS>MOLECULE
GOQQOU
   112   120     4
SMALL
NO_CHARGES
****
Generated from CSD

@<TRIPOS>ATOM
      1 N1         4.3720    8.8717    0.3407 N.2       1 RES1    0.0000
      2 O1         3.9949   10.2280    0.3234 O.3       1 RES1    0.0000
      3 C1         2.6683   10.2791    0.3780 C.2       1 RES1    0.0000
      4 C2         2.1379    9.0321    0.4618 C.2       1 RES1    0.0000
      5 C3         0.6791    8.9140    0.5736 C.2       1 RES1    0.0000
      6 O2         0.0916    7.8803    0.5550 O.2       1 RES1    0.0000
      7 C4        -0.0526   10.2276    0.7759 C.3       1 RES1    0.0000
      8 H1        -0.0616   10.4379    1.7435 H         1 RES1    0.0000
      9 H2        -0.9916   10.1160    0.4858 H         1 RES1    0.0000
     10 C5         0.5484   11.4060    0.0293 C.3       1 RES1    0.0000
     11 H3         0.4642   11.2557   -0.9449 H         1 RES1    0.0000
     12 H4         0.0481   12.2302    0.2569 H         1 RES1    0.0000
     13 C6         1.9892   11.5927    0.3780 C.3       1 RES1    0.0000
     14 H5         2.4204   12.1916   -0.2822 H         1 RES1    0.0000
     15 H6         2.0673   12.0091    1.2723 H         1 RES1    0.0000
     16 C7         3.2752    8.1499    0.4139 C.2       1 RES1    0.0000
     17 C8         3.4150    6.6882    0.4272 C.ar      1 RES1    0.0000
     18 C9         4.6634    6.0700    0.2915 C.ar      1 RES1    0.0000
     19 O3         5.8308    6.7637    0.1384 O.3       1 RES1    0.0000
     20 H7         5.5889    7.7485    0.2129 H         1 RES1    0.0000
     21 C10        4.7716    4.6813    0.2795 C.ar      1 RES1    0.0000
     22 H8         5.6235    4.2778    0.1637 H         1 RES1    0.0000
     23 C11        3.6734    3.8979    0.4339 C.ar      1 RES1    0.0000
     24 H9         3.7620    2.9534    0.4352 H         1 RES1    0.0000
     25 C12        2.4204    4.4774    0.5883 C.ar      1 RES1    0.0000
     26 H10        1.6496    3.9301    0.6854 H         1 RES1    0.0000
     27 C13        2.2987    5.8425    0.6002 C.ar      1 RES1    0.0000
     28 H11        1.4393    6.2310    0.7280 H         1 RES1    0.0000
     29 N2         3.0694   17.9561    4.0246 N.2       2 RES2    0.0000
     30 O4         3.4675   16.6172    4.0353 O.3       2 RES2    0.0000
     31 C14        4.8047   16.5831    3.9887 C.2       2 RES2    0.0000
     32 C15        5.3170   17.8387    3.9648 C.2       2 RES2    0.0000
     33 C16        6.7788   17.9825    3.9501 C.2       2 RES2    0.0000
     34 O5         7.3512   19.0448    3.9874 O.2       2 RES2    0.0000
     35 C17        7.5436   16.6926    3.8037 C.3       2 RES2    0.0000
     36 H12        7.6337   16.4844    2.8401 H         2 RES2    0.0000
     37 H13        8.4540   16.8213    4.1697 H         2 RES2    0.0000
     38 C18        6.9186   15.5271    4.4838 C.3       2 RES2    0.0000
     39 H14        6.9186   15.6816    5.4620 H         2 RES2    0.0000
     40 H15        7.4609   14.7179    4.3055 H         2 RES2    0.0000
     41 C19        5.4838   15.2824    4.0153 C.3       2 RES2    0.0000
     42 H16        5.4838   14.8788    3.1116 H         2 RES2    0.0000
     43 H17        5.0210   14.6664    4.6369 H         2 RES2    0.0000
     44 C20        4.1571   18.6994    3.9967 C.2       2 RES2    0.0000
     45 C21        3.9814   20.1656    4.0127 C.ar      2 RES2    0.0000
     46 C22        2.7043   20.7450    4.1777 C.ar      2 RES2    0.0000
     47 O6         1.5610   20.0306    4.3095 O.3       2 RES2    0.0000
     48 H18        1.6827   19.1459    4.3920 H         2 RES2    0.0000
     49 C23        2.5646   22.1187    4.1937 C.ar      2 RES2    0.0000
     50 H19        1.7052   22.5072    4.3041 H         2 RES2    0.0000
     51 C24        3.6839   22.9364    4.0446 C.ar      2 RES2    0.0000
     52 H20        3.5817   23.8808    4.0486 H         2 RES2    0.0000
     53 C25        4.9264   22.3891    3.8942 C.ar      2 RES2    0.0000
     54 H21        5.6881   22.9472    3.7877 H         2 RES2    0.0000
     55 C26        5.0661   21.0197    3.8995 C.ar      2 RES2    0.0000
     56 H22        5.9375   20.6462    3.8223 H         2 RES2    0.0000
     57 N3        10.6415    1.6665    7.3066 N.2       3 RES3    0.0000
     58 O7        11.2154    0.3814    7.3426 O.3       3 RES3    0.0000
     59 C27       12.5435    0.5345    7.3892 C.2       3 RES3    0.0000
     60 C28       12.8876    1.8459    7.4091 C.2       3 RES3    0.0000
     61 C29       14.3134    2.2022    7.4597 C.2       3 RES3    0.0000
     62 O8        14.7400    3.3426    7.5089 O.2       3 RES3    0.0000
     63 C30       15.2494    1.0260    7.3945 C.3       3 RES3    0.0000
     64 H23       15.5153    0.8993    6.4482 H         3 RES3    0.0000
     65 H24       16.0667    1.2578    7.9002 H         3 RES3    0.0000
     66 C31       14.7746   -0.2168    7.8803 C.3       3 RES3    0.0000
     67 H25       14.7881   -0.1782    8.8704 H         3 RES3    0.0000
     68 H26       15.4206   -0.9144    7.6074 H         3 RES3    0.0000
     69 C32       13.4164   -0.6589    7.4597 C.3       3 RES3    0.0000
     70 H27       13.4615   -1.0990    6.5733 H         3 RES3    0.0000
     71 H28       13.0529   -1.3093    8.1132 H         3 RES3    0.0000
     72 C33       11.6226    2.5471    7.3519 C.2       3 RES3    0.0000
     73 C34       11.2560    3.9732    7.3120 C.ar      3 RES3    0.0000
     74 C35        9.9369    4.3937    7.1030 C.ar      3 RES3    0.0000
     75 O9         8.8867    3.5237    6.9859 O.3       3 RES3    0.0000
     76 H29        9.3299    2.6830    7.0538 H         3 RES3    0.0000
     77 C36        9.6184    5.7309    7.0511 C.ar      3 RES3    0.0000
     78 H30        8.7169    5.9949    6.9140 H         3 RES3    0.0000
     79 C37       10.5934    6.6882    7.1948 C.ar      3 RES3    0.0000
     80 H31       10.3696    7.6090    7.1283 H         3 RES3    0.0000
     81 C38       11.9050    6.3061    7.4371 C.ar      3 RES3    0.0000
     82 H32       12.5736    6.9672    7.5702 H         3 RES3    0.0000
     83 C39       12.2401    4.9646    7.4837 C.ar      3 RES3    0.0000
     84 H33       13.1430    4.7092    7.6327 H         3 RES3    0.0000
     85 N4         4.3660    7.0930   10.4542 N.2       4 RES4    0.0000
     86 O10        3.8552    5.7820   10.4609 O.3       4 RES4    0.0000
     87 C40        2.5300    5.8597   10.3118 C.2       4 RES4    0.0000
     88 C41        2.1244    7.1432   10.2067 C.2       4 RES4    0.0000
     89 C42        0.7016    7.4094    9.9312 C.2       4 RES4    0.0000
     90 O11        0.2359    8.5152    9.7089 O.2       4 RES4    0.0000
     91 C43       -0.1638    6.2009    9.8047 C.3       4 RES4    0.0000
     92 H34       -0.1623    5.9069    8.8611 H         4 RES4    0.0000
     93 H35       -1.0922    6.4478   10.0416 H         4 RES4    0.0000
     94 C44        0.2885    4.9968   10.7137 C.3       4 RES4    0.0000
     95 H36        0.2449    5.2608   11.6680 H         4 RES4    0.0000
     96 H37       -0.3140    4.2241   10.5753 H         4 RES4    0.0000
     97 C45        1.7233    4.6148   10.3424 C.3       4 RES4    0.0000
     98 H38        2.0928    3.9859   11.0119 H         4 RES4    0.0000
     99 H39        1.7413    4.1747    9.4560 H         4 RES4    0.0000
    100 C46        3.3458    7.9159   10.3225 C.2       4 RES4    0.0000
    101 C47        3.6283    9.3540   10.3304 C.ar      4 RES4    0.0000
    102 C48        4.9384    9.8434   10.5287 C.ar      4 RES4    0.0000
    103 O12        6.0291    9.0449   10.6698 O.3       4 RES4    0.0000
    104 H40        5.7392    8.1992   10.8335 H         4 RES4    0.0000
    105 C49        5.1668   11.1999   10.6006 C.ar      4 RES4    0.0000
    106 H41        6.0472   11.5197   10.7683 H         4 RES4    0.0000
    107 C50        4.1436   12.0993   10.4343 C.ar      4 RES4    0.0000
    108 H42        4.3239   13.0329   10.4662 H         4 RES4    0.0000
    109 C51        2.8621   11.6592   10.2213 C.ar      4 RES4    0.0000
    110 H43        2.1529   12.2796   10.1002 H         4 RES4    0.0000
    111 C52        2.6157   10.2963   10.1854 C.ar      4 RES4    0.0000
    112 H44        1.7248    9.9958   10.0576 H         4 RES4    0.0000
@<TRIPOS>BOND
     1    1    2 1
     2    2    3 1
     3    3    4 2
     4    4    5 1
     5    5    6 2
     6    7    5 1
     7    8    7 1
     8    9    7 1
     9   10    7 1
    10   11   10 1
    11   12   10 1
    12   13    3 1
    13   14   13 1
    14   15   13 1
    15   16    1 2
    16   17   16 1
    17   18   17 ar
    18   19   18 1
    19   20   19 1
    20   21   18 ar
    21   22   21 1
    22   23   21 ar
    23   24   23 1
    24   25   23 ar
    25   26   25 1
    26   27   17 ar
    27   28   27 1
    28   29   30 1
    29   30   31 1
    30   31   32 2
    31   32   33 1
    32   33   34 2
    33   35   33 1
    34   36   35 1
    35   37   35 1
    36   38   35 1
    37   39   38 1
    38   40   38 1
    39   41   31 1
    40   42   41 1
    41   43   41 1
    42   44   29 2
    43   45   44 1
    44   46   45 ar
    45   47   46 1
    46   48   47 1
    47   49   46 ar
    48   50   49 1
    49   51   49 ar
    50   52   51 1
    51   53   51 ar
    52   54   53 1
    53   55   45 ar
    54   56   55 1
    55   57   58 1
    56   58   59 1
    57   59   60 2
    58   60   61 1
    59   61   62 2
    60   63   61 1
    61   64   63 1
    62   65   63 1
    63   66   63 1
    64   67   66 1
    65   68   66 1
    66   69   59 1
    67   70   69 1
    68   71   69 1
    69   72   57 2
    70   73   72 1
    71   74   73 ar
    72   75   74 1
    73   76   75 1
    74   77   74 ar
    75   78   77 1
    76   79   77 ar
    77   80   79 1
    78   81   79 ar
    79   82   81 1
    80   83   73 ar
    81   84   83 1
    82   85   86 1
    83   86   87 1
    84   87   88 2
    85   88   89 1
    86   89   90 2
    87   91   89 1
    88   92   91 1
    89   93   91 1
    90   94   91 1
    91   95   94 1
    92   96   94 1
    93   97   87 1
    94   98   97 1
    95   99   97 1
    96  100   85 2
    97  101  100 1
    98  102  101 ar
    99  103  102 1
   100  104  103 1
   101  105  102 ar
   102  106  105 1
   103  107  105 ar
   104  108  107 1
   105  109  107 ar
   106  110  109 1
   107  111  101 ar
   108  112  111 1
   109    4   16 1
   110   10   13 1
   111   25   27 ar
   112   32   44 1
   113   38   41 1
   114   53   55 ar
   115   60   72 1
   116   66   69 1
   117   81   83 ar
   118   88  100 1
   119   94   97 1
   120  109  111 ar
@<TRIPOS>SUBSTRUCTURE
     1 RES1 1
     2 RES2 29
     3 RES3 57
     4 RES4 85

@<TRIPOS>CRYSIN
  15.0240   21.4640   13.3090  90.0000  90.0000  90.0000  29 1

