# MOL2 file generated by ConQuest
# Please check atom types

@<TRIPOS>MOLECULE
GORJAA
    83    88     1
SMALL
NO_CHARGES
****
Generated from CSD

@<TRIPOS>ATOM
      1 O1         5.9781   -3.2292    8.2528 O.2       1 RES1    0.0000
      2 O2         4.9123   -5.1046    8.4297 O.2       1 RES1    0.0000
      3 O3        -4.1139    1.1006    9.4807 O.2       1 RES1    0.0000
      4 O4        -1.4086    5.0052   13.8907 O.3       1 RES1    0.0000
      5 N1         4.9397   -3.8791    8.3971 N.pl3     1 RES1    0.0000
      6 N2        -1.5097    1.7319   10.8019 N.2       1 RES1    0.0000
      7 N3        -2.7759    2.2737   10.9742 N.am      1 RES1    0.0000
      8 N4        -1.5245    1.6768   17.2926 N.3       1 RES1    0.0000
      9 N5         0.2637    7.9553   10.5333 N.3       1 RES1    0.0000
     10 C1        -3.9621    1.9700   10.3423 C.2       1 RES1    0.0000
     11 C2        -4.9680    2.8716   10.8981 C.ar      1 RES1    0.0000
     12 C3        -6.3134    2.9789   10.6000 C.ar      1 RES1    0.0000
     13 H1        -6.6998    2.4392    9.9496 H         1 RES1    0.0000
     14 C4        -7.0642    3.8956   11.2800 C.ar      1 RES1    0.0000
     15 H2        -7.9715    3.9758   11.0922 H         1 RES1    0.0000
     16 C5        -6.4955    4.7016   12.2379 C.ar      1 RES1    0.0000
     17 H3        -7.0235    5.3096   12.7005 H         1 RES1    0.0000
     18 C6        -5.1358    4.6128   12.5189 C.ar      1 RES1    0.0000
     19 H4        -4.7467    5.1753   13.1491 H         1 RES1    0.0000
     20 C7        -4.3762    3.6819   11.8498 C.ar      1 RES1    0.0000
     21 C8        -2.8772    3.3772   11.9724 C.3       1 RES1    0.0000
     22 C9        -2.5036    2.9006   13.3587 C.ar      1 RES1    0.0000
     23 C10       -2.8427    1.6443   13.8524 C.ar      1 RES1    0.0000
     24 H5        -3.3007    1.0605   13.2904 H         1 RES1    0.0000
     25 C11       -2.5381    1.2198   15.1161 C.ar      1 RES1    0.0000
     26 H6        -2.7882    0.3676   15.3924 H         1 RES1    0.0000
     27 C12       -1.8428    2.0753   16.0103 C.ar      1 RES1    0.0000
     28 C13       -1.6996    0.3064   17.7366 C.3       1 RES1    0.0000
     29 H7        -2.5179   -0.0448   17.3516 H         1 RES1    0.0000
     30 H8        -1.8034    0.3017   18.7007 H         1 RES1    0.0000
     31 C14       -0.5568   -0.6127   17.3671 C.3       1 RES1    0.0000
     32 H9        -0.4756   -0.6552   16.4108 H         1 RES1    0.0000
     33 H10       -0.7278   -1.4918   17.7118 H         1 RES1    0.0000
     34 H11        0.2595   -0.2757   17.7428 H         1 RES1    0.0000
     35 C15       -0.7495    2.5476   18.1759 C.3       1 RES1    0.0000
     36 H12       -0.0595    2.9883   17.6543 H         1 RES1    0.0000
     37 H13       -0.3096    2.0032   18.8466 H         1 RES1    0.0000
     38 C16       -1.5767    3.6010   18.8714 C.3       1 RES1    0.0000
     39 H14       -1.9931    4.1666   18.2163 H         1 RES1    0.0000
     40 H15       -1.0097    4.1313   19.4365 H         1 RES1    0.0000
     41 H16       -2.2526    3.1768   19.4039 H         1 RES1    0.0000
     42 C17       -1.4985    3.3357   15.5275 C.ar      1 RES1    0.0000
     43 H17       -1.0468    3.9286   16.0832 H         1 RES1    0.0000
     44 C18       -1.8148    3.7238   14.2374 C.ar      1 RES1    0.0000
     45 C19       -1.3846    5.3252   12.5390 C.ar      1 RES1    0.0000
     46 C20       -0.6268    6.4484   12.2285 C.ar      1 RES1    0.0000
     47 H18       -0.2131    6.9334   12.9039 H         1 RES1    0.0000
     48 C21       -0.4883    6.8415   10.9059 C.ar      1 RES1    0.0000
     49 C22        0.9231    8.7457   11.5594 C.3       1 RES1    0.0000
     50 H19        1.7123    8.2673   11.8591 H         1 RES1    0.0000
     51 H20        0.3243    8.8282   12.3186 H         1 RES1    0.0000
     52 C23        1.3317   10.1197   11.1232 C.3       1 RES1    0.0000
     53 H21        1.9135   10.0537   10.3610 H         1 RES1    0.0000
     54 H22        1.7940   10.5580   11.8404 H         1 RES1    0.0000
     55 H23        0.5514   10.6264   10.8872 H         1 RES1    0.0000
     56 C24        1.0553    7.8431    9.2137 C.3       1 RES1    0.0000
     57 H24        1.9719    8.1212    9.3627 H         1 RES1    0.0000
     58 H25        1.0651    6.9169    8.9219 H         1 RES1    0.0000
     59 C25        0.4914    8.6279    8.2310 C.3       1 RES1    0.0000
     60 H26       -0.4104    8.3380    8.0696 H         1 RES1    0.0000
     61 H27        1.0039    8.5454    7.4238 H         1 RES1    0.0000
     62 H28        0.4877    9.5446    8.5167 H         1 RES1    0.0000
     63 C26       -1.1597    6.0961    9.9216 C.ar      1 RES1    0.0000
     64 H29       -1.0928    6.3489    9.0290 H         1 RES1    0.0000
     65 C27       -1.9183    4.9953   10.2616 C.ar      1 RES1    0.0000
     66 H30       -2.3626    4.5249    9.5941 H         1 RES1    0.0000
     67 C28       -2.0349    4.5696   11.5827 C.ar      1 RES1    0.0000
     68 C29       -1.3891    0.7063   10.0396 C.2       1 RES1    0.0000
     69 H31       -2.1354    0.3653    9.6018 H         1 RES1    0.0000
     70 C30       -0.0968    0.0794    9.8595 C.2       1 RES1    0.0000
     71 H32        0.6537    0.4878   10.2275 H         1 RES1    0.0000
     72 C31        0.0583   -1.0565    9.1889 C.2       1 RES1    0.0000
     73 H33       -0.7107   -1.4423    8.8334 H         1 RES1    0.0000
     74 C32        1.3200   -1.7630    8.9560 C.ar      1 RES1    0.0000
     75 C33        2.5442   -1.1253    9.0492 C.ar      1 RES1    0.0000
     76 H34        2.5702   -0.2215    9.2634 H         1 RES1    0.0000
     77 C34        3.7339   -1.8029    8.8287 C.ar      1 RES1    0.0000
     78 H35        4.5493   -1.3575    8.8722 H         1 RES1    0.0000
     79 C35        3.6828   -3.1462    8.5446 C.ar      1 RES1    0.0000
     80 C36        2.4847   -3.8108    8.4375 C.ar      1 RES1    0.0000
     81 H36        2.4735   -4.7228    8.2512 H         1 RES1    0.0000
     82 C37        1.2960   -3.1273    8.6067 C.ar      1 RES1    0.0000
     83 H37        0.4836   -3.5657    8.4918 H         1 RES1    0.0000
@<TRIPOS>BOND
     1    1    5 2
     2    2    5 2
     3    3   10 2
     4    4   44 1
     5    5   79 1
     6    6    7 1
     7    7   10 1
     8    8   27 1
     9    9   48 1
    10   10   11 1
    11   11   12 ar
    12   12   13 1
    13   14   12 ar
    14   15   14 1
    15   16   14 ar
    16   17   16 1
    17   18   16 ar
    18   19   18 1
    19   20   11 ar
    20   21    7 1
    21   22   21 1
    22   23   22 ar
    23   24   23 1
    24   25   23 ar
    25   26   25 1
    26   27   25 ar
    27   28    8 1
    28   29   28 1
    29   30   28 1
    30   31   28 1
    31   32   31 1
    32   33   31 1
    33   34   31 1
    34   35    8 1
    35   36   35 1
    36   37   35 1
    37   38   35 1
    38   39   38 1
    39   40   38 1
    40   41   38 1
    41   42   27 ar
    42   43   42 1
    43   44   22 ar
    44   45    4 1
    45   46   45 ar
    46   47   46 1
    47   48   46 ar
    48   49    9 1
    49   50   49 1
    50   51   49 1
    51   52   49 1
    52   53   52 1
    53   54   52 1
    54   55   52 1
    55   56    9 1
    56   57   56 1
    57   58   56 1
    58   59   56 1
    59   60   59 1
    60   61   59 1
    61   62   59 1
    62   63   48 ar
    63   64   63 1
    64   65   63 ar
    65   66   65 1
    66   67   21 1
    67   68    6 2
    68   69   68 1
    69   70   68 1
    70   71   70 1
    71   72   70 2
    72   73   72 1
    73   74   72 1
    74   75   74 ar
    75   76   75 1
    76   77   75 ar
    77   78   77 1
    78   79   77 ar
    79   80   79 ar
    80   81   80 1
    81   82   74 ar
    82   83   82 1
    83   18   20 ar
    84   20   21 1
    85   42   44 ar
    86   45   67 ar
    87   65   67 ar
    88   80   82 ar
@<TRIPOS>SUBSTRUCTURE
     1 RES1 1

@<TRIPOS>CRYSIN
   8.9207   23.5670   16.0637  90.0000 104.8890  90.0000 231 1

