# MOL2 file generated by ConQuest
# Please check atom types

@<TRIPOS>MOLECULE
GOTFOM
    28    29     1
SMALL
NO_CHARGES
****
Generated from CSD

@<TRIPOS>ATOM
      1 O1        -1.5958    4.0951    3.2783 O.3       1 RES1    0.0000
      2 H1        -2.2587    3.7490    2.9415 H         1 RES1    0.0000
      3 O2        -1.9952    2.7037   -0.5671 O.2       1 RES1    0.0000
      4 N1        -1.9194    3.0367    0.6022 N.pl3     1 RES1    0.0000
      5 O3        -2.9050    3.0006    1.3525 O.2       1 RES1    0.0000
      6 N2         3.9900    4.1964    0.1275 N.2       1 RES1    0.0000
      7 C1        -0.6501    3.4807    1.1324 C.ar      1 RES1    0.0000
      8 C2        -0.5545    3.9929    2.4297 C.ar      1 RES1    0.0000
      9 C3         4.9647    4.1405   -0.8963 C.ar      1 RES1    0.0000
     10 C4         2.8393    3.7441   -0.1575 C.2       1 RES1    0.0000
     11 H2         2.7132    3.3504   -0.9911 H         1 RES1    0.0000
     12 C5         0.4642    3.3968    0.3063 C.ar      1 RES1    0.0000
     13 H3         0.3773    3.0598   -0.5563 H         1 RES1    0.0000
     14 C6         1.7004    3.8117    0.7601 C.ar      1 RES1    0.0000
     15 C7         0.7023    4.4180    2.8762 C.ar      1 RES1    0.0000
     16 H4         0.7907    4.7699    3.7317 H         1 RES1    0.0000
     17 C8         1.8004    4.3204    2.0673 C.ar      1 RES1    0.0000
     18 H5         2.6285    4.5957    2.3878 H         1 RES1    0.0000
     19 C9         4.6850    4.5190   -2.2116 C.ar      1 RES1    0.0000
     20 H6         3.8326    4.8173   -2.4314 H         1 RES1    0.0000
     21 C10        5.6568    4.4563   -3.1887 C.ar      1 RES1    0.0000
     22 H7         5.4563    4.7016   -4.0633 H         1 RES1    0.0000
     23 C11        6.2675    3.7455   -0.5839 C.ar      1 RES1    0.0000
     24 H8         6.4873    3.5239    0.2920 H         1 RES1    0.0000
     25 C12        7.2295    3.6821   -1.5741 C.ar      1 RES1    0.0000
     26 H9         8.0898    3.4027   -1.3597 H         1 RES1    0.0000
     27 C13        6.9334    4.0256   -2.8640 C.ar      1 RES1    0.0000
     28 H10        7.5880    3.9706   -3.5229 H         1 RES1    0.0000
@<TRIPOS>BOND
     1    1    2 1
     2    3    4 2
     3    4    5 2
     4    6    9 1
     5    7    4 1
     6    8    1 1
     7    9   19 ar
     8   10    6 2
     9   11   10 1
    10   12    7 ar
    11   13   12 1
    12   14   10 1
    13   15    8 ar
    14   16   15 1
    15   17   14 ar
    16   18   17 1
    17   19   20 1
    18   21   19 ar
    19   22   21 1
    20   23    9 ar
    21   24   23 1
    22   25   23 ar
    23   26   25 1
    24   27   21 ar
    25   28   27 1
    26    7    8 ar
    27   12   14 ar
    28   15   17 ar
    29   25   27 ar
@<TRIPOS>SUBSTRUCTURE
     1 RES1 1

@<TRIPOS>CRYSIN
  12.4516    6.9684   13.2141  90.0000  90.0000  90.0000  33 1

