# MOL2 file generated by ConQuest
# Please check atom types

@<TRIPOS>MOLECULE
GOXDOO
    86    92     2
SMALL
NO_CHARGES
****
Generated from CSD

@<TRIPOS>ATOM
      1 N1         4.8601    5.6428    1.6832 N.pl3     1 RES1    0.0000
      2 H1         4.8720    6.0266    0.8734 H         1 RES1    0.0000
      3 N2         4.9362    6.5755    6.2500 N.pl3     1 RES1    0.0000
      4 N3         3.9635    3.1323    9.5248 N.pl3     1 RES1    0.0000
      5 O1         5.5885    3.4529    1.0099 O.3       1 RES1    0.0000
      6 O2         4.9232    6.8849    5.0666 O.2       1 RES1    0.0000
      7 O3         4.8083    7.3873    7.1678 O.2       1 RES1    0.0000
      8 O4         3.4655    4.0143   10.2090 O.2       1 RES1    0.0000
      9 O5         3.9351    1.9466    9.8095 O.2       1 RES1    0.0000
     10 C1         5.3786    4.0116    3.3342 C.3       1 RES1    0.0000
     11 C2         5.3939    2.4924    3.1254 C.3       1 RES1    0.0000
     12 H2         6.3021    2.1205    3.2550 H         1 RES1    0.0000
     13 H3         4.7655    2.0385    3.7412 H         1 RES1    0.0000
     14 C3         4.9446    2.3614    1.6843 C.3       1 RES1    0.0000
     15 H4         5.2296    1.4939    1.3031 H         1 RES1    0.0000
     16 H5         3.9600    2.4350    1.6143 H         1 RES1    0.0000
     17 C4         5.7923    4.5729    1.9233 C.3       1 RES1    0.0000
     18 C5         3.7010    5.4351    2.4203 C.ar      1 RES1    0.0000
     19 C6         2.4484    6.0177    2.2596 C.ar      1 RES1    0.0000
     20 H6         2.2756    6.6165    1.5435 H         1 RES1    0.0000
     21 C7         1.4549    5.6957    3.1820 C.ar      1 RES1    0.0000
     22 H7         0.5970    6.0952    3.0994 H         1 RES1    0.0000
     23 C8         1.6914    4.8031    4.2193 C.ar      1 RES1    0.0000
     24 H8         1.0012    4.6016    4.8392 H         1 RES1    0.0000
     25 C9         2.9458    4.2020    4.3493 C.ar      1 RES1    0.0000
     26 H9         3.1086    3.5764    5.0443 H         1 RES1    0.0000
     27 C10        3.9482    4.5286    3.4527 C.ar      1 RES1    0.0000
     28 C11        7.2156    5.0378    1.7032 C.3       1 RES1    0.0000
     29 H10        7.3373    5.2829    0.7620 H         1 RES1    0.0000
     30 H11        7.8351    4.3148    1.9360 H         1 RES1    0.0000
     31 H12        7.3962    5.8172    2.2702 H         1 RES1    0.0000
     32 C12        6.3276    4.5120    4.4557 C.3       1 RES1    0.0000
     33 H13        7.2044    4.0613    4.3654 H         1 RES1    0.0000
     34 H14        6.4740    5.4849    4.3477 H         1 RES1    0.0000
     35 C13        5.7703    4.2429    5.8304 C.ar      1 RES1    0.0000
     36 C14        5.0903    5.1624    6.6326 C.ar      1 RES1    0.0000
     37 C15        4.5210    4.8221    7.8494 C.ar      1 RES1    0.0000
     38 H15        4.0632    5.4694    8.3736 H         1 RES1    0.0000
     39 C16        4.6384    3.5242    8.2749 C.ar      1 RES1    0.0000
     40 C17        5.3423    2.5804    7.5568 C.ar      1 RES1    0.0000
     41 H16        5.4374    1.6939    7.8838 H         1 RES1    0.0000
     42 C18        5.9057    2.9496    6.3543 C.ar      1 RES1    0.0000
     43 H17        6.4028    2.3058    5.8629 H         1 RES1    0.0000
     44 N4         1.1349    9.1360    1.4228 N.pl3     2 RES2    0.0000
     45 H18        1.0019    9.1194    0.5357 H         2 RES2    0.0000
     46 N5         3.8159   11.0686    6.4314 N.pl3     2 RES2    0.0000
     47 N6         1.9704    8.2364    9.8970 N.pl3     2 RES2    0.0000
     48 O6         1.9892   11.3753    1.4339 O.3       2 RES2    0.0000
     49 O7         4.7117   10.9565    5.6053 O.2       2 RES2    0.0000
     50 O8         3.5764   12.1060    7.0429 O.2       2 RES2    0.0000
     51 O9         2.4171    9.0461   10.7006 O.2       2 RES2    0.0000
     52 O10        1.4212    7.1921   10.2037 O.2       2 RES2    0.0000
     53 C19        1.8821   10.1010    3.4684 C.3       2 RES2    0.0000
     54 C20        2.0753   11.5913    3.7563 C.3       2 RES2    0.0000
     55 H19        1.5557   11.8749    4.5493 H         2 RES2    0.0000
     56 H20        3.0302   11.8091    3.8968 H         2 RES2    0.0000
     57 C21        1.5432   12.2371    2.4887 C.3       2 RES2    0.0000
     58 H21        0.5544   12.2886    2.5071 H         2 RES2    0.0000
     59 H22        1.9104   13.1499    2.3781 H         2 RES2    0.0000
     60 C22        2.1648   10.0134    1.9208 C.3       2 RES2    0.0000
     61 C23        0.0580    9.1453    2.2907 C.ar      2 RES2    0.0000
     62 C24       -1.2416    8.6804    2.0697 C.ar      2 RES2    0.0000
     63 H23       -1.5026    8.3438    1.2200 H         2 RES2    0.0000
     64 C25       -2.1400    8.7250    3.1293 C.ar      2 RES2    0.0000
     65 H24       -3.0229    8.3980    3.0022 H         2 RES2    0.0000
     66 C26       -1.7796    9.2330    4.3610 C.ar      2 RES2    0.0000
     67 H25       -2.4120    9.2509    5.0691 H         2 RES2    0.0000
     68 C27       -0.4875    9.7214    4.5684 C.ar      2 RES2    0.0000
     69 H26       -0.2402   10.0855    5.4103 H         2 RES2    0.0000
     70 C28        0.4267    9.6676    3.5312 C.ar      2 RES2    0.0000
     71 C29        3.5392    9.5823    1.4498 C.3       2 RES2    0.0000
     72 H27        3.5810    9.6357    0.4721 H         2 RES2    0.0000
     73 H28        3.7076    8.6594    1.7345 H         2 RES2    0.0000
     74 H29        4.2178   10.1735    1.8388 H         2 RES2    0.0000
     75 C30        2.8209    9.1551    4.2600 C.3       2 RES2    0.0000
     76 H30        2.7666    8.2532    3.8544 H         2 RES2    0.0000
     77 H31        3.7513    9.4750    4.1479 H         2 RES2    0.0000
     78 C31        2.5388    9.0266    5.7438 C.ar      2 RES2    0.0000
     79 C32        2.9943    9.8885    6.7443 C.ar      2 RES2    0.0000
     80 C33        2.7757    9.6828    8.0950 C.ar      2 RES2    0.0000
     81 H32        3.0841   10.3028    8.7449 H         2 RES2    0.0000
     82 C34        2.0931    8.5428    8.4574 C.ar      2 RES2    0.0000
     83 C35        1.5893    7.6625    7.5304 C.ar      2 RES2    0.0000
     84 H33        1.1106    6.8897    7.8060 H         2 RES2    0.0000
     85 C36        1.7948    7.9261    6.1822 C.ar      2 RES2    0.0000
     86 H34        1.4176    7.3399    5.5376 H         2 RES2    0.0000
@<TRIPOS>BOND
     1    1    2 1
     2    3    6 2
     3    4    8 2
     4    5   14 1
     5    7    3 2
     6    9    4 2
     7   10   11 1
     8   11   12 1
     9   13   11 1
    10   14   11 1
    11   15   14 1
    12   16   14 1
    13   17    1 1
    14   18    1 1
    15   19   18 ar
    16   20   19 1
    17   21   19 ar
    18   22   21 1
    19   23   21 ar
    20   24   23 1
    21   25   23 ar
    22   26   25 1
    23   27   10 1
    24   28   17 1
    25   29   28 1
    26   30   28 1
    27   31   28 1
    28   32   10 1
    29   33   32 1
    30   34   32 1
    31   35   32 1
    32   36    3 1
    33   37   36 ar
    34   38   37 1
    35   39    4 1
    36   40   39 ar
    37   41   40 1
    38   42   35 ar
    39   43   42 1
    40   44   45 1
    41   46   49 2
    42   47   51 2
    43   48   57 1
    44   50   46 2
    45   52   47 2
    46   53   54 1
    47   54   55 1
    48   56   54 1
    49   57   54 1
    50   58   57 1
    51   59   57 1
    52   60   44 1
    53   61   44 1
    54   62   61 ar
    55   63   62 1
    56   64   62 ar
    57   65   64 1
    58   66   64 ar
    59   67   66 1
    60   68   66 ar
    61   69   68 1
    62   70   53 1
    63   71   60 1
    64   72   71 1
    65   73   71 1
    66   74   71 1
    67   75   53 1
    68   76   75 1
    69   77   75 1
    70   78   75 1
    71   79   46 1
    72   80   79 ar
    73   81   80 1
    74   82   47 1
    75   83   82 ar
    76   84   83 1
    77   85   78 ar
    78   86   85 1
    79    5   17 1
    80   10   17 1
    81   18   27 ar
    82   25   27 ar
    83   35   36 ar
    84   37   39 ar
    85   40   42 ar
    86   48   60 1
    87   53   60 1
    88   61   70 ar
    89   68   70 ar
    90   78   79 ar
    91   80   82 ar
    92   83   85 ar
@<TRIPOS>SUBSTRUCTURE
     1 RES1 1
     2 RES2 44

@<TRIPOS>CRYSIN
   9.2280   10.3167   17.7434  85.7470  87.2780  83.5190   2 1

