# MOL2 file generated by ConQuest
# Please check atom types

@<TRIPOS>MOLECULE
GOZFOS
    34    36     1
SMALL
NO_CHARGES
****
Generated from CSD

@<TRIPOS>ATOM
      1 O1         6.2183    1.7560   10.5208 O.2       1 RES1    0.0000
      2 O2         3.8952    5.9033    9.2557 O.2       1 RES1    0.0000
      3 O3         5.6078    8.4904   13.3744 O.3       1 RES1    0.0000
      4 O4         5.4963    7.0666   15.1766 O.3       1 RES1    0.0000
      5 O5         3.9996    2.6425   13.3146 O.2       1 RES1    0.0000
      6 N1         6.2159   -0.0361    9.2050 N.am      1 RES1    0.0000
      7 H1         6.4729   -0.5619    9.8790 H         1 RES1    0.0000
      8 H2         6.0856   -0.4206    8.4535 H         1 RES1    0.0000
      9 N2         4.9894    3.9415    9.6463 N.am      1 RES1    0.0000
     10 H3         5.3353    3.4193   10.2769 H         1 RES1    0.0000
     11 N3         4.0954    3.3453   12.3179 N.2       1 RES1    0.0000
     12 C1         6.0654    1.2716    9.3961 C.2       1 RES1    0.0000
     13 C2         5.7066    2.1094    8.2140 C.ar      1 RES1    0.0000
     14 C3         5.9136    1.6146    6.9253 C.ar      1 RES1    0.0000
     15 H4         6.2951    0.7721    6.8225 H         1 RES1    0.0000
     16 C4         5.5712    2.3312    5.8026 C.ar      1 RES1    0.0000
     17 H5         5.7188    1.9825    4.9539 H         1 RES1    0.0000
     18 C5         5.0047    3.5748    5.9628 C.ar      1 RES1    0.0000
     19 H6         4.7531    4.0614    5.2114 H         1 RES1    0.0000
     20 C6         4.8029    4.1110    7.2082 C.ar      1 RES1    0.0000
     21 H7         4.4269    4.9571    7.2888 H         1 RES1    0.0000
     22 C7         5.1551    3.4047    8.3551 C.ar      1 RES1    0.0000
     23 C8         4.4458    5.1233   10.0238 C.2       1 RES1    0.0000
     24 C9         4.6396    5.5188   11.4626 C.ar      1 RES1    0.0000
     25 C10        4.9653    6.8533   11.6747 C.ar      1 RES1    0.0000
     26 H8         5.0045    7.4534   10.9653 H         1 RES1    0.0000
     27 C11        5.2268    7.2586   12.9555 C.ar      1 RES1    0.0000
     28 C12        5.7013    8.4246   14.8064 C.3       1 RES1    0.0000
     29 H9         6.5758    8.7248   15.1004 H         1 RES1    0.0000
     30 H10        5.0267    8.9896   15.2142 H         1 RES1    0.0000
     31 C13        5.1443    6.4030   14.0340 C.ar      1 RES1    0.0000
     32 C14        4.7937    5.1210   13.8837 C.ar      1 RES1    0.0000
     33 H11        4.7275    4.5478   14.6141 H         1 RES1    0.0000
     34 C15        4.5289    4.6735   12.5709 C.ar      1 RES1    0.0000
@<TRIPOS>BOND
     1    1   12 2
     2    2   23 2
     3    3   27 1
     4    4   28 1
     5    5   11 2
     6    6    7 1
     7    8    6 1
     8    9   10 1
     9   11   34 1
    10   12    6 1
    11   13   12 1
    12   14   13 ar
    13   15   14 1
    14   16   14 ar
    15   17   16 1
    16   18   16 ar
    17   19   18 1
    18   20   18 ar
    19   21   20 1
    20   22    9 1
    21   23    9 1
    22   24   23 1
    23   25   24 ar
    24   26   25 1
    25   27   25 ar
    26   28    3 1
    27   29   28 1
    28   30   28 1
    29   31    4 1
    30   32   31 ar
    31   33   32 1
    32   34   24 ar
    33   13   22 ar
    34   20   22 ar
    35   27   31 ar
    36   32   34 ar
@<TRIPOS>SUBSTRUCTURE
     1 RES1 1

@<TRIPOS>CRYSIN
   7.7275   16.0529   11.1586  90.0000  97.9860  90.0000 231 1

