# MOL2 file generated by ConQuest
# Please check atom types

@<TRIPOS>MOLECULE
GOZFUY
    34    37     1
SMALL
NO_CHARGES
****
Generated from CSD

@<TRIPOS>ATOM
      1 O1        -0.8444    0.7053    3.4682 O.2       1 RES1    0.0000
      2 O2         1.4156    3.8098    0.1365 O.3       1 RES1    0.0000
      3 O3         3.2644    4.6332    1.2436 O.3       1 RES1    0.0000
      4 O4         1.2974    2.2106    8.7177 O.2       1 RES1    0.0000
      5 N1         0.1123    1.1821    4.0681 N.2       1 RES1    0.0000
      6 N2         3.4667    1.4254    5.3861 N.2       1 RES1    0.0000
      7 N3         1.6374    2.4288    6.4851 N.am      1 RES1    0.0000
      8 C1         0.8617    2.1339    3.3382 C.ar      1 RES1    0.0000
      9 C2         0.5730    2.4971    2.0131 C.ar      1 RES1    0.0000
     10 H1        -0.1785    2.1725    1.5722 H         1 RES1    0.0000
     11 C3         1.4380    3.3388    1.4101 C.ar      1 RES1    0.0000
     12 C4         2.5876    4.5946   -0.0264 C.3       1 RES1    0.0000
     13 H2         2.3524    5.4925   -0.3081 H         1 RES1    0.0000
     14 H3         3.1618    4.2008   -0.7006 H         1 RES1    0.0000
     15 C5         2.5612    3.8206    2.0671 C.ar      1 RES1    0.0000
     16 C6         2.8563    3.4937    3.3599 C.ar      1 RES1    0.0000
     17 H4         3.6095    3.8372    3.7860 H         1 RES1    0.0000
     18 C7         1.9832    2.6223    4.0175 C.ar      1 RES1    0.0000
     19 C8         2.3742    2.1316    5.3681 C.2       1 RES1    0.0000
     20 C9         3.8830    0.9096    6.6080 C.ar      1 RES1    0.0000
     21 C10        5.0573    0.1446    6.6371 C.ar      1 RES1    0.0000
     22 H5         5.5442    0.0027    5.8562 H         1 RES1    0.0000
     23 C11        5.4841   -0.3919    7.8189 C.ar      1 RES1    0.0000
     24 H6         6.2575   -0.9055    7.8379 H         1 RES1    0.0000
     25 C12        4.7877   -0.1836    8.9775 C.ar      1 RES1    0.0000
     26 H7         5.1001   -0.5495    9.7731 H         1 RES1    0.0000
     27 C13        3.6303    0.5625    8.9754 C.ar      1 RES1    0.0000
     28 H8         3.1589    0.6954    9.7646 H         1 RES1    0.0000
     29 C14        3.1722    1.1170    7.7809 C.ar      1 RES1    0.0000
     30 C15        1.9732    1.9484    7.7446 C.2       1 RES1    0.0000
     31 C16        0.4479    3.2926    6.4231 C.3       1 RES1    0.0000
     32 H9         0.4935    3.8453    5.6389 H         1 RES1    0.0000
     33 H10        0.4139    3.8488    7.2048 H         1 RES1    0.0000
     34 H11       -0.3418    2.7480    6.3838 H         1 RES1    0.0000
@<TRIPOS>BOND
     1    1    5 2
     2    2   11 1
     3    3   12 1
     4    4   30 2
     5    5    8 1
     6    6   19 2
     7    7   19 1
     8    8    9 ar
     9    9   10 1
    10   11    9 ar
    11   12    2 1
    12   13   12 1
    13   14   12 1
    14   15    3 1
    15   16   15 ar
    16   17   16 1
    17   18    8 ar
    18   19   18 1
    19   20    6 1
    20   21   20 ar
    21   22   21 1
    22   23   21 ar
    23   24   23 1
    24   25   23 ar
    25   26   25 1
    26   27   25 ar
    27   28   27 1
    28   29   20 ar
    29   30    7 1
    30   31    7 1
    31   32   31 1
    32   33   31 1
    33   34   31 1
    34   11   15 ar
    35   16   18 ar
    36   27   29 ar
    37   29   30 1
@<TRIPOS>SUBSTRUCTURE
     1 RES1 1

@<TRIPOS>CRYSIN
  28.6220    4.4895   21.8500  90.0000 105.0190  90.0000  15 1

