# MOL2 file generated by ConQuest
# Please check atom types

@<TRIPOS>MOLECULE
GOZFIM
    35    37     1
SMALL
NO_CHARGES
****
Generated from CSD

@<TRIPOS>ATOM
      1 O1        -6.6960  -13.6458  -14.8327 O.2       1 RES1    0.0000
      2 O2        -7.9703  -12.1142  -14.0377 O.2       1 RES1    0.0000
      3 N1        -2.8801  -12.1362  -15.9577 N.3       1 RES1    0.0000
      4 H1        -2.3554  -12.7121  -15.8215 H         1 RES1    0.0000
      5 N2        -5.1857  -11.5689  -16.3582 N.3       1 RES1    0.0000
      6 N3        -6.8749  -12.6341  -14.1802 N.pl3     1 RES1    0.0000
      7 C1        -2.4515  -10.9582  -16.5272 C.ar      1 RES1    0.0000
      8 C2        -1.1186  -10.7844  -16.9050 C.ar      1 RES1    0.0000
      9 H2        -0.5018  -11.4643  -16.7577 H         1 RES1    0.0000
     10 C3        -0.7184   -9.6105  -17.4935 C.ar      1 RES1    0.0000
     11 H3         0.1702   -9.5084  -17.7470 H         1 RES1    0.0000
     12 C4        -1.6039   -8.5835  -17.7154 C.ar      1 RES1    0.0000
     13 H4        -1.3195   -7.7868  -18.1013 H         1 RES1    0.0000
     14 C5        -2.9266   -8.7583  -17.3531 C.ar      1 RES1    0.0000
     15 H5        -3.5339   -8.0724  -17.5092 H         1 RES1    0.0000
     16 C6        -3.3669   -9.9276  -16.7633 C.ar      1 RES1    0.0000
     17 C7        -4.8078  -10.1519  -16.3799 C.3       1 RES1    0.0000
     18 H6        -4.9630   -9.7716  -15.5002 H         1 RES1    0.0000
     19 H7        -5.3781   -9.6834  -17.0107 H         1 RES1    0.0000
     20 C8        -4.2532  -12.3214  -15.5263 C.3       1 RES1    0.0000
     21 H8        -4.4698  -13.2728  -15.6191 H         1 RES1    0.0000
     22 C9        -4.4856  -11.9311  -14.0681 C.ar      1 RES1    0.0000
     23 C10       -3.4788  -11.3903  -13.2855 C.ar      1 RES1    0.0000
     24 H9        -2.6241  -11.3024  -13.6430 H         1 RES1    0.0000
     25 C11       -3.7151  -10.9765  -11.9837 C.ar      1 RES1    0.0000
     26 H10       -3.0179  -10.6258  -11.4771 H         1 RES1    0.0000
     27 C12       -4.9700  -11.0801  -11.4349 C.ar      1 RES1    0.0000
     28 H11       -5.1244  -10.7943  -10.5637 H         1 RES1    0.0000
     29 C13       -5.9949  -11.6073  -12.1798 C.ar      1 RES1    0.0000
     30 H12       -6.8497  -11.6775  -11.8212 H         1 RES1    0.0000
     31 C14       -5.7413  -12.0337  -13.4725 C.ar      1 RES1    0.0000
     32 C15       -5.2899  -12.1487  -17.7002 C.3       1 RES1    0.0000
     33 H13       -5.9059  -11.6328  -18.2252 H         1 RES1    0.0000
     34 H14       -5.6050  -13.0543  -17.6332 H         1 RES1    0.0000
     35 H15       -4.4265  -12.1408  -18.1190 H         1 RES1    0.0000
@<TRIPOS>BOND
     1    1    6 2
     2    2    6 2
     3    3    4 1
     4    5   17 1
     5    6   31 1
     6    7    3 1
     7    8    7 ar
     8    9    8 1
     9   10    8 ar
    10   11   10 1
    11   12   10 ar
    12   13   12 1
    13   14   12 ar
    14   15   14 1
    15   16    7 ar
    16   17   16 1
    17   18   17 1
    18   19   17 1
    19   20    3 1
    20   21   20 1
    21   22   20 1
    22   23   22 ar
    23   24   23 1
    24   25   23 ar
    25   26   25 1
    26   27   25 ar
    27   28   27 1
    28   29   27 ar
    29   30   29 1
    30   31   22 ar
    31   32    5 1
    32   33   32 1
    33   34   32 1
    34   35   32 1
    35    5   20 1
    36   14   16 ar
    37   29   31 ar
@<TRIPOS>SUBSTRUCTURE
     1 RES1 1

@<TRIPOS>CRYSIN
   7.8777   13.1622   25.3023  90.0000  90.0000  90.0000  61 1

