# MOL2 file generated by ConQuest
# Please check atom types

@<TRIPOS>MOLECULE
GOZPUG
    96    98     2
SMALL
NO_CHARGES
****
Generated from CSD

@<TRIPOS>ATOM
      1 O1         2.8356   -1.4280   15.6233 O.3       1 RES1    0.0000
      2 N1         3.3536   -1.2232   16.9579 N.2       1 RES1    0.0000
      3 O2        -0.5513   -4.3941    8.8670 O.3       2 RES2    0.0000
      4 O3         4.8844   -2.2216   15.1241 O.2       1 RES1    0.0000
      5 O4        -2.3999   -3.1557    9.1208 O.2       2 RES2    0.0000
      6 C1         2.3962   -0.9860   17.7627 C.2       1 RES1    0.0000
      7 C2         2.1523   -1.2492   12.9649 C.ar      1 RES1    0.0000
      8 C3         1.6430   -5.0759    3.8339 C.2       2 RES2    0.0000
      9 C4         0.9600   -0.9566   17.3750 C.ar      1 RES1    0.0000
     10 C5         1.2971   -5.5152    7.4905 C.ar      2 RES2    0.0000
     11 C6         1.1848   -1.3932   20.9635 C.2       1 RES1    0.0000
     12 C7         2.1026   -1.6781   20.1175 C.2       1 RES1    0.0000
     13 C8         1.7605   -1.3138   11.6360 C.ar      1 RES1    0.0000
     14 C9         0.6657   -4.6600    4.5813 C.2       2 RES2    0.0000
     15 C10        3.2978   -1.9096   13.3766 C.ar      1 RES1    0.0000
     16 C11        4.0659   -2.6084   12.4533 C.ar      1 RES1    0.0000
     17 C12        2.8079   -0.6674   19.2023 C.3       1 RES1    0.0000
     18 N2        -0.9591   -4.6185    7.4989 N.2       2 RES2    0.0000
     19 C13       -1.6575   -2.7316   11.8439 C.ar      2 RES2    0.0000
     20 C14       -1.1930   -1.9885   17.1225 C.ar      1 RES1    0.0000
     21 C15        4.3218   -0.7824   19.3952 C.3       1 RES1    0.0000
     22 C16       -1.3035   -2.6638   13.1864 C.ar      2 RES2    0.0000
     23 C17        2.3377    0.7536   19.5368 C.3       1 RES1    0.0000
     24 C18       -0.0233   -4.4441   11.5052 C.ar      2 RES2    0.0000
     25 C19       -0.0008   -5.1827    6.8719 C.2       2 RES2    0.0000
     26 C20        2.3843   -4.6732    7.4258 C.ar      2 RES2    0.0000
     27 C21       -0.3268   -3.4840   13.6686 C.ar      2 RES2    0.0000
     28 C22        2.6231   -6.9547    8.8668 C.ar      2 RES2    0.0000
     29 C23        3.7984   -1.8781   14.7651 C.2       1 RES1    0.0000
     30 C24       -1.0188   -3.6217   10.9999 C.ar      2 RES2    0.0000
     31 C25        0.3209   -4.3680   12.8477 C.ar      2 RES2    0.0000
     32 C26        0.3915    0.1958   16.8715 C.ar      1 RES1    0.0000
     33 C27        2.5116   -2.0288   10.7291 C.ar      1 RES1    0.0000
     34 C28       -0.9337    0.2378   16.5113 C.ar      1 RES1    0.0000
     35 C29        3.6548   -2.6636   11.1252 C.ar      1 RES1    0.0000
     36 C30       -1.4257   -3.6727    9.5891 C.2       2 RES2    0.0000
     37 C31        3.5579   -4.9995    8.0495 C.ar      2 RES2    0.0000
     38 C32        0.1632   -2.0776   17.5114 C.ar      1 RES1    0.0000
     39 C33       -1.6982   -0.8279   16.6564 C.ar      1 RES1    0.0000
     40 C34       -0.0104   -7.0169    5.1799 C.3       2 RES2    0.0000
     41 C35       -0.2689   -5.5169    5.4147 C.3       2 RES2    0.0000
     42 C36        3.6766   -6.1203    8.7682 C.ar      2 RES2    0.0000
     43 C37       -1.7114   -5.1940    5.0150 C.3       2 RES2    0.0000
     44 C38        1.4372   -6.6798    8.1965 C.ar      2 RES2    0.0000
     45 C39        2.6159   -5.5084    3.1044 C.2       2 RES2    0.0000
     46 C40        2.4029   -5.9024    1.6615 C.3       2 RES2    0.0000
     47 C41        3.9854   -5.6210    3.6439 C.3       2 RES2    0.0000
     48 C42        0.2284   -1.1082   21.7969 C.2       1 RES1    0.0000
     49 C43        0.4815   -0.6948   23.2255 C.3       1 RES1    0.0000
     50 C44       -1.2017   -1.2038   21.3865 C.3       1 RES1    0.0000
     51 H1         1.6339   -0.7733   13.6173 H         1 RES1    0.0000
     52 H2         2.3393   -2.6076   20.0580 H         1 RES1    0.0000
     53 H3         0.9716   -0.8612   11.3310 H         1 RES1    0.0000
     54 H4         0.5642   -3.7059    4.5960 H         2 RES2    0.0000
     55 H5         4.8798   -3.0508   12.7245 H         1 RES1    0.0000
     56 H6        -2.3377   -2.1645   11.4801 H         2 RES2    0.0000
     57 H7        -1.7360   -2.7758   17.1746 H         1 RES1    0.0000
     58 H8         4.6081   -1.6754   19.1876 H         1 RES1    0.0000
     59 H9         4.5549   -0.5759   20.3041 H         1 RES1    0.0000
     60 H10        4.7580   -0.1630   18.8058 H         1 RES1    0.0000
     61 H11       -1.7420   -2.0420   13.7668 H         2 RES2    0.0000
     62 H12        1.3844    0.7930   19.4194 H         1 RES1    0.0000
     63 H13        2.7572    1.3830   18.9480 H         1 RES1    0.0000
     64 H14        2.5552    0.9689   20.4464 H         1 RES1    0.0000
     65 H15        0.4453   -5.0637   10.9340 H         2 RES2    0.0000
     66 H16        2.3247   -3.8669    6.9088 H         2 RES2    0.0000
     67 H17       -0.0858   -3.4378   14.5983 H         2 RES2    0.0000
     68 H18        2.7250   -7.7713    9.3649 H         2 RES2    0.0000
     69 H19        1.0115   -4.9441   13.2009 H         2 RES2    0.0000
     70 H20        0.9392    0.9758   16.7669 H         1 RES1    0.0000
     71 H21        2.2494   -2.0631    9.8085 H         1 RES1    0.0000
     72 H22       -1.2983    1.0531   16.1587 H         1 RES1    0.0000
     73 H23        4.1820   -3.1637   10.4941 H         1 RES1    0.0000
     74 H24        4.3277   -4.4182    7.9825 H         2 RES2    0.0000
     75 H25        0.5184   -2.8969   17.8675 H         1 RES1    0.0000
     76 H26       -2.6305   -0.7722   16.4394 H         1 RES1    0.0000
     77 H27        0.9176   -7.1881    5.4176 H         2 RES2    0.0000
     78 H28       -0.1346   -7.2453    4.2579 H         2 RES2    0.0000
     79 H29       -0.5754   -7.5477    5.7313 H         2 RES2    0.0000
     80 H30        4.4926   -6.3267    9.2522 H         2 RES2    0.0000
     81 H31       -1.8671   -4.2596    5.1573 H         2 RES2    0.0000
     82 H32       -2.2941   -5.7107    5.5660 H         2 RES2    0.0000
     83 H33       -1.8532   -5.4096    4.0927 H         2 RES2    0.0000
     84 H34        0.7154   -7.2964    8.2400 H         2 RES2    0.0000
     85 H35        1.4839   -5.7884    1.4522 H         2 RES2    0.0000
     86 H36        2.6620   -6.8204    1.5346 H         2 RES2    0.0000
     87 H37        2.9413   -5.3458    1.0847 H         2 RES2    0.0000
     88 H38        3.9903   -5.3407    4.5614 H         2 RES2    0.0000
     89 H39        4.5830   -5.0544    3.1400 H         2 RES2    0.0000
     90 H40        4.3032   -6.5299    3.5881 H         2 RES2    0.0000
     91 H41        1.4379   -0.7014   23.3183 H         1 RES1    0.0000
     92 H42        0.0978   -1.3149   23.8488 H         1 RES1    0.0000
     93 H43        0.1477    0.1876   23.4025 H         1 RES1    0.0000
     94 H44       -1.2289   -1.4754   20.4674 H         1 RES1    0.0000
     95 H45       -1.6164   -0.3438   21.4801 H         1 RES1    0.0000
     96 H46       -1.6664   -1.8462   21.9264 H         1 RES1    0.0000
@<TRIPOS>BOND
     1    1    2 1
     2    2    6 2
     3    3   18 1
     4    4   29 2
     5    5   36 2
     6    6    9 1
     7    7   13 ar
     8    8   14 2
     9    9   32 ar
    10   10   25 1
    11   11   12 2
    12   12   17 1
    13   13   33 ar
    14   14   41 1
    15   15    7 ar
    16   16   15 ar
    17   17    6 1
    18   18   25 2
    19   19   22 ar
    20   20   38 ar
    21   21   17 1
    22   22   27 ar
    23   23   17 1
    24   24   30 ar
    25   25   41 1
    26   26   10 ar
    27   27   31 ar
    28   28   42 ar
    29   29    1 1
    30   30   19 ar
    31   31   24 ar
    32   32   34 ar
    33   33   35 ar
    34   34   39 ar
    35   35   16 ar
    36   36    3 1
    37   37   26 ar
    38   38    9 ar
    39   39   20 ar
    40   40   41 1
    41   41   43 1
    42   42   37 ar
    43   43   81 1
    44   44   10 ar
    45   45    8 2
    46   46   45 1
    47   47   45 1
    48   48   11 2
    49   49   48 1
    50   50   48 1
    51   51    7 1
    52   52   12 1
    53   53   13 1
    54   54   14 1
    55   55   16 1
    56   56   19 1
    57   57   20 1
    58   58   21 1
    59   59   21 1
    60   60   21 1
    61   61   22 1
    62   62   23 1
    63   63   23 1
    64   64   23 1
    65   65   24 1
    66   66   26 1
    67   67   27 1
    68   68   28 1
    69   69   31 1
    70   70   32 1
    71   71   33 1
    72   72   34 1
    73   73   35 1
    74   74   37 1
    75   75   38 1
    76   76   39 1
    77   77   40 1
    78   78   40 1
    79   79   40 1
    80   80   42 1
    81   82   43 1
    82   83   43 1
    83   84   44 1
    84   85   46 1
    85   86   46 1
    86   87   46 1
    87   88   47 1
    88   89   47 1
    89   90   47 1
    90   91   49 1
    91   92   49 1
    92   93   49 1
    93   94   50 1
    94   95   50 1
    95   96   50 1
    96   15   29 1
    97   28   44 ar
    98   30   36 1
@<TRIPOS>SUBSTRUCTURE
     1 RES1 1
     2 RES2 3

@<TRIPOS>CRYSIN
   9.1980   12.0910   18.3970  99.4920  96.9190 100.6630   2 1

