# MOL2 file generated by ConQuest
# Please check atom types

@<TRIPOS>MOLECULE
GUBQEB
    32    32     1
SMALL
NO_CHARGES
****
Generated from CSD

@<TRIPOS>ATOM
      1 O1         2.6090   -3.3534   -6.0835 O.2       1 RES1    0.0000
      2 O2         0.6562   -5.7469   -5.5401 O.2       1 RES1    0.0000
      3 N1         0.8862   -6.9425   -5.6470 N.pl3     1 RES1    0.0000
      4 O3         0.0203   -7.8120   -5.6488 O.2       1 RES1    0.0000
      5 O4         4.9911   -4.2445   -8.2704 O.2       1 RES1    0.0000
      6 O5         5.4663   -5.7836   -6.7294 O.3       1 RES1    0.0000
      7 O6         1.4401   -4.0291   -7.8821 O.3       1 RES1    0.0000
      8 C1         2.3930   -4.1518   -6.9618 C.2       1 RES1    0.0000
      9 C2         4.9674   -8.1292   -6.6375 C.3       1 RES1    0.0000
     10 H1         5.9046   -8.2990   -6.7550 H         1 RES1    0.0000
     11 H2         4.5385   -8.0970   -7.4964 H         1 RES1    0.0000
     12 H3         4.5771   -8.8303   -6.1109 H         1 RES1    0.0000
     13 C3         4.7797   -6.8034   -5.9298 C.3       1 RES1    0.0000
     14 C4         0.5770   -2.8544   -7.7597 C.3       1 RES1    0.0000
     15 H4         1.0430   -2.0620   -8.0698 H         1 RES1    0.0000
     16 H5         0.3222   -2.7197   -6.8337 H         1 RES1    0.0000
     17 C5         3.3046   -6.2909   -5.8882 C.3       1 RES1    0.0000
     18 H6         3.2000   -5.7125   -5.1036 H         1 RES1    0.0000
     19 C6         3.1821   -5.4230   -7.1518 C.3       1 RES1    0.0000
     20 H7         2.8002   -5.9489   -7.8851 H         1 RES1    0.0000
     21 C7        -0.6271   -3.1028   -8.5947 C.3       1 RES1    0.0000
     22 H8        -1.1083   -3.8562   -8.2457 H         1 RES1    0.0000
     23 H9        -0.3587   -3.2838   -9.4977 H         1 RES1    0.0000
     24 H10       -1.1920   -2.3269   -8.5788 H         1 RES1    0.0000
     25 C8         4.6213   -5.0586   -7.4690 C.2       1 RES1    0.0000
     26 C9         5.4346   -6.8034   -4.5576 C.3       1 RES1    0.0000
     27 H11        5.3292   -5.9392   -4.1529 H         1 RES1    0.0000
     28 H12        6.3695   -7.0024   -4.6494 H         1 RES1    0.0000
     29 H13        5.0179   -7.4685   -4.0044 H         1 RES1    0.0000
     30 C10        2.2986   -7.4154   -5.7902 C.3       1 RES1    0.0000
     31 H14        2.3661   -7.9653   -6.5863 H         1 RES1    0.0000
     32 H15        2.5230   -7.9706   -5.0276 H         1 RES1    0.0000
@<TRIPOS>BOND
     1    1    8 2
     2    2    3 2
     3    3    4 2
     4    5   25 2
     5    6   13 1
     6    7    8 1
     7    8   19 1
     8    9   10 1
     9   11    9 1
    10   12    9 1
    11   13    9 1
    12   14    7 1
    13   15   14 1
    14   16   14 1
    15   17   13 1
    16   18   17 1
    17   19   17 1
    18   20   19 1
    19   21   14 1
    20   22   21 1
    21   23   21 1
    22   24   21 1
    23   25    6 1
    24   26   13 1
    25   27   26 1
    26   28   26 1
    27   29   26 1
    28   30    3 1
    29   31   30 1
    30   32   30 1
    31   17   30 1
    32   19   25 1
@<TRIPOS>SUBSTRUCTURE
     1 RES1 1

@<TRIPOS>CRYSIN
   8.7720    7.4820    9.6400  90.0000 113.5680  90.0000   4 1

