# MOL2 file generated by ConQuest
# Please check atom types

@<TRIPOS>MOLECULE
GUCGAN
   114   116     2
SMALL
NO_CHARGES
****
Generated from CSD

@<TRIPOS>ATOM
      1 N1         9.9672    2.6501    4.7225 N.3       1 RES1    0.0000
      2 C1        10.9260    4.7925    5.2130 C.3       1 RES1    0.0000
      3 H1        10.8759    4.3812    6.1017 H         1 RES1    0.0000
      4 O1        10.7001    3.8052    4.2090 O.3       1 RES1    0.0000
      5 C2         9.9592    5.9415    5.1242 C.2       1 RES1    0.0000
      6 O2         9.3490    6.3434    6.0888 O.2       1 RES1    0.0000
      7 N2         4.9452    7.8011    0.7007 N.3       2 RES2    0.0000
      8 C3         9.9701    6.6263    3.7766 C.3       1 RES1    0.0000
      9 H2         9.3256    7.3515    3.7661 H         1 RES1    0.0000
     10 H3         9.7324    5.9943    3.0806 H         1 RES1    0.0000
     11 C4        11.3841    7.1733    3.5349 C.3       1 RES1    0.0000
     12 H4        11.4246    7.5763    2.6532 H         1 RES1    0.0000
     13 H5        11.5758    7.8643    4.1877 H         1 RES1    0.0000
     14 C5        12.4420    6.0865    3.6341 C.3       1 RES1    0.0000
     15 H6        12.2284    5.4214    2.9463 H         1 RES1    0.0000
     16 C6        12.3154    5.3758    4.9888 C.3       1 RES1    0.0000
     17 H7        12.9694    4.6620    5.0355 H         1 RES1    0.0000
     18 H8        12.5128    6.0078    5.6976 H         1 RES1    0.0000
     19 C7        13.8761    6.5755    3.3457 C.3       1 RES1    0.0000
     20 C8        13.9429    7.2344    1.9817 C.3       1 RES1    0.0000
     21 H9        14.8378    7.5359    1.8147 H         1 RES1    0.0000
     22 H10       13.3411    7.9834    1.9595 H         1 RES1    0.0000
     23 H11       13.6875    6.6004    1.3079 H         1 RES1    0.0000
     24 C9        14.8248    5.3799    3.3352 C.3       1 RES1    0.0000
     25 H12       15.7196    5.6814    3.1565 H         1 RES1    0.0000
     26 H13       14.5529    4.7625    2.6520 H         1 RES1    0.0000
     27 H14       14.7991    4.9438    4.1900 H         1 RES1    0.0000
     28 C10       14.3670    7.5835    4.3827 C.3       1 RES1    0.0000
     29 H15       15.2603    7.8601    4.1620 H         1 RES1    0.0000
     30 H16       14.3614    7.1774    5.2515 H         1 RES1    0.0000
     31 H17       13.7877    8.3491    4.3838 H         1 RES1    0.0000
     32 C11       10.9152    1.5084    4.7120 C.3       1 RES1    0.0000
     33 C12       10.1142    0.2745    5.1709 C.3       1 RES1    0.0000
     34 H18       10.6946   -0.5035    5.1464 H         1 RES1    0.0000
     35 H19        9.8324    0.4051    6.0888 H         1 RES1    0.0000
     36 C13        8.9107    0.0104    4.3278 C.3       1 RES1    0.0000
     37 H20        8.4340   -0.7646    4.6606 H         1 RES1    0.0000
     38 H21        9.1742   -0.1637    3.4111 H         1 RES1    0.0000
     39 C14        8.0268    1.2380    4.3920 C.3       1 RES1    0.0000
     40 H22        7.7252    1.3551    5.3064 H         1 RES1    0.0000
     41 H23        7.2420    1.0837    3.8432 H         1 RES1    0.0000
     42 C15        8.7072    2.5434    3.9261 C.3       1 RES1    0.0000
     43 C16       11.9714    1.7861    5.7922 C.3       1 RES1    0.0000
     44 H24       11.5372    1.9487    6.6318 H         1 RES1    0.0000
     45 H25       12.4867    2.5568    5.5446 H         1 RES1    0.0000
     46 H26       12.5502    1.0256    5.8751 H         1 RES1    0.0000
     47 C17       11.6560    1.2494    3.3936 C.3       1 RES1    0.0000
     48 H27       11.0174    1.0629    2.6999 H         1 RES1    0.0000
     49 H28       12.2445    0.4973    3.4998 H         1 RES1    0.0000
     50 H29       12.1704    2.0254    3.1577 H         1 RES1    0.0000
     51 C18        7.8180    3.6985    4.3138 C.3       1 RES1    0.0000
     52 H30        7.6913    3.6996    5.2655 H         1 RES1    0.0000
     53 H31        6.9679    3.6084    3.8770 H         1 RES1    0.0000
     54 H32        8.2284    4.5232    4.0452 H         1 RES1    0.0000
     55 C19        8.8963    2.5662    2.4021 C.3       1 RES1    0.0000
     56 H33        9.3307    3.3825    2.1452 H         1 RES1    0.0000
     57 H34        8.0392    2.5092    1.9724 H         1 RES1    0.0000
     58 H35        9.4376    1.8192    2.1359 H         1 RES1    0.0000
     59 O3         4.4889    6.6480   -0.0717 O.3       2 RES2    0.0000
     60 C20        3.9511    5.6224    0.7847 C.3       2 RES2    0.0000
     61 H36        3.6862    6.0078    1.6454 H         2 RES2    0.0000
     62 C21        4.9207    4.4869    1.0020 C.2       2 RES2    0.0000
     63 O4         5.1379    4.0663    2.1067 O.2       2 RES2    0.0000
     64 C22        5.3741    3.8508   -0.2954 C.3       2 RES2    0.0000
     65 H37        6.0256    3.1546   -0.1156 H         2 RES2    0.0000
     66 H38        5.7876    4.5170   -0.8665 H         2 RES2    0.0000
     67 C23        4.1505    3.2603   -0.9844 C.3       2 RES2    0.0000
     68 H39        3.7786    2.5537   -0.4332 H         2 RES2    0.0000
     69 H40        4.4158    2.8708   -1.8334 H         2 RES2    0.0000
     70 C24        3.0791    4.3294   -1.2285 C.3       2 RES2    0.0000
     71 H41        3.4834    5.0091   -1.8089 H         2 RES2    0.0000
     72 C25        2.7393    5.0163    0.0852 C.3       2 RES2    0.0000
     73 H42        2.3270    4.3698    0.6796 H         2 RES2    0.0000
     74 H43        2.0915    5.7177   -0.0852 H         2 RES2    0.0000
     75 C26        1.8199    3.7897   -1.9735 C.3       2 RES2    0.0000
     76 C27        2.2307    3.1360   -3.2663 C.3       2 RES2    0.0000
     77 H44        1.4504    2.8096   -3.7217 H         2 RES2    0.0000
     78 H45        2.8215    2.4035   -3.0806 H         2 RES2    0.0000
     79 H46        2.6801    3.7783   -3.8198 H         2 RES2    0.0000
     80 C28        0.8901    4.9583   -2.2924 C.3       2 RES2    0.0000
     81 H47        0.1102    4.6309   -2.7466 H         2 RES2    0.0000
     82 H48        1.3480    5.5871   -2.8541 H         2 RES2    0.0000
     83 H49        0.6257    5.3893   -1.4761 H         2 RES2    0.0000
     84 C29        1.0425    2.7744   -1.1491 C.3       2 RES2    0.0000
     85 H50        0.2742    2.4802   -1.6454 H         2 RES2    0.0000
     86 H51        0.7555    3.1805   -0.3281 H         2 RES2    0.0000
     87 H52        1.6044    2.0212   -0.9552 H         2 RES2    0.0000
     88 C30        4.0139    8.9251    0.3655 C.3       2 RES2    0.0000
     89 C31        4.5445   10.1487    1.1176 C.3       2 RES2    0.0000
     90 H53        3.9970   10.9184    0.8922 H         2 RES2    0.0000
     91 H54        4.4559    9.9943    2.0716 H         2 RES2    0.0000
     92 C32        5.9731   10.4626    0.8069 C.3       2 RES2    0.0000
     93 H55        6.2633   11.2251    1.3301 H         2 RES2    0.0000
     94 H56        6.0639   10.6843   -0.1331 H         2 RES2    0.0000
     95 C33        6.8226    9.2629    1.1327 C.3       2 RES2    0.0000
     96 H57        6.7836    9.1044    2.0892 H         2 RES2    0.0000
     97 H58        7.7448    9.4608    0.9039 H         2 RES2    0.0000
     98 C34        6.3949    7.9876    0.4041 C.3       2 RES2    0.0000
     99 C35        3.8064    9.2204   -1.1036 C.3       2 RES2    0.0000
    100 H59        4.6492    9.4431   -1.5076 H         2 RES2    0.0000
    101 H60        3.1990    9.9580   -1.1993 H         2 RES2    0.0000
    102 H61        3.4397    8.4465   -1.5368 H         2 RES2    0.0000
    103 C36        2.6688    8.5656    1.0125 C.3       2 RES2    0.0000
    104 H62        2.2985    7.7949    0.5745 H         2 RES2    0.0000
    105 H63        2.0623    9.3054    0.9225 H         2 RES2    0.0000
    106 H64        2.8023    8.3730    1.9432 H         2 RES2    0.0000
    107 C37        6.7643    8.0580   -1.0814 C.3       2 RES2    0.0000
    108 H65        6.4878    7.2489   -1.5181 H         2 RES2    0.0000
    109 H66        7.7152    8.1595   -1.1701 H         2 RES2    0.0000
    110 H67        6.3226    8.8081   -1.4866 H         2 RES2    0.0000
    111 C38        7.1411    6.8335    1.0288 C.3       2 RES2    0.0000
    112 H68        6.8940    6.0171    0.5886 H         2 RES2    0.0000
    113 H69        6.9189    6.7744    1.9607 H         2 RES2    0.0000
    114 H70        8.0870    6.9744    0.9331 H         2 RES2    0.0000
@<TRIPOS>BOND
     1    1    4 1
     2    2    3 1
     3    4    2 1
     4    5    2 1
     5    6    5 2
     6    7   59 1
     7    8    5 1
     8    9    8 1
     9   10    8 1
    10   11    8 1
    11   12   11 1
    12   13   11 1
    13   14   11 1
    14   15   14 1
    15   16    2 1
    16   17   16 1
    17   18   16 1
    18   19   14 1
    19   20   19 1
    20   21   20 1
    21   22   20 1
    22   23   20 1
    23   24   19 1
    24   25   24 1
    25   26   24 1
    26   27   24 1
    27   28   19 1
    28   29   28 1
    29   30   28 1
    30   31   28 1
    31   32    1 1
    32   33   32 1
    33   34   33 1
    34   35   33 1
    35   36   33 1
    36   37   36 1
    37   38   36 1
    38   39   36 1
    39   40   39 1
    40   41   39 1
    41   42    1 1
    42   43   32 1
    43   44   43 1
    44   45   43 1
    45   46   43 1
    46   47   32 1
    47   48   47 1
    48   49   47 1
    49   50   47 1
    50   51   42 1
    51   52   51 1
    52   53   51 1
    53   54   51 1
    54   55   42 1
    55   56   55 1
    56   57   55 1
    57   58   55 1
    58   59   60 1
    59   60   61 1
    60   62   60 1
    61   63   62 2
    62   64   62 1
    63   65   64 1
    64   66   64 1
    65   67   64 1
    66   68   67 1
    67   69   67 1
    68   70   67 1
    69   71   70 1
    70   72   60 1
    71   73   72 1
    72   74   72 1
    73   75   70 1
    74   76   75 1
    75   77   76 1
    76   78   76 1
    77   79   76 1
    78   80   75 1
    79   81   80 1
    80   82   80 1
    81   83   80 1
    82   84   75 1
    83   85   84 1
    84   86   84 1
    85   87   84 1
    86   88    7 1
    87   89   88 1
    88   90   89 1
    89   91   89 1
    90   92   89 1
    91   93   92 1
    92   94   92 1
    93   95   92 1
    94   96   95 1
    95   97   95 1
    96   98    7 1
    97   99   88 1
    98  100   99 1
    99  101   99 1
   100  102   99 1
   101  103   88 1
   102  104  103 1
   103  105  103 1
   104  106  103 1
   105  107   98 1
   106  108  107 1
   107  109  107 1
   108  110  107 1
   109  111   98 1
   110  112  111 1
   111  113  111 1
   112  114  111 1
   113   14   16 1
   114   39   42 1
   115   70   72 1
   116   95   98 1
@<TRIPOS>SUBSTRUCTURE
     1 RES1 1
     2 RES2 7

@<TRIPOS>CRYSIN
  31.8870   10.3600   11.8740  90.0000 100.4300  90.0000  14 1

