# MOL2 file generated by ConQuest
# Please check atom types

@<TRIPOS>MOLECULE
GUCGER
    51    52     1
SMALL
NO_CHARGES
****
Generated from CSD

@<TRIPOS>ATOM
      1 O1        -0.7155    2.9546    8.6285 O.3       1 RES1    0.0000
      2 O2         0.9881    4.2540   11.2651 O.2       1 RES1    0.0000
      3 N1        -0.0058    1.6898    8.4717 N.3       1 RES1    0.0000
      4 C1        -0.8208    3.3636    9.9962 C.3       1 RES1    0.0000
      5 H1        -0.7202    2.5850   10.5826 H         1 RES1    0.0000
      6 C2        -2.2087    3.9886   10.1965 C.3       1 RES1    0.0000
      7 H2        -2.8668    3.3491    9.8517 H         1 RES1    0.0000
      8 C3        -2.3147    5.2467    9.3478 C.3       1 RES1    0.0000
      9 H3        -2.2277    5.0065    8.4114 H         1 RES1    0.0000
     10 H4        -3.1925    5.6414    9.4727 H         1 RES1    0.0000
     11 C4        -1.2638    6.2643    9.6947 C.3       1 RES1    0.0000
     12 H5        -1.3833    6.5584   10.6105 H         1 RES1    0.0000
     13 H6        -1.3544    7.0362    9.1155 H         1 RES1    0.0000
     14 C5         0.1172    5.6638    9.5295 C.3       1 RES1    0.0000
     15 H7         0.2763    5.4628    8.5941 H         1 RES1    0.0000
     16 H8         0.7880    6.3022    9.8196 H         1 RES1    0.0000
     17 C6         0.2264    4.4077   10.3431 C.2       1 RES1    0.0000
     18 C7        -2.5499    4.2415   11.6533 C.3       1 RES1    0.0000
     19 H9        -1.8093    4.7138   12.0652 H         1 RES1    0.0000
     20 H10       -3.3242    4.8235   11.6915 H         1 RES1    0.0000
     21 C8        -2.8322    3.0394   12.4421 C.3       1 RES1    0.0000
     22 H11       -3.0019    3.2867   13.3537 H         1 RES1    0.0000
     23 H12       -2.0766    2.4494   12.4070 H         1 RES1    0.0000
     24 H13       -3.6033    2.5936   12.0828 H         1 RES1    0.0000
     25 C9         1.1398    1.9432    7.5575 C.3       1 RES1    0.0000
     26 C10        1.7839    0.5874    7.2499 C.3       1 RES1    0.0000
     27 H14        2.4897    0.7167    6.5984 H         1 RES1    0.0000
     28 H15        2.1903    0.2432    8.0614 H         1 RES1    0.0000
     29 C11        0.8178   -0.4361    6.7213 C.3       1 RES1    0.0000
     30 H16        0.4552   -0.1421    5.8705 H         1 RES1    0.0000
     31 H17        1.2719   -1.2828    6.5850 H         1 RES1    0.0000
     32 C12       -0.2901   -0.6027    7.7217 C.3       1 RES1    0.0000
     33 H18        0.0831   -0.9643    8.5404 H         1 RES1    0.0000
     34 H19       -0.9251   -1.2505    7.3769 H         1 RES1    0.0000
     35 C13       -1.0430    0.6929    8.0552 C.3       1 RES1    0.0000
     36 C14        0.8108    2.6901    6.2639 C.3       1 RES1    0.0000
     37 H20        0.4041    3.5342    6.4755 H         1 RES1    0.0000
     38 H21        0.2040    2.1653    5.7363 H         1 RES1    0.0000
     39 H22        1.6180    2.8390    5.7662 H         1 RES1    0.0000
     40 C15        2.1576    2.7751    8.3505 C.3       1 RES1    0.0000
     41 H23        1.7781    3.6311    8.5590 H         1 RES1    0.0000
     42 H24        2.9510    2.8950    7.8249 H         1 RES1    0.0000
     43 H25        2.3797    2.3181    9.1651 H         1 RES1    0.0000
     44 C16       -1.9152    1.1147    6.8741 C.3       1 RES1    0.0000
     45 H26       -2.3835    1.9242    7.0950 H         1 RES1    0.0000
     46 H27       -2.5486    0.4197    6.6800 H         1 RES1    0.0000
     47 H28       -1.3606    1.2656    6.1049 H         1 RES1    0.0000
     48 C17       -1.9300    0.4344    9.2559 C.3       1 RES1    0.0000
     49 H29       -2.4119    1.2355    9.4758 H         1 RES1    0.0000
     50 H30       -1.3877    0.1722   10.0034 H         1 RES1    0.0000
     51 H31       -2.5516   -0.2669    9.0494 H         1 RES1    0.0000
@<TRIPOS>BOND
     1    1    3 1
     2    2   17 2
     3    3   25 1
     4    4    1 1
     5    5    4 1
     6    6    4 1
     7    7    6 1
     8    8    6 1
     9    9    8 1
    10   10    8 1
    11   11    8 1
    12   12   11 1
    13   13   11 1
    14   14   11 1
    15   15   14 1
    16   16   14 1
    17   17    4 1
    18   18    6 1
    19   19   18 1
    20   20   18 1
    21   21   18 1
    22   22   21 1
    23   23   21 1
    24   24   21 1
    25   25   26 1
    26   26   27 1
    27   28   26 1
    28   29   26 1
    29   30   29 1
    30   31   29 1
    31   32   29 1
    32   33   32 1
    33   34   32 1
    34   35    3 1
    35   36   25 1
    36   37   36 1
    37   38   36 1
    38   39   36 1
    39   40   25 1
    40   41   40 1
    41   42   40 1
    42   43   40 1
    43   44   35 1
    44   45   44 1
    45   46   44 1
    46   47   44 1
    47   48   35 1
    48   49   48 1
    49   50   48 1
    50   51   48 1
    51   14   17 1
    52   32   35 1
@<TRIPOS>SUBSTRUCTURE
     1 RES1 1

@<TRIPOS>CRYSIN
   7.7013   21.5240   10.8770  90.0000 108.3400  90.0000 231 1

