# MOL2 file generated by ConQuest
# Please check atom types

@<TRIPOS>MOLECULE
GUCLUL
   200   200     2
SMALL
NO_CHARGES
****
Generated from CSD

@<TRIPOS>ATOM
      1 O1         2.7901    3.4641   14.4994 O.2       1 RES1    0.0000
      2 O2         2.8402    5.3786   13.6952 O.2       1 RES1    0.0000
      3 N1         3.2607    4.2434   13.7924 N.pl3     1 RES1    0.0000
      4 C1         4.1626    3.7920   12.6860 C.ar      1 RES1    0.0000
      5 C2         4.5261    2.4300   12.6285 C.ar      1 RES1    0.0000
      6 C3         5.3568    2.0411   11.6319 C.ar      1 RES1    0.0000
      7 C4         5.8557    2.9540   10.7144 C.ar      1 RES1    0.0000
      8 C5         5.5416    4.2577   10.8385 C.ar      1 RES1    0.0000
      9 C6         4.6625    4.6983   11.8280 C.ar      1 RES1    0.0000
     10 C7         6.7785    2.3909    9.6405 C.2       1 RES1    0.0000
     11 O3         7.2204    1.2346    9.8096 O.2       1 RES1    0.0000
     12 N2         7.0494    3.1072    8.5665 N.am      1 RES1    0.0000
     13 C8         7.7668    2.4500    7.4440 C.3       1 RES1    0.0000
     14 C9         6.8481    1.4092    6.8305 C.3       1 RES1    0.0000
     15 C10        8.0833    3.5520    6.3898 C.3       1 RES1    0.0000
     16 C11        9.1022    1.8163    7.8613 C.2       1 RES1    0.0000
     17 O4         9.4425    0.7663    7.3828 O.2       1 RES1    0.0000
     18 N3         9.8259    2.5406    8.6960 N.am      1 RES1    0.0000
     19 C12       11.1775    2.2361    9.0630 C.3       1 RES1    0.0000
     20 C13       11.6950    3.1882   10.0974 C.3       1 RES1    0.0000
     21 C14       12.0912    2.2644    7.8487 C.3       1 RES1    0.0000
     22 C15       11.2137    0.8544    9.7214 C.2       1 RES1    0.0000
     23 O5        12.2615    0.1870    9.7304 O.2       1 RES1    0.0000
     24 N4        10.1317    0.4217   10.3474 N.am      1 RES1    0.0000
     25 C16       10.0195   -0.8357   11.1210 C.3       1 RES1    0.0000
     26 C17       10.9146   -0.7885   12.3173 C.3       1 RES1    0.0000
     27 C18        8.5857   -0.9906   11.5707 C.3       1 RES1    0.0000
     28 C19       10.3646   -2.0445   10.1963 C.2       1 RES1    0.0000
     29 O6        10.6337   -3.1192   10.7594 O.2       1 RES1    0.0000
     30 N5        10.2234   -1.8802    8.8723 N.am      1 RES1    0.0000
     31 C20       10.6238   -2.9805    7.9836 C.3       1 RES1    0.0000
     32 C21        9.5709   -4.1169    8.0520 C.3       1 RES1    0.0000
     33 C22       10.6853   -2.3990    6.5643 C.3       1 RES1    0.0000
     34 C23       12.0453   -3.4570    8.2877 C.2       1 RES1    0.0000
     35 O7        12.3684   -4.6479    8.0430 O.2       1 RES1    0.0000
     36 N6        12.9348   -2.5773    8.7194 N.am      1 RES1    0.0000
     37 C24       14.3723   -2.8269    8.8741 C.3       1 RES1    0.0000
     38 C25       14.7155   -3.7515   10.0164 C.3       1 RES1    0.0000
     39 C26       15.0382   -1.4396    9.0018 C.3       1 RES1    0.0000
     40 C27       16.1671   -3.8553   10.3546 C.3       1 RES1    0.0000
     41 C28       13.9468   -3.3261   11.2955 C.3       1 RES1    0.0000
     42 C29       14.8693   -3.4475    7.5501 C.2       1 RES1    0.0000
     43 O8        15.5863   -4.3657    7.3972 O.2       1 RES1    0.0000
     44 O9        14.4404   -2.6351    6.5355 O.3       1 RES1    0.0000
     45 C30       14.9355   -2.8032    5.1737 C.3       1 RES1    0.0000
     46 C31       14.4728   -4.0991    4.5837 C.3       1 RES1    0.0000
     47 C32       16.4686   -2.6569    5.1198 C.3       1 RES1    0.0000
     48 C33       14.3365   -1.6023    4.4973 C.3       1 RES1    0.0000
     49 O10       14.4157   -8.6015   13.1538 O.2       2 RES2    0.0000
     50 O11       14.2367   -6.7264   12.1194 O.2       2 RES2    0.0000
     51 N7        14.0773   -7.4779   13.1340 N.pl3     2 RES2    0.0000
     52 C34       13.0958   -6.9994   14.1216 C.ar      2 RES2    0.0000
     53 C35       12.6664   -7.8717   15.0876 C.ar      2 RES2    0.0000
     54 C36       11.7996   -7.4249   16.0734 C.ar      2 RES2    0.0000
     55 C37       11.4065   -6.0455   16.0662 C.ar      2 RES2    0.0000
     56 C38       11.8731   -5.2327   15.0642 C.ar      2 RES2    0.0000
     57 C39       12.7505   -5.7103   14.0874 C.ar      2 RES2    0.0000
     58 C40       10.5243   -5.4587   17.0808 C.2       2 RES2    0.0000
     59 O12       10.0368   -4.3505   16.9117 O.2       2 RES2    0.0000
     60 N8        10.2906   -6.0993   18.2429 N.am      2 RES2    0.0000
     61 C41        9.6984   -5.4341   19.4068 C.3       2 RES2    0.0000
     62 C42        9.4110   -6.4522   20.4736 C.3       2 RES2    0.0000
     63 C43       10.5959   -4.3422   19.9429 C.3       2 RES2    0.0000
     64 C44        8.3372   -4.8809   18.9769 C.2       2 RES2    0.0000
     65 O13        7.9118   -3.7478   19.3835 O.2       2 RES2    0.0000
     66 N9         7.5475   -5.6193   18.1674 N.am      2 RES2    0.0000
     67 C45        6.1587   -5.2662   17.8274 C.3       2 RES2    0.0000
     68 C46        5.7476   -6.3045   16.7966 C.3       2 RES2    0.0000
     69 C47        5.2668   -5.3200   19.0560 C.3       2 RES2    0.0000
     70 C48        6.0662   -3.8740   17.1456 C.2       2 RES2    0.0000
     71 O14        5.0162   -3.2422   17.2751 O.2       2 RES2    0.0000
     72 N10        7.1298   -3.4759   16.4530 N.am      2 RES2    0.0000
     73 C49        7.1313   -2.2636   15.6561 C.3       2 RES2    0.0000
     74 C50        8.5271   -2.1060   15.0912 C.3       2 RES2    0.0000
     75 C51        6.0951   -2.3227   14.5335 C.3       2 RES2    0.0000
     76 C52        6.8674   -1.0094   16.5196 C.2       2 RES2    0.0000
     77 O15        6.5151    0.0328   16.0320 O.2       2 RES2    0.0000
     78 N11        7.0507   -1.1275   17.8274 N.am      2 RES2    0.0000
     79 C53        6.8542   -0.0496   18.8042 C.3       2 RES2    0.0000
     80 C54        6.8918   -0.6485   20.1858 C.3       2 RES2    0.0000
     81 C55        7.8362    1.0576   18.6639 C.3       2 RES2    0.0000
     82 C56        5.4104    0.5562   18.6027 C.2       2 RES2    0.0000
     83 O16        5.1966    1.6958   18.9841 O.2       2 RES2    0.0000
     84 N12        4.4938   -0.2661   18.1674 N.am      2 RES2    0.0000
     85 C57        3.0705    0.1409   18.0738 C.3       2 RES2    0.0000
     86 C58        2.9529    1.2883   17.0412 C.3       2 RES2    0.0000
     87 C59        2.2969   -1.0771   17.6313 C.3       2 RES2    0.0000
     88 C60        0.7847   -1.0114   17.8975 C.3       2 RES2    0.0000
     89 C61        2.5018   -1.4248   16.1580 C.3       2 RES2    0.0000
     90 C62        2.5741    0.4938   19.4356 C.2       2 RES2    0.0000
     91 O17        1.8578    1.5131   19.6245 O.2       2 RES2    0.0000
     92 O18        2.8981   -0.3433   20.3531 O.3       2 RES2    0.0000
     93 C63        2.4594   -0.2625   21.7383 C.3       2 RES2    0.0000
     94 C64        3.1398   -1.4945   22.3319 C.3       2 RES2    0.0000
     95 C65        1.0116   -0.3041   21.8696 C.3       2 RES2    0.0000
     96 C66        3.0508    0.9095   22.3769 C.3       2 RES2    0.0000
     97 H1        15.9768   -1.5463    9.1039 H         1 RES1    0.0000
     98 H2        14.8618   -0.9298    8.2188 H         1 RES1    0.0000
     99 H3        14.6864   -0.9876    9.7590 H         1 RES1    0.0000
    100 H4        14.4532   -4.6111    9.7085 H         1 RES1    0.0000
    101 H5        16.2810   -4.4560   11.0815 H         1 RES1    0.0000
    102 H6        16.6457   -4.1767    9.5998 H         1 RES1    0.0000
    103 H7        16.4973   -2.9981   10.5973 H         1 RES1    0.0000
    104 H8        14.1712   -3.9135   12.0083 H         1 RES1    0.0000
    105 H9        14.1914   -2.4381   11.5293 H         1 RES1    0.0000
    106 H10       13.0138   -3.3664   11.1320 H         1 RES1    0.0000
    107 H11        2.0446    1.5589   16.9713 H         2 RES2    0.0000
    108 H12        3.4816    2.0244   17.3248 H         2 RES2    0.0000
    109 H13        3.2588    0.9853   16.1948 H         2 RES2    0.0000
    110 H14        2.6681   -1.7594   18.1769 H         2 RES2    0.0000
    111 H15        0.3743   -1.8121   17.5919 H         2 RES2    0.0000
    112 H16        0.6322   -0.9150   18.8308 H         2 RES2    0.0000
    113 H17        0.4130   -0.2689   17.4376 H         2 RES2    0.0000
    114 H18        1.9894   -2.1963   15.9420 H         2 RES2    0.0000
    115 H19        2.2169   -0.6962   15.6185 H         2 RES2    0.0000
    116 H20        3.4200   -1.5991   15.9983 H         2 RES2    0.0000
    117 H21       14.5916   -1.5992    3.5815 H         1 RES1    0.0000
    118 H22       13.3903   -1.6448    4.5619 H         1 RES1    0.0000
    119 H23       14.6509   -0.8137    4.9177 H         1 RES1    0.0000
    120 H24       14.8085   -4.1835    3.6992 H         1 RES1    0.0000
    121 H25       14.7918   -4.8214    5.1131 H         1 RES1    0.0000
    122 H26       13.5225   -4.1180    4.5644 H         1 RES1    0.0000
    123 H27       16.7660   -2.7664    4.2258 H         1 RES1    0.0000
    124 H28       16.7123   -1.7881    5.4283 H         1 RES1    0.0000
    125 H29       16.8703   -3.3116    5.6743 H         1 RES1    0.0000
    126 H30        2.7625    0.9515   23.2809 H         2 RES2    0.0000
    127 H31        3.9987    0.8370   22.3508 H         2 RES2    0.0000
    128 H32        2.7777    1.6901   21.9168 H         2 RES2    0.0000
    129 H33        2.9323   -1.5616   23.2568 H         2 RES2    0.0000
    130 H34        2.8347   -2.2762   21.8836 H         2 RES2    0.0000
    131 H35        4.0839   -1.4230   22.2269 H         2 RES2    0.0000
    132 H36        0.7717   -0.2506   22.7870 H         2 RES2    0.0000
    133 H37        0.6266    0.4255   21.3984 H         2 RES2    0.0000
    134 H38        0.6825   -1.1211   21.5062 H         2 RES2    0.0000
    135 H39       12.6158   -1.7115    8.9467 H         1 RES1    0.0000
    136 H40        9.8726   -1.0716    8.5166 H         1 RES1    0.0000
    137 H41        9.3559    0.9681   10.2970 H         1 RES1    0.0000
    138 H42        9.4255    3.3131    9.0776 H         1 RES1    0.0000
    139 H43        6.7919    4.0201    8.5118 H         1 RES1    0.0000
    140 H44        4.7438   -1.1442   17.9045 H         2 RES2    0.0000
    141 H45        7.3311   -1.9727   18.1560 H         2 RES2    0.0000
    142 H46        7.9179   -4.0051   16.4806 H         2 RES2    0.0000
    143 H47        7.9100   -6.4153   17.7959 H         2 RES2    0.0000
    144 H48       10.5181   -7.0195   18.3101 H         2 RES2    0.0000
    145 H49        4.2076    1.8067   13.2702 H         1 RES1    0.0000
    146 H50        5.5995    1.1256   11.5577 H         1 RES1    0.0000
    147 H51        5.9261    4.8886   10.2422 H         1 RES1    0.0000
    148 H52        4.4226    5.6154   11.8926 H         1 RES1    0.0000
    149 H53       12.9594   -8.7757   15.0827 H         2 RES2    0.0000
    150 H54       11.4732   -8.0191   16.7388 H         2 RES2    0.0000
    151 H55       11.6006   -4.3241   15.0344 H         2 RES2    0.0000
    152 H56       13.0913   -5.1322   13.4157 H         2 RES2    0.0000
    153 H57        9.8321   -4.8269    7.4781 H         1 RES1    0.0000
    154 H58        9.5092   -4.4385    8.9446 H         1 RES1    0.0000
    155 H59        8.7249   -3.7825    7.7779 H         1 RES1    0.0000
    156 H60       10.9421   -3.0799    5.9532 H         1 RES1    0.0000
    157 H61        9.8305   -2.0625    6.3217 H         1 RES1    0.0000
    158 H62       11.3219   -1.6941    6.5375 H         1 RES1    0.0000
    159 H63        6.7658    0.0372   20.8319 H         2 RES2    0.0000
    160 H64        6.2001   -1.2938   20.2710 H         2 RES2    0.0000
    161 H65        7.7335   -1.0656   20.3279 H         2 RES2    0.0000
    162 H66        7.6603    1.7220   19.3205 H         2 RES2    0.0000
    163 H67        8.7153    0.7187   18.7848 H         2 RES2    0.0000
    164 H68        7.7599    1.4406   17.7984 H         2 RES2    0.0000
    165 H69       10.8339   -1.6000   12.8053 H         1 RES1    0.0000
    166 H70       11.8144   -0.6765   12.0357 H         1 RES1    0.0000
    167 H71       10.6627   -0.0596   12.8721 H         1 RES1    0.0000
    168 H72        8.4948   -1.7935   12.0689 H         1 RES1    0.0000
    169 H73        8.3431   -0.2503   12.1141 H         1 RES1    0.0000
    170 H74        8.0177   -1.0236   10.8094 H         1 RES1    0.0000
    171 H75        8.5676   -1.3186   14.5615 H         2 RES2    0.0000
    172 H76        9.1523   -2.0402   15.8040 H         2 RES2    0.0000
    173 H77        8.7385   -2.8604   14.5542 H         2 RES2    0.0000
    174 H78        6.1224   -1.5160   14.0335 H         2 RES2    0.0000
    175 H79        6.2884   -3.0568   13.9625 H         2 RES2    0.0000
    176 H80        5.2284   -2.4337   14.9082 H         2 RES2    0.0000
    177 H81       12.5902    2.9600   10.3189 H         1 RES1    0.0000
    178 H82       11.6689    4.0737    9.7550 H         1 RES1    0.0000
    179 H83       11.1530    3.1342   10.8764 H         1 RES1    0.0000
    180 H84       12.9814    2.0602    8.1157 H         1 RES1    0.0000
    181 H85       11.7978    1.6223    7.2136 H         1 RES1    0.0000
    182 H86       12.0720    3.1299    7.4557 H         1 RES1    0.0000
    183 H87        4.8524   -6.1432   16.5239 H         2 RES2    0.0000
    184 H88        6.3237   -6.2489   16.0439 H         2 RES2    0.0000
    185 H89        5.8103   -7.1723   17.1797 H         2 RES2    0.0000
    186 H90        4.3778   -5.0885   18.8128 H         2 RES2    0.0000
    187 H91        5.2772   -6.1987   19.4171 H         2 RES2    0.0000
    188 H92        5.5863   -4.7065   19.7072 H         2 RES2    0.0000
    189 H93        7.2938    0.9795    6.1096 H         1 RES1    0.0000
    190 H94        6.6153    0.7652    7.4880 H         1 RES1    0.0000
    191 H95        6.0611    1.8328    6.5083 H         1 RES1    0.0000
    192 H96        8.5438    3.1650    5.6544 H         1 RES1    0.0000
    193 H97        7.2711    3.9409    6.0844 H         1 RES1    0.0000
    194 H98        8.6259    4.2235    6.7853 H         1 RES1    0.0000
    195 H99        9.0272   -6.0211   21.2271 H         2 RES2    0.0000
    196 H100       8.8042   -7.1011   20.1363 H         2 RES2    0.0000
    197 H101      10.2203   -6.8788   20.7295 H         2 RES2    0.0000
    198 H102      10.1822   -3.9343   20.6952 H         2 RES2    0.0000
    199 H103      11.4284   -4.7178   20.2053 H         2 RES2    0.0000
    200 H104      10.7399   -3.6907   19.2684 H         2 RES2    0.0000
@<TRIPOS>BOND
     1    1    3 2
     2    2    3 2
     3    3    4 1
     4    4    5 ar
     5    5    6 ar
     6    6    7 ar
     7    7    8 ar
     8    8    9 ar
     9    9    4 ar
    10   10    7 1
    11   11   10 2
    12   12   10 1
    13   13   12 1
    14   14   13 1
    15   15   13 1
    16   16   13 1
    17   17   16 2
    18   18   16 1
    19   19   18 1
    20   20   19 1
    21   21   19 1
    22   22   19 1
    23   23   22 2
    24   24   22 1
    25   25   24 1
    26   26   25 1
    27   27   25 1
    28   28   25 1
    29   29   28 2
    30   30   28 1
    31   31   30 1
    32   32   31 1
    33   33   31 1
    34   34   31 1
    35   35   34 2
    36   36   34 1
    37   37   36 1
    38   38   37 1
    39   39   37 1
    40   40   38 1
    41   41   38 1
    42   42   37 1
    43   43   42 2
    44   44   42 1
    45   45   44 1
    46   46   45 1
    47   47   45 1
    48   48   45 1
    49   49   51 2
    50   50   51 2
    51   51   52 1
    52   52   53 ar
    53   53   54 ar
    54   54   55 ar
    55   55   56 ar
    56   56   57 ar
    57   57   52 ar
    58   58   55 1
    59   59   58 2
    60   60   58 1
    61   61   60 1
    62   62   61 1
    63   63   61 1
    64   64   61 1
    65   65   64 2
    66   66   64 1
    67   67   66 1
    68   68   67 1
    69   69   67 1
    70   70   67 1
    71   71   70 2
    72   72   70 1
    73   73   72 1
    74   74   73 1
    75   75   73 1
    76   76   73 1
    77   77   76 2
    78   78   76 1
    79   79   78 1
    80   80   79 1
    81   81   79 1
    82   82   79 1
    83   83   82 2
    84   84   82 1
    85   85   84 1
    86   86   85 1
    87   87   85 1
    88   88   87 1
    89   89   87 1
    90   90   85 1
    91   91   90 2
    92   92   90 1
    93   93   92 1
    94   94   93 1
    95   95   93 1
    96   96   93 1
    97   97   39 1
    98   98   39 1
    99   99   39 1
   100  100   38 1
   101  101   40 1
   102  102   40 1
   103  103   40 1
   104  104   41 1
   105  105   41 1
   106  106   41 1
   107  107   86 1
   108  108   86 1
   109  109   86 1
   110  110   87 1
   111  111   88 1
   112  112   88 1
   113  113   88 1
   114  114   89 1
   115  115   89 1
   116  116   89 1
   117  117   48 1
   118  118   48 1
   119  119   48 1
   120  120   46 1
   121  121   46 1
   122  122   46 1
   123  123   47 1
   124  124   47 1
   125  125   47 1
   126  126   96 1
   127  127   96 1
   128  128   96 1
   129  129   94 1
   130  130   94 1
   131  131   94 1
   132  132   95 1
   133  133   95 1
   134  134   95 1
   135  135   36 1
   136  136   30 1
   137  137   24 1
   138  138   18 1
   139  139   12 1
   140  140   84 1
   141  141   78 1
   142  142   72 1
   143  143   66 1
   144  144   60 1
   145  145    5 1
   146  146    6 1
   147  147    8 1
   148  148    9 1
   149  149   53 1
   150  150   54 1
   151  151   56 1
   152  152   57 1
   153  153   32 1
   154  154   32 1
   155  155   32 1
   156  156   33 1
   157  157   33 1
   158  158   33 1
   159  159   80 1
   160  160   80 1
   161  161   80 1
   162  162   81 1
   163  163   81 1
   164  164   81 1
   165  165   26 1
   166  166   26 1
   167  167   26 1
   168  168   27 1
   169  169   27 1
   170  170   27 1
   171  171   74 1
   172  172   74 1
   173  173   74 1
   174  174   75 1
   175  175   75 1
   176  176   75 1
   177  177   20 1
   178  178   20 1
   179  179   20 1
   180  180   21 1
   181  181   21 1
   182  182   21 1
   183  183   68 1
   184  184   68 1
   185  185   68 1
   186  186   69 1
   187  187   69 1
   188  188   69 1
   189  189   14 1
   190  190   14 1
   191  191   14 1
   192  192   15 1
   193  193   15 1
   194  194   15 1
   195  195   62 1
   196  196   62 1
   197  197   62 1
   198  198   63 1
   199  199   63 1
   200  200   63 1
@<TRIPOS>SUBSTRUCTURE
     1 RES1 1
     2 RES2 49

@<TRIPOS>CRYSIN
   9.9090   11.5490   18.4300 102.3100  92.4000  67.6400   1 1

