# MOL2 file generated by ConQuest
# Please check atom types

@<TRIPOS>MOLECULE
GUCNIC
    47    49     1
SMALL
NO_CHARGES
****
Generated from CSD

@<TRIPOS>ATOM
      1 C1         4.6718    2.9565    3.1750 C.3       1 RES1    0.0000
      2 C2         5.8290    1.9846    3.4792 C.3       1 RES1    0.0000
      3 C3         5.6933    1.3389    4.8513 C.3       1 RES1    0.0000
      4 C4         5.7533    2.4558    5.8877 C.3       1 RES1    0.0000
      5 C5         4.6857    3.5374    5.6693 C.3       1 RES1    0.0000
      6 C6         4.7842    4.0981    4.2370 C.3       1 RES1    0.0000
      7 C7         4.8591    4.6564    6.6974 C.3       1 RES1    0.0000
      8 C8         4.7885    3.4958    1.7464 C.ar      1 RES1    0.0000
      9 C9         5.9178    4.2152    1.3484 C.ar      1 RES1    0.0000
     10 C10        5.9981    4.7766    0.0866 C.ar      1 RES1    0.0000
     11 C11        4.9621    4.5908   -0.8239 C.ar      1 RES1    0.0000
     12 C12        3.8617    3.8373   -0.4552 C.ar      1 RES1    0.0000
     13 C13        3.7642    3.3041    0.8275 C.ar      1 RES1    0.0000
     14 C14        3.7019    5.1295    3.9468 C.2       1 RES1    0.0000
     15 C15        4.0332    6.2917    3.0648 C.ar      1 RES1    0.0000
     16 C16        5.2155    7.0113    3.2091 C.ar      1 RES1    0.0000
     17 C17        5.4745    8.0937    2.3766 C.ar      1 RES1    0.0000
     18 C18        4.5890    8.4146    1.3619 C.ar      1 RES1    0.0000
     19 C19        3.4070    7.7038    1.2184 C.ar      1 RES1    0.0000
     20 C20        3.1184    6.6640    2.0856 C.ar      1 RES1    0.0000
     21 N1         5.8867    0.8961    2.4351 N.pl3     1 RES1    0.0000
     22 O1         3.4131    2.3514    3.4000 O.3       1 RES1    0.0000
     23 O2         4.8529    0.2683    2.2128 O.2       1 RES1    0.0000
     24 O3         6.9482    0.6926    1.8757 O.2       1 RES1    0.0000
     25 O4         6.7700    0.4214    4.9961 O.3       1 RES1    0.0000
     26 O5         2.5715    5.0024    4.3898 O.2       1 RES1    0.0000
     27 H1         3.3321    1.6283    3.0010 H         1 RES1    0.0000
     28 H2         6.6734    2.4297    3.4565 H         1 RES1    0.0000
     29 H3         4.8290    0.9005    4.9262 H         1 RES1    0.0000
     30 H4         6.4850   -0.2265    5.4806 H         1 RES1    0.0000
     31 H5         5.6304    2.0488    6.7875 H         1 RES1    0.0000
     32 H6         6.6487    2.8318    5.8393 H         1 RES1    0.0000
     33 H7         3.7942    3.0951    5.7829 H         1 RES1    0.0000
     34 H8         5.6530    4.4883    4.1216 H         1 RES1    0.0000
     35 H9         4.7540    4.2873    7.5984 H         1 RES1    0.0000
     36 H10        5.7397    5.0660    6.5778 H         1 RES1    0.0000
     37 H11        4.1717    5.3464    6.5704 H         1 RES1    0.0000
     38 H12        6.6364    4.3397    1.9454 H         1 RES1    0.0000
     39 H13        6.7940    5.3265   -0.1586 H         1 RES1    0.0000
     40 H14        4.9857    4.9782   -1.7219 H         1 RES1    0.0000
     41 H15        3.1085    3.6685   -1.1302 H         1 RES1    0.0000
     42 H16        2.9741    2.8063    1.0834 H         1 RES1    0.0000
     43 H17        5.8228    6.7637    3.8737 H         1 RES1    0.0000
     44 H18        6.2912    8.6425    2.5307 H         1 RES1    0.0000
     45 H19        4.8331    9.1749    0.7875 H         1 RES1    0.0000
     46 H20        2.7852    7.8964    0.4885 H         1 RES1    0.0000
     47 H21        2.2943    6.1846    2.0326 H         1 RES1    0.0000
@<TRIPOS>BOND
     1    1    2 1
     2    2    3 1
     3    3    4 1
     4    4    5 1
     5    5    6 1
     6    6    1 1
     7    7    5 1
     8    8    1 1
     9    9    8 ar
    10   10    9 ar
    11   11   10 ar
    12   12   11 ar
    13   13    8 ar
    14   14    6 1
    15   15   14 1
    16   16   15 ar
    17   17   16 ar
    18   18   17 ar
    19   19   18 ar
    20   20   15 ar
    21   21    2 1
    22   22    1 1
    23   23   21 2
    24   24   21 2
    25   25    3 1
    26   26   14 2
    27   27   22 1
    28   28    2 1
    29   29    3 1
    30   30   25 1
    31   31    4 1
    32   32    4 1
    33   33    5 1
    34   34    6 1
    35   35    7 1
    36   36    7 1
    37   37    7 1
    38   38    9 1
    39   39   10 1
    40   40   11 1
    41   41   12 1
    42   42   13 1
    43   43   16 1
    44   44   17 1
    45   45   18 1
    46   46   19 1
    47   47   20 1
    48   12   13 ar
    49   19   20 ar
@<TRIPOS>SUBSTRUCTURE
     1 RES1 1

@<TRIPOS>CRYSIN
   5.6472   14.1588   10.9749  90.0000 104.1480  90.0000   4 1

