# MOL2 file generated by ConQuest
# Please check atom types

@<TRIPOS>MOLECULE
GUCQUS
    84    87     3
SMALL
NO_CHARGES
****
Generated from CSD

@<TRIPOS>ATOM
      1 C1        -5.5668    9.4508   11.9517 C.ar      1 RES1    0.0000
      2 C2        -5.0281    8.2687   11.3599 C.ar      1 RES1    0.0000
      3 C3        -5.4118    7.0471   11.9213 C.ar      1 RES1    0.0000
      4 H1        -5.0406    6.2447   11.5734 H         1 RES1    0.0000
      5 C4        -6.3169    6.9662   12.9696 C.ar      1 RES1    0.0000
      6 C5        -6.8382    8.1543   13.5404 C.ar      1 RES1    0.0000
      7 H2        -7.4483    8.1101   14.2677 H         1 RES1    0.0000
      8 C6        -6.4552    9.3622   13.0343 C.ar      1 RES1    0.0000
      9 H3        -6.7971   10.1583   13.4222 H         1 RES1    0.0000
     10 C7        -3.7654    7.2372    9.4808 C.ar      1 RES1    0.0000
     11 C8        -4.6412    6.2709    9.0111 C.ar      1 RES1    0.0000
     12 H4        -5.5616    6.3072    9.2468 H         1 RES1    0.0000
     13 C9        -4.1731    5.2562    8.2003 C.ar      1 RES1    0.0000
     14 H5        -4.7750    4.5933    7.8805 H         1 RES1    0.0000
     15 C10       -2.8364    5.1956    7.8510 C.ar      1 RES1    0.0000
     16 H6        -2.5143    4.4808    7.3138 H         1 RES1    0.0000
     17 C11       -1.9699    6.1825    8.2887 C.ar      1 RES1    0.0000
     18 H7        -1.0558    6.1572    8.0337 H         1 RES1    0.0000
     19 C12       -2.4308    7.2018    9.0950 C.ar      1 RES1    0.0000
     20 H8        -1.8345    7.8820    9.3877 H         1 RES1    0.0000
     21 N1        -4.1954    8.3220   10.2847 N.pl3     1 RES1    0.0000
     22 H9        -3.9107    9.1256   10.0953 H         1 RES1    0.0000
     23 N2        -6.6869    5.7600   13.4730 N.3       1 RES1    0.0000
     24 H10       -7.3957    5.7213   13.9843 H         1 RES1    0.0000
     25 H11       -6.4451    5.0229   13.0653 H         1 RES1    0.0000
     26 N3        -5.2587   10.7520   11.4797 N.pl3     1 RES1    0.0000
     27 O1        -4.3510   10.9037   10.6244 O.2       1 RES1    0.0000
     28 O2        -5.8895   11.7232   11.9063 O.2       1 RES1    0.0000
     29 C13        2.1914   12.7823    4.1593 C.ar      2 RES2    0.0000
     30 C14        2.2680   14.0867    4.6300 C.ar      2 RES2    0.0000
     31 H12        2.8101   14.7141    4.1647 H         2 RES2    0.0000
     32 C15        1.5717   14.5026    5.7670 C.ar      2 RES2    0.0000
     33 C16        0.7792   13.5219    6.4519 C.ar      2 RES2    0.0000
     34 C17        0.7382   12.1938    5.9762 C.ar      2 RES2    0.0000
     35 H13        0.2292   11.5457    6.4484 H         2 RES2    0.0000
     36 C18        1.4092   11.8222    4.8617 C.ar      2 RES2    0.0000
     37 H14        1.3589   10.9270    4.5491 H         2 RES2    0.0000
     38 C19        2.4342   16.8153    5.6188 C.ar      2 RES2    0.0000
     39 C20        2.0629   17.3399    4.3939 C.ar      2 RES2    0.0000
     40 H15        1.3218   16.9733    3.9257 H         2 RES2    0.0000
     41 C21        2.7699   18.3972    3.8499 C.ar      2 RES2    0.0000
     42 H16        2.5227   18.7465    3.0021 H         2 RES2    0.0000
     43 C22        3.8370   18.9457    4.5399 C.ar      2 RES2    0.0000
     44 H17        4.3188   19.6761    4.1692 H         2 RES2    0.0000
     45 C23        4.2002   18.4284    5.7670 C.ar      2 RES2    0.0000
     46 H18        4.9294   18.8074    6.2432 H         2 RES2    0.0000
     47 C24        3.5064   17.3603    6.3073 C.ar      2 RES2    0.0000
     48 H19        3.7635   17.0014    7.1484 H         2 RES2    0.0000
     49 N4         1.6758   15.7739    6.2235 N.pl3     2 RES2    0.0000
     50 H20        1.2103   15.9359    6.8987 H         2 RES2    0.0000
     51 N5         2.8708   12.4064    3.0554 N.3       2 RES2    0.0000
     52 H21        2.7424   11.6254    2.7279 H         2 RES2    0.0000
     53 H22        3.4308   13.0002    2.5931 H         2 RES2    0.0000
     54 N6         0.0439   13.8169    7.6015 N.pl3     2 RES2    0.0000
     55 O3         0.0114   14.9883    8.0613 O.2       2 RES2    0.0000
     56 O4        -0.5848   12.9059    8.1928 O.2       2 RES2    0.0000
     57 C25        4.7827    6.7827    8.2252 C.ar      3 RES3    0.0000
     58 C26        3.5535    6.1081    8.4889 C.ar      3 RES3    0.0000
     59 C27        2.9621    6.3219    9.7339 C.ar      3 RES3    0.0000
     60 H23        2.1179    5.9244    9.9161 H         3 RES3    0.0000
     61 C28        3.5676    7.0966   10.7163 C.ar      3 RES3    0.0000
     62 C29        4.8022    7.7342   10.4371 C.ar      3 RES3    0.0000
     63 H24        5.2294    8.2617   11.1017 H         3 RES3    0.0000
     64 C30        5.3677    7.5869    9.2172 C.ar      3 RES3    0.0000
     65 H25        6.1818    8.0382    9.0262 H         3 RES3    0.0000
     66 C31        1.8989    4.4045    7.7396 C.ar      3 RES3    0.0000
     67 C32        1.7959    3.5879    8.8590 C.ar      3 RES3    0.0000
     68 H26        2.4264    3.6637    9.5654 H         3 RES3    0.0000
     69 C33        0.7697    2.6630    8.9389 C.ar      3 RES3    0.0000
     70 H27        0.6855    2.1201    9.7140 H         3 RES3    0.0000
     71 C34       -0.1347    2.5205    7.9029 C.ar      3 RES3    0.0000
     72 H28       -0.8433    1.8904    7.9694 H         3 RES3    0.0000
     73 C35       -0.0021    3.2970    6.7779 C.ar      3 RES3    0.0000
     74 H29       -0.6028    3.1794    6.0517 H         3 RES3    0.0000
     75 C36        0.9982    4.2472    6.6921 C.ar      3 RES3    0.0000
     76 H30        1.0704    4.7933    5.9184 H         3 RES3    0.0000
     77 N7         2.9618    5.3116    7.5555 N.pl3     3 RES3    0.0000
     78 H31        3.3748    5.3213    6.7655 H         3 RES3    0.0000
     79 N8         2.9713    7.2700   11.9257 N.3       3 RES3    0.0000
     80 H32        3.4415    7.5336   12.6042 H         3 RES3    0.0000
     81 H33        2.2543    6.7962   12.1064 H         3 RES3    0.0000
     82 N9         5.4684    6.6701    6.9975 N.pl3     3 RES3    0.0000
     83 O5         5.0121    5.9572    6.0744 O.2       3 RES3    0.0000
     84 O6         6.5338    7.2757    6.8348 O.2       3 RES3    0.0000
@<TRIPOS>BOND
     1    1    2 ar
     2    2    3 ar
     3    3    4 1
     4    5    3 ar
     5    6    5 ar
     6    7    6 1
     7    8    1 ar
     8    9    8 1
     9   10   11 ar
    10   11   12 1
    11   13   11 ar
    12   14   13 1
    13   15   13 ar
    14   16   15 1
    15   17   15 ar
    16   18   17 1
    17   19   10 ar
    18   20   19 1
    19   21    2 1
    20   22   21 1
    21   23    5 1
    22   24   23 1
    23   25   23 1
    24   26    1 1
    25   27   26 2
    26   28   26 2
    27   29   30 ar
    28   30   31 1
    29   32   30 ar
    30   33   32 ar
    31   34   33 ar
    32   35   34 1
    33   36   29 ar
    34   37   36 1
    35   38   39 ar
    36   39   40 1
    37   41   39 ar
    38   42   41 1
    39   43   41 ar
    40   44   43 1
    41   45   43 ar
    42   46   45 1
    43   47   38 ar
    44   48   47 1
    45   49   32 1
    46   50   49 1
    47   51   29 1
    48   52   51 1
    49   53   51 1
    50   54   33 1
    51   55   54 2
    52   56   54 2
    53   57   58 ar
    54   58   59 ar
    55   59   60 1
    56   61   59 ar
    57   62   61 ar
    58   63   62 1
    59   64   57 ar
    60   65   64 1
    61   66   67 ar
    62   67   68 1
    63   69   67 ar
    64   70   69 1
    65   71   69 ar
    66   72   71 1
    67   73   71 ar
    68   74   73 1
    69   75   66 ar
    70   76   75 1
    71   77   58 1
    72   78   77 1
    73   79   61 1
    74   80   79 1
    75   81   79 1
    76   82   57 1
    77   83   82 2
    78   84   82 2
    79    6    8 ar
    80   10   21 1
    81   17   19 ar
    82   34   36 ar
    83   38   49 1
    84   45   47 ar
    85   62   64 ar
    86   66   77 1
    87   73   75 ar
@<TRIPOS>SUBSTRUCTURE
     1 RES1 1
     2 RES2 29
     3 RES3 57

@<TRIPOS>CRYSIN
  13.5737   15.6234   16.7015  90.0000 113.4950  90.0000  14 1

