# MOL2 file generated by ConQuest
# Please check atom types

@<TRIPOS>MOLECULE
GUCQOM
    34    35     1
SMALL
NO_CHARGES
****
Generated from CSD

@<TRIPOS>ATOM
      1 C1         4.4939    3.6694    4.9485 C.ar      1 RES1    0.0000
      2 C2         3.0778    3.6658    4.7258 C.ar      1 RES1    0.0000
      3 C3         2.6391    3.6478    3.3984 C.ar      1 RES1    0.0000
      4 H1         1.7052    3.6176    3.2283 H         1 RES1    0.0000
      5 C4         3.5205    3.6719    2.3064 C.ar      1 RES1    0.0000
      6 C5         4.9242    3.6872    2.5636 C.ar      1 RES1    0.0000
      7 H2         5.5411    3.7005    1.8417 H         1 RES1    0.0000
      8 C6         5.3753    3.6830    3.8515 C.ar      1 RES1    0.0000
      9 H3         6.3115    3.6892    4.0124 H         1 RES1    0.0000
     10 C7         0.7853    3.7993    5.7128 C.ar      1 RES1    0.0000
     11 C8         0.1452    4.7315    4.8900 C.ar      1 RES1    0.0000
     12 H4         0.6557    5.2797    4.3054 H         1 RES1    0.0000
     13 C9        -1.2408    4.8562    4.9280 C.ar      1 RES1    0.0000
     14 H5        -1.6726    5.4785    4.3546 H         1 RES1    0.0000
     15 C10       -2.0001    4.0795    5.7970 C.ar      1 RES1    0.0000
     16 H6        -2.9463    4.1584    5.8115 H         1 RES1    0.0000
     17 C11       -1.3558    3.1856    6.6441 C.ar      1 RES1    0.0000
     18 H7        -1.8649    2.6693    7.2570 H         1 RES1    0.0000
     19 C12        0.0217    3.0398    6.6039 C.ar      1 RES1    0.0000
     20 H8         0.4483    2.4208    7.1850 H         1 RES1    0.0000
     21 C13        3.9820    3.6007   -0.0958 C.3       1 RES1    0.0000
     22 H9         3.4768    3.5905   -0.9348 H         1 RES1    0.0000
     23 H10        4.5129    2.7800   -0.0246 H         1 RES1    0.0000
     24 H11        4.5787    4.3777   -0.0835 H         1 RES1    0.0000
     25 C14        1.6327    3.7256    0.7563 C.3       1 RES1    0.0000
     26 H12        1.4860    3.8728   -0.2014 H         1 RES1    0.0000
     27 H13        1.2264    4.4586    1.2654 H         1 RES1    0.0000
     28 H14        1.2221    2.8767    1.0232 H         1 RES1    0.0000
     29 N1         2.1912    3.6557    5.7704 N.pl3     1 RES1    0.0000
     30 H15        2.5393    3.5123    6.5711 H         1 RES1    0.0000
     31 N2         3.0570    3.6805    1.0266 N.3       1 RES1    0.0000
     32 N3         5.0762    3.6559    6.2391 N.pl3     1 RES1    0.0000
     33 O1         4.3350    3.5738    7.2561 O.2       1 RES1    0.0000
     34 O2         6.3107    3.7229    6.3603 O.2       1 RES1    0.0000
@<TRIPOS>BOND
     1    1    2 ar
     2    2    3 ar
     3    3    4 1
     4    5    3 ar
     5    6    5 ar
     6    7    6 1
     7    8    1 ar
     8    9    8 1
     9   10   11 ar
    10   11   12 1
    11   13   11 ar
    12   14   13 1
    13   15   13 ar
    14   16   15 1
    15   17   15 ar
    16   18   17 1
    17   19   10 ar
    18   20   19 1
    19   21   22 1
    20   23   21 1
    21   24   21 1
    22   25   26 1
    23   27   25 1
    24   28   25 1
    25   29    2 1
    26   30   29 1
    27   31    5 1
    28   32    1 1
    29   33   32 2
    30   34   32 2
    31    6    8 ar
    32   10   29 1
    33   17   19 ar
    34   21   31 1
    35   25   31 1
@<TRIPOS>SUBSTRUCTURE
     1 RES1 1

@<TRIPOS>CRYSIN
  11.6236    6.6269   17.1321  90.0000 107.1480  90.0000  14 1

