# MOL2 file generated by ConQuest
# Please check atom types

@<TRIPOS>MOLECULE
GUCRAZ
   166   164     5
SMALL
NO_CHARGES
****
Generated from CSD

@<TRIPOS>ATOM
      1 C1         4.1645    8.0875    7.0477 C.ar      1 RES1    0.0000
      2 C2         4.0606    8.2773    8.4634 C.ar      1 RES1    0.0000
      3 C3         3.4254    9.4390    8.9070 C.ar      1 RES1    0.0000
      4 H1         3.3805    9.6057    9.8411 H         1 RES1    0.0000
      5 C4         2.8518   10.3686    8.0316 C.ar      1 RES1    0.0000
      6 C5         2.9526   10.1367    6.6230 C.ar      1 RES1    0.0000
      7 H2         2.5670   10.7511    6.0093 H         1 RES1    0.0000
      8 C6         3.6002    9.0375    6.1663 C.ar      1 RES1    0.0000
      9 H3         3.6763    8.9014    5.2284 H         1 RES1    0.0000
     10 C7         4.3757    7.6011   10.7873 C.ar      1 RES1    0.0000
     11 C8         3.1537    7.2888   11.3731 C.ar      1 RES1    0.0000
     12 H4         2.4553    6.9137   10.8502 H         1 RES1    0.0000
     13 C9         2.9606    7.5291   12.7278 C.ar      1 RES1    0.0000
     14 H5         2.1295    7.3109   13.1320 H         1 RES1    0.0000
     15 C10        3.9728    8.0839   13.4924 C.ar      1 RES1    0.0000
     16 H6         3.8310    8.2583   14.4165 H         1 RES1    0.0000
     17 C11        5.1929    8.3855   12.9093 C.ar      1 RES1    0.0000
     18 H7         5.8890    8.7605   13.4349 H         1 RES1    0.0000
     19 C12        5.3978    8.1399   11.5564 C.ar      1 RES1    0.0000
     20 H8         6.2366    8.3406   11.1591 H         1 RES1    0.0000
     21 C13        2.3133   11.9001    9.8860 C.3       1 RES1    0.0000
     22 H9         2.1078   12.8680    9.9316 H         1 RES1    0.0000
     23 H10        3.2435   11.7782   10.2011 H         1 RES1    0.0000
     24 C14        1.3780   11.1618   10.8386 C.3       1 RES1    0.0000
     25 H11        0.4504   11.4761   10.6948 H         1 RES1    0.0000
     26 H12        1.4048   10.1929   10.6358 H         1 RES1    0.0000
     27 C15        1.7592   11.3798   12.2980 C.3       1 RES1    0.0000
     28 H13        1.7896   12.3514   12.4848 H         1 RES1    0.0000
     29 H14        2.6648   11.0119   12.4553 H         1 RES1    0.0000
     30 C16        0.7770   10.7166   13.2577 C.3       1 RES1    0.0000
     31 H15        1.0600   10.8815   14.1804 H         1 RES1    0.0000
     32 H16        0.7566    9.7516   13.0887 H         1 RES1    0.0000
     33 H17       -0.1185   11.0912   13.1182 H         1 RES1    0.0000
     34 N1         4.5606    7.4024    9.3812 N.pl3     1 RES1    0.0000
     35 H18        5.0087    6.6975    9.1035 H         1 RES1    0.0000
     36 N2         2.2387   11.4763    8.4941 N.3       1 RES1    0.0000
     37 H19        1.7723   11.9653    7.9311 H         1 RES1    0.0000
     38 N3         4.8559    6.9990    6.4814 N.pl3     1 RES1    0.0000
     39 O1         5.4149    6.1467    7.2360 O.2       1 RES1    0.0000
     40 O2         4.9210    6.8784    5.2475 O.2       1 RES1    0.0000
     41 C17        6.3496    9.5397    3.6028 C.ar      2 RES2    0.0000
     42 C18        6.7703   10.2012    4.8000 C.ar      2 RES2    0.0000
     43 C19        6.2125   11.4452    5.0887 C.ar      2 RES2    0.0000
     44 H20        6.4915   11.9005    5.8736 H         2 RES2    0.0000
     45 C20        5.2600   12.0443    4.2659 C.ar      2 RES2    0.0000
     46 C21        4.8237   11.3450    3.1007 C.ar      2 RES2    0.0000
     47 H21        4.1545   11.7222    2.5434 H         2 RES2    0.0000
     48 C22        5.3647   10.1442    2.7910 C.ar      2 RES2    0.0000
     49 H22        5.0737    9.6953    2.0064 H         2 RES2    0.0000
     50 C23        7.9781   10.2030    6.9409 C.ar      2 RES2    0.0000
     51 C24        7.0285   10.1230    7.9475 C.ar      2 RES2    0.0000
     52 H23        6.1762    9.7427    7.7659 H         2 RES2    0.0000
     53 C25        7.3202   10.5970    9.2182 C.ar      2 RES2    0.0000
     54 H24        6.6695   10.5311    9.9080 H         2 RES2    0.0000
     55 C26        8.5473   11.1625    9.4869 C.ar      2 RES2    0.0000
     56 H25        8.7491   11.4797   10.3585 H         2 RES2    0.0000
     57 C27        9.4821   11.2626    8.4727 C.ar      2 RES2    0.0000
     58 H26       10.3254   11.6643    8.6471 H         2 RES2    0.0000
     59 C28        9.1978   10.7801    7.1992 C.ar      2 RES2    0.0000
     60 H27        9.8469   10.8490    6.5090 H         2 RES2    0.0000
     61 C29        5.0994   14.0784    5.6850 C.3       2 RES2    0.0000
     62 H28        4.8731   15.0236    5.4940 H         2 RES2    0.0000
     63 H29        6.0770   14.0262    5.8284 H         2 RES2    0.0000
     64 C30        4.3920   13.6507    6.9557 C.3       2 RES2    0.0000
     65 H30        4.5933   12.6965    7.1227 H         2 RES2    0.0000
     66 H31        3.4154   13.7287    6.8138 H         2 RES2    0.0000
     67 C31        4.7673   14.4507    8.1979 C.3       2 RES2    0.0000
     68 H32        4.7166   15.4153    7.9823 H         2 RES2    0.0000
     69 H33        4.1029   14.2665    8.9068 H         2 RES2    0.0000
     70 C32        6.1184   14.1526    8.7240 C.3       2 RES2    0.0000
     71 H34        6.2982   14.7195    9.5028 H         2 RES2    0.0000
     72 H35        6.7872   14.3326    8.0295 H         2 RES2    0.0000
     73 H36        6.1667   13.2096    8.9874 H         2 RES2    0.0000
     74 N4         7.6958    9.6686    5.6484 N.pl3     2 RES2    0.0000
     75 H37        8.1427    8.9572    5.3838 H         2 RES2    0.0000
     76 N5         4.7479   13.2662    4.5289 N.3       2 RES2    0.0000
     77 H38        4.1609   13.5947    3.9616 H         2 RES2    0.0000
     78 N6         6.8638    8.2943    3.1976 N.pl3     2 RES2    0.0000
     79 O3         7.8004    7.7472    3.8436 O.2       2 RES2    0.0000
     80 O4         6.4054    7.7355    2.1773 O.2       2 RES2    0.0000
     81 C33       11.3314    2.8284    2.8365 C.ar      3 RES3    0.0000
     82 C34       11.2225    3.0612    1.4257 C.ar      3 RES3    0.0000
     83 C35       10.3394    4.0561    1.0115 C.ar      3 RES3    0.0000
     84 H39       10.2360    4.2116    0.0806 H         3 RES3    0.0000
     85 C36        9.6009    4.8337    1.9013 C.ar      3 RES3    0.0000
     86 C37        9.7232    4.5762    3.3013 C.ar      3 RES3    0.0000
     87 H40        9.2212    5.0874    3.9262 H         3 RES3    0.0000
     88 C38       10.5591    3.5995    3.7362 C.ar      3 RES3    0.0000
     89 H41       10.6267    3.4294    4.6678 H         3 RES3    0.0000
     90 C39       11.8124    2.6161   -0.9094 C.ar      3 RES3    0.0000
     91 C40       12.4847    3.6977   -1.4562 C.ar      3 RES3    0.0000
     92 H42       13.0199    4.2531   -0.9009 H         3 RES3    0.0000
     93 C41       12.3760    3.9701   -2.8174 C.ar      3 RES3    0.0000
     94 H43       12.8425    4.7069   -3.1945 H         3 RES3    0.0000
     95 C42       11.5848    3.1595   -3.6223 C.ar      3 RES3    0.0000
     96 H44       11.4996    3.3478   -4.5498 H         3 RES3    0.0000
     97 C43       10.9230    2.0812   -3.0713 C.ar      3 RES3    0.0000
     98 H45       10.3888    1.5229   -3.6253 H         3 RES3    0.0000
     99 C44       11.0310    1.8058   -1.7145 C.ar      3 RES3    0.0000
    100 H46       10.5695    1.0644   -1.3396 H         3 RES3    0.0000
    101 C45        8.4174    5.9425    0.0527 C.3       3 RES3    0.0000
    102 H47        7.5742    6.4576   -0.0118 H         3 RES3    0.0000
    103 H48        8.2455    5.0426   -0.3246 H         3 RES3    0.0000
    104 C46        9.4695    6.6323   -0.8108 C.3       3 RES3    0.0000
    105 H49        9.4227    7.6111   -0.6668 H         3 RES3    0.0000
    106 H50       10.3705    6.3264   -0.5370 H         3 RES3    0.0000
    107 C47        9.2589    6.3297   -2.2916 C.3       3 RES3    0.0000
    108 H51        9.3464    5.3539   -2.4372 H         3 RES3    0.0000
    109 H52        8.3399    6.5925   -2.5473 H         3 RES3    0.0000
    110 C48       10.2523    7.0565   -3.1878 C.3       3 RES3    0.0000
    111 H53       10.0689    6.8353   -4.1249 H         3 RES3    0.0000
    112 H54       11.1630    6.7783   -2.9584 H         3 RES3    0.0000
    113 H55       10.1626    8.0233   -3.0568 H         3 RES3    0.0000
    114 N7        11.9140    2.3455    0.4945 N.pl3     3 RES3    0.0000
    115 H56       12.4421    1.6945    0.7652 H         3 RES3    0.0000
    116 N8         8.7580    5.7932    1.4607 N.3       3 RES3    0.0000
    117 H57        8.4028    6.3478    2.0457 H         3 RES3    0.0000
    118 N9        12.1344    1.8102    3.3796 N.pl3     3 RES3    0.0000
    119 O5        12.8080    1.0621    2.6091 O.2       3 RES3    0.0000
    120 O6        12.1757    1.6350    4.6082 O.2       3 RES3    0.0000
    121 C49        9.0772    1.1209    6.3128 C.ar      4 RES4    0.0000
    122 C50        8.4053    1.0033    5.0575 C.ar      4 RES4    0.0000
    123 C51        7.4191    1.9466    4.7681 C.ar      4 RES4    0.0000
    124 H58        6.9405    1.8670    3.9518 H         4 RES4    0.0000
    125 C52        7.1053    3.0014    5.6230 C.ar      4 RES4    0.0000
    126 C53        7.7993    3.1002    6.8599 C.ar      4 RES4    0.0000
    127 H59        7.6005    3.8082    7.4610 H         4 RES4    0.0000
    128 C54        8.7469    2.1814    7.1807 C.ar      4 RES4    0.0000
    129 H60        9.1983    2.2554    8.0137 H         4 RES4    0.0000
    130 C55        8.1672   -0.0069    2.8249 C.ar      4 RES4    0.0000
    131 C56        8.4461    1.0282    1.9407 C.ar      4 RES4    0.0000
    132 H61        8.9534    1.7756    2.2326 H         4 RES4    0.0000
    133 C57        7.9877    0.9738    0.6348 C.ar      4 RES4    0.0000
    134 H62        8.1844    1.6835    0.0354 H         4 RES4    0.0000
    135 C58        7.2447   -0.1051    0.2016 C.ar      4 RES4    0.0000
    136 H63        6.9365   -0.1446   -0.6963 H         4 RES4    0.0000
    137 C59        6.9542   -1.1249    1.0789 C.ar      4 RES4    0.0000
    138 H64        6.4415   -1.8686    0.7849 H         4 RES4    0.0000
    139 C60        7.4078   -1.0744    2.3951 C.ar      4 RES4    0.0000
    140 H65        7.1934   -1.7766    2.9978 H         4 RES4    0.0000
    141 C61        5.1715    3.7307    4.2862 C.3       4 RES4    0.0000
    142 H66        4.3651    4.2661    4.4908 H         4 RES4    0.0000
    143 H67        4.9081    2.7766    4.2350 H         4 RES4    0.0000
    144 C62        5.7662    4.1729    2.9742 C.3       4 RES4    0.0000
    145 H68        6.5872    3.6618    2.7657 H         4 RES4    0.0000
    146 H69        5.9844    5.1381    2.9919 H         4 RES4    0.0000
    147 C63        4.5602    3.8520    1.8557 C.3       4 RES4    0.0000
    148 H70        4.2791    2.9036    1.8766 H         4 RES4    0.0000
    149 H71        3.7718    4.4359    1.9828 H         4 RES4    0.0000
    150 C64        5.2819    4.1741    0.6454 C.3       4 RES4    0.0000
    151 H72        5.6122    5.0957    0.6983 H         4 RES4    0.0000
    152 H73        4.6831    4.0849   -0.1259 H         4 RES4    0.0000
    153 H74        6.0399    3.5622    0.5429 H         4 RES4    0.0000
    154 N10        8.6825    0.0221    4.1546 N.pl3     4 RES4    0.0000
    155 H75        9.2117   -0.6342    4.4062 H         4 RES4    0.0000
    156 N11        6.1630    3.9138    5.3167 N.3       4 RES4    0.0000
    157 H76        6.1529    4.6667    5.7733 H         4 RES4    0.0000
    158 N12       10.0921    0.2362    6.7234 N.pl3     4 RES4    0.0000
    159 O7        10.4010   -0.7583    6.0123 O.2       4 RES4    0.0000
    160 O8        10.6871    0.4342    7.8031 O.2       4 RES4    0.0000
    161 C65        5.8859    4.2711    3.7728 Du        5 SUP5    0.0000
    162 H77        5.6362    5.2250    3.6823 Du        5 SUP5    0.0000
    163 H78        6.6981    4.1059    3.2319 Du        5 SUP5    0.0000
    164 C66        4.7470    3.3816    3.2948 Du        5 SUP5    0.0000
    165 H79        3.9272    3.5272    3.8298 Du        5 SUP5    0.0000
    166 H80        4.9967    2.4249    3.3322 Du        5 SUP5    0.0000
@<TRIPOS>BOND
     1    1    2 ar
     2    2    3 ar
     3    3    4 1
     4    5    3 ar
     5    6    5 ar
     6    7    6 1
     7    8    1 ar
     8    9    8 1
     9   10   11 ar
    10   11   12 1
    11   13   11 ar
    12   14   13 1
    13   15   13 ar
    14   16   15 1
    15   17   15 ar
    16   18   17 1
    17   19   10 ar
    18   20   19 1
    19   21   22 1
    20   23   21 1
    21   24   21 1
    22   25   24 1
    23   26   24 1
    24   27   24 1
    25   28   27 1
    26   29   27 1
    27   30   27 1
    28   31   30 1
    29   32   30 1
    30   33   30 1
    31   34    2 1
    32   35   34 1
    33   36    5 1
    34   37   36 1
    35   38    1 1
    36   39   38 2
    37   40   38 2
    38   41   42 ar
    39   42   43 ar
    40   43   44 1
    41   45   43 ar
    42   46   45 ar
    43   47   46 1
    44   48   41 ar
    45   49   48 1
    46   50   51 ar
    47   51   52 1
    48   53   51 ar
    49   54   53 1
    50   55   53 ar
    51   56   55 1
    52   57   55 ar
    53   58   57 1
    54   59   50 ar
    55   60   59 1
    56   61   62 1
    57   63   61 1
    58   64   61 1
    59   65   64 1
    60   66   64 1
    61   67   64 1
    62   68   67 1
    63   69   67 1
    64   70   67 1
    65   71   70 1
    66   72   70 1
    67   73   70 1
    68   74   42 1
    69   75   74 1
    70   76   45 1
    71   77   76 1
    72   78   41 1
    73   79   78 2
    74   80   78 2
    75   81   82 ar
    76   82   83 ar
    77   83   84 1
    78   85   83 ar
    79   86   85 ar
    80   87   86 1
    81   88   81 ar
    82   89   88 1
    83   90   91 ar
    84   91   92 1
    85   93   91 ar
    86   94   93 1
    87   95   93 ar
    88   96   95 1
    89   97   95 ar
    90   98   97 1
    91   99   90 ar
    92  100   99 1
    93  101  102 1
    94  103  101 1
    95  104  101 1
    96  105  104 1
    97  106  104 1
    98  107  104 1
    99  108  107 1
   100  109  107 1
   101  110  107 1
   102  111  110 1
   103  112  110 1
   104  113  110 1
   105  114   82 1
   106  115  114 1
   107  116   85 1
   108  117  116 1
   109  118   81 1
   110  119  118 2
   111  120  118 2
   112  121  122 ar
   113  122  123 ar
   114  123  124 1
   115  125  123 ar
   116  126  125 ar
   117  127  126 1
   118  128  121 ar
   119  129  128 1
   120  130  131 ar
   121  131  132 1
   122  133  131 ar
   123  134  133 1
   124  135  133 ar
   125  136  135 1
   126  137  135 ar
   127  138  137 1
   128  139  130 ar
   129  140  139 1
   130  141  142 1
   131  143  141 1
   132  144  141 1
   133  145  144 1
   134  146  144 1
   135  147  144 1
   136  148  147 1
   137  149  147 1
   138  150  147 1
   139  151  150 1
   140  152  150 1
   141  153  150 1
   142  154  122 1
   143  155  154 1
   144  156  125 1
   145  157  156 1
   146  158  121 1
   147  159  158 2
   148  160  158 2
   149    6    8 ar
   150   10   34 1
   151   17   19 ar
   152   21   36 1
   153   46   48 ar
   154   50   74 1
   155   57   59 ar
   156   61   76 1
   157   86   88 ar
   158   90  114 1
   159   97   99 ar
   160  101  116 1
   161  126  128 ar
   162  130  154 1
   163  137  139 ar
   164  141  156 1
@<TRIPOS>SUBSTRUCTURE
     1 RES1 1
     2 RES2 41
     3 RES3 81
     4 RES4 121
     5 SUP5 161

@<TRIPOS>CRYSIN
  10.9686   13.6711   19.8392  85.0910  84.0130  85.6250   2 1

