# MOL2 file generated by ConQuest
# Please check atom types

@<TRIPOS>MOLECULE
GUCRED
    41    43     1
SMALL
NO_CHARGES
****
Generated from CSD

@<TRIPOS>ATOM
      1 C1         2.1218    7.3982    4.3421 C.ar      1 RES1    0.0000
      2 C2         1.9745    5.9787    4.4223 C.ar      1 RES1    0.0000
      3 C3         0.7616    5.4325    3.9951 C.ar      1 RES1    0.0000
      4 H1         0.6261    4.4963    4.0701 H         1 RES1    0.0000
      5 C4        -0.2580    6.2245    3.4602 C.ar      1 RES1    0.0000
      6 C5        -0.0782    7.6345    3.3824 C.ar      1 RES1    0.0000
      7 H2        -0.7648    8.1825    3.0230 H         1 RES1    0.0000
      8 C6         1.0745    8.1889    3.8230 C.ar      1 RES1    0.0000
      9 H3         1.1813    9.1331    3.7817 H         1 RES1    0.0000
     10 C7         3.0605    3.7987    5.0353 C.ar      1 RES1    0.0000
     11 C8         3.7575    3.3030    6.1369 C.ar      1 RES1    0.0000
     12 H4         4.0789    3.9002    6.8005 H         1 RES1    0.0000
     13 C9         3.9828    1.9471    6.2691 C.ar      1 RES1    0.0000
     14 H5         4.4759    1.6200    7.0126 H         1 RES1    0.0000
     15 C10        3.4951    1.0640    5.3259 C.ar      1 RES1    0.0000
     16 H6         3.6375    0.1314    5.4264 H         1 RES1    0.0000
     17 C11        2.7983    1.5503    4.2347 C.ar      1 RES1    0.0000
     18 H7         2.4537    0.9414    3.5903 H         1 RES1    0.0000
     19 C12        2.5949    2.9120    4.0674 C.ar      1 RES1    0.0000
     20 H8         2.1412    3.2369    3.2991 H         1 RES1    0.0000
     21 C13       -1.7689    4.2924    3.1091 C.3       1 RES1    0.0000
     22 H9        -2.7198    4.1937    2.8523 H         1 RES1    0.0000
     23 H10       -1.6874    4.0194    4.0571 H         1 RES1    0.0000
     24 C14       -0.9463    3.3421    2.2664 C.ar      1 RES1    0.0000
     25 C15       -0.2527    3.7709    1.1483 C.ar      1 RES1    0.0000
     26 H11       -0.2952    4.6827    0.8902 H         1 RES1    0.0000
     27 C16        0.5035    2.8808    0.4034 C.ar      1 RES1    0.0000
     28 H12        0.9861    3.1880   -0.3546 H         1 RES1    0.0000
     29 C17        0.5566    1.5488    0.7587 C.ar      1 RES1    0.0000
     30 H13        1.0807    0.9414    0.2506 H         1 RES1    0.0000
     31 C18       -0.1513    1.1056    1.8512 C.ar      1 RES1    0.0000
     32 H14       -0.1303    0.1865    2.0895 H         1 RES1    0.0000
     33 C19       -0.8944    1.9984    2.6051 C.ar      1 RES1    0.0000
     34 H15       -1.3747    1.6872    3.3631 H         1 RES1    0.0000
     35 N1         2.9759    5.1987    4.9266 N.pl3     1 RES1    0.0000
     36 H16        3.5901    5.6914    5.3355 H         1 RES1    0.0000
     37 N2        -1.4101    5.6911    3.0039 N.3       1 RES1    0.0000
     38 H17       -2.0139    6.2538    2.6643 H         1 RES1    0.0000
     39 N3         3.2503    8.0835    4.8159 N.pl3     1 RES1    0.0000
     40 O1         4.1979    7.4489    5.3651 O.2       1 RES1    0.0000
     41 O2         3.3185    9.3214    4.7219 O.2       1 RES1    0.0000
@<TRIPOS>BOND
     1    1    2 ar
     2    2    3 ar
     3    3    4 1
     4    5    3 ar
     5    6    5 ar
     6    7    6 1
     7    8    1 ar
     8    9    8 1
     9   10   11 ar
    10   11   12 1
    11   13   11 ar
    12   14   13 1
    13   15   13 ar
    14   16   15 1
    15   17   15 ar
    16   18   17 1
    17   19   10 ar
    18   20   19 1
    19   21   22 1
    20   23   21 1
    21   24   21 1
    22   25   24 ar
    23   26   25 1
    24   27   25 ar
    25   28   27 1
    26   29   27 ar
    27   30   29 1
    28   31   29 ar
    29   32   31 1
    30   33   24 ar
    31   34   33 1
    32   35    2 1
    33   36   35 1
    34   37    5 1
    35   38   37 1
    36   39    1 1
    37   40   39 2
    38   41   39 2
    39    6    8 ar
    40   10   35 1
    41   17   19 ar
    42   21   37 1
    43   31   33 ar
@<TRIPOS>SUBSTRUCTURE
     1 RES1 1

@<TRIPOS>CRYSIN
   7.5803   30.5660    6.8976  90.0000  93.5280  90.0000  14 1

