# MOL2 file generated by ConQuest
# Please check atom types

@<TRIPOS>MOLECULE
GUDSED
    35    36     1
SMALL
NO_CHARGES
****
Generated from CSD

@<TRIPOS>ATOM
      1 C1         0.8798    5.6876   17.4449 C.3       1 RES1    0.0000
      2 H1         0.4999    4.9568   17.9369 H         1 RES1    0.0000
      3 H2         1.0830    6.4285   18.0405 H         1 RES1    0.0000
      4 C2         0.0611    6.0702   16.2268 C.3       1 RES1    0.0000
      5 H3        -0.8831    6.0166   16.3681 H         1 RES1    0.0000
      6 H4         0.2333    7.0492   15.9973 H         1 RES1    0.0000
      7 C3         0.6198    5.1528   15.1321 C.3       1 RES1    0.0000
      8 H5         0.2444    4.2816   15.2477 H         1 RES1    0.0000
      9 C4         2.0405    4.8954   15.6080 C.2       1 RES1    0.0000
     10 C5         0.4249    5.5897   13.6614 C.3       1 RES1    0.0000
     11 H6        -0.5554    5.5447   13.4830 H         1 RES1    0.0000
     12 C6         1.0925    4.6582   12.6332 C.3       1 RES1    0.0000
     13 H7         2.0605    4.6362   12.7464 H         1 RES1    0.0000
     14 C7         0.5060    3.2574   12.5902 C.3       1 RES1    0.0000
     15 H8         1.1886    2.5957   12.2720 H         1 RES1    0.0000
     16 H9         0.1666    2.9503   13.4555 H         1 RES1    0.0000
     17 C8        -0.1266    4.2858   10.6520 C.3       1 RES1    0.0000
     18 C9         0.5821    3.5514    9.5291 C.3       1 RES1    0.0000
     19 H10        0.9497    4.2420    8.9094 H         1 RES1    0.0000
     20 H11       -0.1055    2.9585    9.0486 H         1 RES1    0.0000
     21 H12        1.3385    3.0172    9.8646 H         1 RES1    0.0000
     22 C10       -1.2919    5.0973   10.1615 C.3       1 RES1    0.0000
     23 H13       -1.7051    5.5488   10.9299 H         1 RES1    0.0000
     24 H14       -1.9772    4.4603    9.7658 H         1 RES1    0.0000
     25 H15       -0.9886    5.7015    9.4550 H         1 RES1    0.0000
     26 C11        0.7565    7.0628   13.3684 C.3       1 RES1    0.0000
     27 H16        0.6443    7.2387   12.3983 H         1 RES1    0.0000
     28 H17        0.2388    7.6793   13.9477 H         1 RES1    0.0000
     29 N1         2.1944    7.3863   13.6415 N.pl3     1 RES1    0.0000
     30 O1         2.1638    5.2118   16.9152 O.3       1 RES1    0.0000
     31 O2         2.9747    4.4160   15.0036 O.2       1 RES1    0.0000
     32 O3         0.8253    5.1466   11.3048 O.3       1 RES1    0.0000
     33 O4        -0.5798    3.3879   11.6587 O.3       1 RES1    0.0000
     34 O5         2.9897    7.3211   12.7129 O.2       1 RES1    0.0000
     35 O6         2.5110    7.6780   14.7935 O.2       1 RES1    0.0000
@<TRIPOS>BOND
     1    1    2 1
     2    3    1 1
     3    4    1 1
     4    5    4 1
     5    6    4 1
     6    7    4 1
     7    8    7 1
     8    9    7 1
     9   10    7 1
    10   11   10 1
    11   12   10 1
    12   13   12 1
    13   14   12 1
    14   15   14 1
    15   16   14 1
    16   17   18 1
    17   18   19 1
    18   20   18 1
    19   21   18 1
    20   22   17 1
    21   23   22 1
    22   24   22 1
    23   25   22 1
    24   26   10 1
    25   27   26 1
    26   28   26 1
    27   29   26 1
    28   30    1 1
    29   31    9 2
    30   32   12 1
    31   33   14 1
    32   34   29 2
    33   35   29 2
    34    9   30 1
    35   17   33 1
    36   17   32 1
@<TRIPOS>SUBSTRUCTURE
     1 RES1 1

@<TRIPOS>CRYSIN
   5.5540   13.6400   16.1900  90.0000  90.0000  90.0000  19 1

