# MOL2 file generated by ConQuest
# Please check atom types

@<TRIPOS>MOLECULE
GUDWIM
    56    59     1
SMALL
NO_CHARGES
****
Generated from CSD

@<TRIPOS>ATOM
      1 O1         1.1564   10.8183   15.8905 O.3       1 RES1    0.0000
      2 O2         3.3115   10.2192   15.3746 O.3       1 RES1    0.0000
      3 O3         2.9462   11.0921   11.4835 O.3       1 RES1    0.0000
      4 N1         2.8534   10.3197   12.7111 N.3       1 RES1    0.0000
      5 H1         3.7263   10.3851   13.0663 H         1 RES1    0.0000
      6 C1         1.9568   10.1610   14.9150 C.3       1 RES1    0.0000
      7 C2         1.8359   10.9532   13.5748 C.3       1 RES1    0.0000
      8 C3         0.4508   10.6985   12.9445 C.3       1 RES1    0.0000
      9 H2        -0.2436   11.1207   13.5114 H         1 RES1    0.0000
     10 H3         0.4177   11.1295   12.0532 H         1 RES1    0.0000
     11 C4         0.1315    9.2101   12.7896 C.3       1 RES1    0.0000
     12 H4        -0.7708    9.1018   12.3969 H         1 RES1    0.0000
     13 H5         0.7871    8.7916   12.1779 H         1 RES1    0.0000
     14 C5         0.1860    8.5218   14.1482 C.3       1 RES1    0.0000
     15 H6        -0.0088    7.5579   14.0384 H         1 RES1    0.0000
     16 H7        -0.5047    8.9086   14.7434 H         1 RES1    0.0000
     17 C6         1.5623    8.6948   14.7849 C.3       1 RES1    0.0000
     18 H8         1.5598    8.2776   15.6835 H         1 RES1    0.0000
     19 H9         2.2373    8.2244   14.2342 H         1 RES1    0.0000
     20 C7         1.9204   10.8856   17.1056 C.3       1 RES1    0.0000
     21 H10        1.7883   10.0465   17.6348 H         1 RES1    0.0000
     22 C8         3.3537   10.9572   16.6077 C.3       1 RES1    0.0000
     23 H11        3.6036   11.9077   16.4259 H         1 RES1    0.0000
     24 C9         1.4777   12.0780   17.9207 C.3       1 RES1    0.0000
     25 H12        1.5591   12.8914   17.3802 H         1 RES1    0.0000
     26 H13        2.0425   12.1576   18.7172 H         1 RES1    0.0000
     27 H14        0.5435   11.9591   18.1920 H         1 RES1    0.0000
     28 C10        4.3744   10.3243   17.5183 C.3       1 RES1    0.0000
     29 H15        4.0939    9.4120   17.7380 H         1 RES1    0.0000
     30 H16        4.4489   10.8512   18.3416 H         1 RES1    0.0000
     31 H17        5.2435   10.2982   17.0668 H         1 RES1    0.0000
     32 C11        2.0820   12.4543   13.8210 C.ar      1 RES1    0.0000
     33 C12        1.0714   13.2819   14.3195 C.ar      1 RES1    0.0000
     34 H18        0.2141   12.9127   14.4977 H         1 RES1    0.0000
     35 C13        1.2924   14.6316   14.5606 C.ar      1 RES1    0.0000
     36 H19        0.5855   15.1761   14.8876 H         1 RES1    0.0000
     37 C14        2.5466   15.1905   14.3248 C.ar      1 RES1    0.0000
     38 H20        2.7044   16.1103   14.4995 H         1 RES1    0.0000
     39 C15        3.5610   14.3833   13.8322 C.ar      1 RES1    0.0000
     40 H21        4.4207   14.7525   13.6663 H         1 RES1    0.0000
     41 C16        3.3268   13.0341   13.5803 C.ar      1 RES1    0.0000
     42 H22        4.0306   12.4961   13.2372 H         1 RES1    0.0000
     43 C17        2.9593   10.1823   10.3816 C.3       1 RES1    0.0000
     44 H23        2.1847    9.5680   10.4331 H         1 RES1    0.0000
     45 H24        3.7902    9.6442   10.3886 H         1 RES1    0.0000
     46 C18        2.8854   11.0150    9.1291 C.ar      1 RES1    0.0000
     47 C19        3.9912   11.1765    8.2995 C.ar      1 RES1    0.0000
     48 H25        4.8071   10.7378    8.5085 H         1 RES1    0.0000
     49 C20        3.9060   11.9777    7.1670 C.ar      1 RES1    0.0000
     50 H26        4.6624   12.0849    6.6017 H         1 RES1    0.0000
     51 C21        2.7226   12.6165    6.8641 C.ar      1 RES1    0.0000
     52 H27        2.6650   13.1626    6.0889 H         1 RES1    0.0000
     53 C22        1.6193   12.4683    7.6818 C.ar      1 RES1    0.0000
     54 H28        0.8078   12.9162    7.4723 H         1 RES1    0.0000
     55 C23        1.6988   11.6666    8.8088 C.ar      1 RES1    0.0000
     56 H29        0.9374   11.5602    9.3666 H         1 RES1    0.0000
@<TRIPOS>BOND
     1    1    6 1
     2    2    6 1
     3    3    4 1
     4    4    5 1
     5    6    7 1
     6    7    4 1
     7    8    7 1
     8    9    8 1
     9   10    8 1
    10   11    8 1
    11   12   11 1
    12   13   11 1
    13   14   11 1
    14   15   14 1
    15   16   14 1
    16   17    6 1
    17   18   17 1
    18   19   17 1
    19   20    1 1
    20   21   20 1
    21   22    2 1
    22   23   22 1
    23   24   20 1
    24   25   24 1
    25   26   24 1
    26   27   24 1
    27   28   22 1
    28   29   28 1
    29   30   28 1
    30   31   28 1
    31   32    7 1
    32   33   32 ar
    33   34   33 1
    34   35   33 ar
    35   36   35 1
    36   37   35 ar
    37   38   37 1
    38   39   37 ar
    39   40   39 1
    40   41   32 ar
    41   42   41 1
    42   43    3 1
    43   44   43 1
    44   45   43 1
    45   46   43 1
    46   47   46 ar
    47   48   47 1
    48   49   47 ar
    49   50   49 1
    50   51   49 ar
    51   52   51 1
    52   53   51 ar
    53   54   53 1
    54   55   46 ar
    55   56   55 1
    56   14   17 1
    57   20   22 1
    58   39   41 ar
    59   53   55 ar
@<TRIPOS>SUBSTRUCTURE
     1 RES1 1

@<TRIPOS>CRYSIN
   6.2616   17.7250   17.8039  90.0000  90.0000  90.0000  19 1

