# MOL2 file generated by ConQuest
# Please check atom types

@<TRIPOS>MOLECULE
GUFBEO
    47    50     1
SMALL
NO_CHARGES
****
Generated from CSD

@<TRIPOS>ATOM
      1 N1        12.3913    0.7432    9.1164 N.pl3     1 RES1    0.0000
      2 H1        12.4029    0.0837    8.5652 H         1 RES1    0.0000
      3 C1        11.3123    1.1116    9.8847 C.2       1 RES1    0.0000
      4 H2        10.4944    0.6681    9.9086 H         1 RES1    0.0000
      5 C2        11.6197    2.2264   10.6050 C.2       1 RES1    0.0000
      6 C3        13.0407    2.5636   10.3273 C.ar      1 RES1    0.0000
      7 C4        13.9281    3.4828   10.7516 C.ar      1 RES1    0.0000
      8 H3        13.6720    4.1000   11.3987 H         1 RES1    0.0000
      9 C5        15.1492    3.5219   10.2667 C.ar      1 RES1    0.0000
     10 H4        15.7391    4.1744   10.5684 H         1 RES1    0.0000
     11 C6        15.5987    2.5620    9.2644 C.ar      1 RES1    0.0000
     12 H5        16.4645    2.6027    8.9261 H         1 RES1    0.0000
     13 C7        14.7328    1.6068    8.8316 C.ar      1 RES1    0.0000
     14 H6        14.9906    0.9810    8.1945 H         1 RES1    0.0000
     15 C8        13.4621    1.5912    9.3659 C.ar      1 RES1    0.0000
     16 C9        10.2085    4.2510   10.9166 C.3       1 RES1    0.0000
     17 H7        11.0612    4.7282   10.8475 H         1 RES1    0.0000
     18 C10       10.5836    2.9540   11.4565 C.3       1 RES1    0.0000
     19 H8         9.7739    2.4181   11.3240 H         1 RES1    0.0000
     20 C11        9.3741    5.1389   11.8117 C.2       1 RES1    0.0000
     21 C12        9.7376    6.3695   12.2473 C.2       1 RES1    0.0000
     22 H9        10.5572    6.7747   12.0739 H         1 RES1    0.0000
     23 N2         8.7131    6.9359   12.9874 N.pl3     1 RES1    0.0000
     24 H10        8.7462    7.7041   13.3722 H         1 RES1    0.0000
     25 C13        7.6490    6.0926   13.0113 C.ar      1 RES1    0.0000
     26 C14        6.4361    6.2341   13.6034 C.ar      1 RES1    0.0000
     27 H11        6.2378    6.9977   14.0954 H         1 RES1    0.0000
     28 C15        5.4827    5.2046   13.4596 C.ar      1 RES1    0.0000
     29 H12        4.6383    5.2868   13.8402 H         1 RES1    0.0000
     30 C16        5.8247    4.0664   12.7421 C.ar      1 RES1    0.0000
     31 H13        5.1869    3.3999   12.6307 H         1 RES1    0.0000
     32 C17        7.0954    3.8841   12.1810 C.ar      1 RES1    0.0000
     33 H14        7.3086    3.0924   11.7412 H         1 RES1    0.0000
     34 C18        8.0373    4.9105   12.2924 C.ar      1 RES1    0.0000
     35 C19       10.8893    2.7388   12.8239 C.2       1 RES1    0.0000
     36 O1        11.6759    3.6338   13.4004 O.2       1 RES1    0.0000
     37 O2        10.5489    1.6757   13.4328 O.3       1 RES1    0.0000
     38 C20       11.0479    1.4770   14.8171 C.3       1 RES1    0.0000
     39 H15       10.7224    0.6399   15.1569 H         1 RES1    0.0000
     40 H16       10.7356    2.1928   15.3754 H         1 RES1    0.0000
     41 H17       12.0080    1.4699   14.8129 H         1 RES1    0.0000
     42 C21        9.7045    4.2260    9.5196 C.3       1 RES1    0.0000
     43 H18       10.2730    3.6314    9.0050 H         1 RES1    0.0000
     44 H19        8.8156    3.8380    9.5280 H         1 RES1    0.0000
     45 N3         9.6351    5.4972    8.8232 N.pl3     1 RES1    0.0000
     46 O3        10.5407    6.2287    8.7146 O.2       1 RES1    0.0000
     47 O4         8.7148    5.9455    8.3552 O.2       1 RES1    0.0000
@<TRIPOS>BOND
     1    1    2 1
     2    3    1 1
     3    4    3 1
     4    5    3 2
     5    6    5 1
     6    7    6 ar
     7    8    7 1
     8    9    7 ar
     9   10    9 1
    10   11    9 ar
    11   12   11 1
    12   13   11 ar
    13   14   13 1
    14   15    1 1
    15   16   17 1
    16   18    5 1
    17   19   18 1
    18   20   16 1
    19   21   20 2
    20   22   21 1
    21   23   21 1
    22   24   23 1
    23   25   23 1
    24   26   25 ar
    25   27   26 1
    26   28   26 ar
    27   29   28 1
    28   30   28 ar
    29   31   30 1
    30   32   30 ar
    31   33   32 1
    32   34   20 1
    33   35   18 1
    34   36   35 2
    35   37   35 1
    36   38   37 1
    37   39   38 1
    38   40   38 1
    39   41   38 1
    40   42   16 1
    41   43   42 1
    42   44   42 1
    43   45   42 1
    44   46   45 2
    45   47   45 2
    46    6   15 ar
    47   13   15 ar
    48   16   18 1
    49   25   34 ar
    50   32   34 ar
@<TRIPOS>SUBSTRUCTURE
     1 RES1 1

@<TRIPOS>CRYSIN
  16.5240    7.8230   14.0968  90.0000  90.0000  90.0000  33 1

