# MOL2 file generated by ConQuest
# Please check atom types

@<TRIPOS>MOLECULE
GUFPUS
   106   110     2
SMALL
NO_CHARGES
****
Generated from CSD

@<TRIPOS>ATOM
      1 O1         8.7300    6.5947   13.0165 O.2       1 RES1    0.0000
      2 O2        15.4607    0.6365    5.5452 O.3       1 RES1    0.0000
      3 N1         9.3080    5.6754   12.3573 N.3       1 RES1    0.0000
      4 N2        11.4802    3.2182    9.7800 N.2       1 RES1    0.0000
      5 C1        10.4688    4.9928   12.9857 C.3       1 RES1    0.0000
      6 C2        11.3225    4.3551   11.8841 C.3       1 RES1    0.0000
      7 H1        12.1190    3.8739   12.3203 H         1 RES1    0.0000
      8 H2        11.7736    5.0976   11.3795 H         1 RES1    0.0000
      9 C3        10.5568    3.5730   10.8574 C.3       1 RES1    0.0000
     10 H3        10.1690    2.7796   11.2209 H         1 RES1    0.0000
     11 C4         9.4709    4.4264   10.2383 C.3       1 RES1    0.0000
     12 H4         9.9000    5.1030    9.6698 H         1 RES1    0.0000
     13 H5         8.9800    3.9883    9.5200 H         1 RES1    0.0000
     14 C5         8.5032    5.0875   11.2275 C.3       1 RES1    0.0000
     15 C6        11.8791    2.0448    9.6544 C.2       1 RES1    0.0000
     16 H6        11.5964    1.3928   10.2669 H         1 RES1    0.0000
     17 C7        12.8422    1.6427    8.5947 C.ar      1 RES1    0.0000
     18 C8        13.3979    0.3824    8.5660 C.ar      1 RES1    0.0000
     19 H7        13.1399   -0.1960    9.2028 H         1 RES1    0.0000
     20 C9        14.2953    0.0012    7.5900 C.ar      1 RES1    0.0000
     21 H8        14.7201   -1.1081    7.5922 H         1 RES1    0.0000
     22 C10       14.6327    0.9073    6.5898 C.ar      1 RES1    0.0000
     23 C11       14.0541    2.1713    6.5810 C.ar      1 RES1    0.0000
     24 H9        14.2953    2.7298    5.8473 H         1 RES1    0.0000
     25 C12       13.1625    2.5195    7.5614 C.ar      1 RES1    0.0000
     26 H10       12.7731    3.2902    7.4909 H         1 RES1    0.0000
     27 C13       11.2968    6.0421   13.7303 C.3       1 RES1    0.0000
     28 H11       12.2688    5.6376   14.0895 H         1 RES1    0.0000
     29 H12       11.5780    6.6492   13.1002 H         1 RES1    0.0000
     30 H13       10.8475    6.3873   14.3957 H         1 RES1    0.0000
     31 C14        9.9676    3.9506   13.9705 C.3       1 RES1    0.0000
     32 H14       10.7405    3.6096   14.4177 H         1 RES1    0.0000
     33 H15        9.5027    3.0942   13.5937 H         1 RES1    0.0000
     34 H16        9.2673    4.3557   14.5257 H         1 RES1    0.0000
     35 C15       16.2829   -0.5034    5.5961 C.ar      1 RES1    0.0000
     36 C16       17.2215   -0.6430    6.5567 C.ar      1 RES1    0.0000
     37 H17       17.1989    0.1372    7.2948 H         1 RES1    0.0000
     38 C17       18.0315   -1.7302    6.5413 C.ar      1 RES1    0.0000
     39 H18       18.5835   -1.7889    7.2133 H         1 RES1    0.0000
     40 C18       17.8857   -2.6986    5.5785 C.ar      1 RES1    0.0000
     41 H19       18.4032   -3.4394    5.5917 H         1 RES1    0.0000
     42 C19       16.9584   -2.5231    4.5915 C.ar      1 RES1    0.0000
     43 H20       16.8719   -3.2122    3.8203 H         1 RES1    0.0000
     44 C20       16.1264   -1.4347    4.6047 C.ar      1 RES1    0.0000
     45 H21       15.5148   -1.2447    4.0473 H         1 RES1    0.0000
     46 C21        7.4951    4.0848   11.7937 C.3       1 RES1    0.0000
     47 H22        6.8771    4.4564   12.6376 H         1 RES1    0.0000
     48 H23        7.9041    3.3303   12.3181 H         1 RES1    0.0000
     49 H24        6.8710    3.8205   11.1702 H         1 RES1    0.0000
     50 C22        7.7708    6.2423   10.5379 C.3       1 RES1    0.0000
     51 H25        8.3901    6.8632   10.2052 H         1 RES1    0.0000
     52 H26        7.2470    5.8624    9.8373 H         1 RES1    0.0000
     53 H27        6.9749    6.6834   11.1328 H         1 RES1    0.0000
     54 O3         1.1624    9.1663   13.3082 O.2       2 RES2    0.0000
     55 O4         7.7339    3.1044    5.7241 O.3       2 RES2    0.0000
     56 N3         1.7355    8.3057   12.5886 N.3       2 RES2    0.0000
     57 N4         3.7950    5.7892    9.9455 N.2       2 RES2    0.0000
     58 C23        2.9452    7.6267   13.1663 C.3       2 RES2    0.0000
     59 C24        3.7430    6.9914   12.0140 C.3       2 RES2    0.0000
     60 H28        4.4808    6.4605   12.2784 H         2 RES2    0.0000
     61 H29        4.1507    7.6638   11.4875 H         2 RES2    0.0000
     62 C25        2.9119    6.1614   11.0490 C.3       2 RES2    0.0000
     63 H30        2.5369    5.2948   11.6659 H         2 RES2    0.0000
     64 C26        1.7981    7.0070   10.4806 C.3       2 RES2    0.0000
     65 H31        2.1823    7.6501    9.9673 H         2 RES2    0.0000
     66 H32        1.2226    6.4682    9.7690 H         2 RES2    0.0000
     67 C27        0.9017    7.6615   11.5205 C.3       2 RES2    0.0000
     68 C28        4.1073    4.5739    9.7602 C.2       2 RES2    0.0000
     69 H33        3.8023    3.8709   10.3528 H         2 RES2    0.0000
     70 C29        5.0139    4.1424    8.6828 C.ar      2 RES2    0.0000
     71 C30        5.5540    2.8653    8.6850 C.ar      2 RES2    0.0000
     72 H34        5.2083    2.1035    9.4253 H         2 RES2    0.0000
     73 C31        6.4712    2.4913    7.7222 C.ar      2 RES2    0.0000
     74 H35        6.9077    1.7098    7.7531 H         2 RES2    0.0000
     75 C32        6.8628    3.3848    6.7484 C.ar      2 RES2    0.0000
     76 C33        6.2781    4.6512    6.7176 C.ar      2 RES2    0.0000
     77 H36        6.5012    5.2115    6.0125 H         2 RES2    0.0000
     78 C34        5.3840    5.0119    7.6782 C.ar      2 RES2    0.0000
     79 H37        4.8721    5.8588    7.5856 H         2 RES2    0.0000
     80 C35        3.7940    8.7180   13.8229 C.3       2 RES2    0.0000
     81 H38        4.6184    8.4729   14.1534 H         2 RES2    0.0000
     82 H39        4.0010    9.4354   13.2941 H         2 RES2    0.0000
     83 H40        3.0779    9.2886   14.6182 H         2 RES2    0.0000
     84 C36        2.5332    6.6253   14.2106 C.3       2 RES2    0.0000
     85 H41        3.1879    6.2513   14.6403 H         2 RES2    0.0000
     86 H42        2.0265    5.8683   13.8251 H         2 RES2    0.0000
     87 H43        1.7544    6.9830   14.9355 H         2 RES2    0.0000
     88 C37        8.4561    1.9148    5.6931 C.ar      2 RES2    0.0000
     89 C38        9.3935    1.6115    6.6603 C.ar      2 RES2    0.0000
     90 H44        9.4904    2.2791    7.2882 H         2 RES2    0.0000
     91 C39       10.1152    0.4477    6.5457 C.ar      2 RES2    0.0000
     92 H45       10.7650    0.3859    7.2684 H         2 RES2    0.0000
     93 C40        9.9168   -0.3907    5.5058 C.ar      2 RES2    0.0000
     94 H46       10.4288   -1.3490    5.5256 H         2 RES2    0.0000
     95 C41        8.9983   -0.0647    4.5584 C.ar      2 RES2    0.0000
     96 H47        8.9464   -0.6742    3.8137 H         2 RES2    0.0000
     97 C42        8.2623    1.0865    4.6488 C.ar      2 RES2    0.0000
     98 H48        7.6902    1.2915    4.0539 H         2 RES2    0.0000
     99 C43       -0.0712    6.6480   12.1595 C.3       2 RES2    0.0000
    100 H49       -0.5074    6.9908   13.0958 H         2 RES2    0.0000
    101 H50        0.3698    5.7293   12.3886 H         2 RES2    0.0000
    102 H51       -0.7336    6.4203   11.5117 H         2 RES2    0.0000
    103 C44        0.1210    8.7869   10.8375 C.3       2 RES2    0.0000
    104 H52        0.6388    9.5229   10.6701 H         2 RES2    0.0000
    105 H53       -0.5991    8.3626   10.1964 H         2 RES2    0.0000
    106 H54       -0.4646    9.1561   11.4588 H         2 RES2    0.0000
@<TRIPOS>BOND
     1    1    3 1
     2    2   22 1
     3    3    5 1
     4    4    9 1
     5    5    6 1
     6    6    7 1
     7    8    6 1
     8    9    6 1
     9   10    9 1
    10   11    9 1
    11   12   11 1
    12   13   11 1
    13   14    3 1
    14   15    4 2
    15   16   15 1
    16   17   15 1
    17   18   17 ar
    18   19   18 1
    19   20   18 ar
    20   21   20 1
    21   22   20 ar
    22   23   22 ar
    23   24   23 1
    24   25   17 ar
    25   26   25 1
    26   27    5 1
    27   28   27 1
    28   29   27 1
    29   30   27 1
    30   31    5 1
    31   32   31 1
    32   33   31 1
    33   34   31 1
    34   35    2 1
    35   36   35 ar
    36   37   36 1
    37   38   36 ar
    38   39   38 1
    39   40   38 ar
    40   41   40 1
    41   42   40 ar
    42   43   42 1
    43   44   35 ar
    44   45   44 1
    45   46   14 1
    46   47   46 1
    47   48   46 1
    48   49   46 1
    49   50   14 1
    50   51   50 1
    51   52   50 1
    52   53   50 1
    53   54   56 1
    54   55   75 1
    55   56   58 1
    56   57   62 1
    57   58   59 1
    58   59   60 1
    59   61   59 1
    60   62   59 1
    61   63   62 1
    62   64   62 1
    63   65   64 1
    64   66   64 1
    65   67   56 1
    66   68   57 2
    67   69   68 1
    68   70   68 1
    69   71   70 ar
    70   72   71 1
    71   73   71 ar
    72   74   73 1
    73   75   73 ar
    74   76   75 ar
    75   77   76 1
    76   78   70 ar
    77   79   78 1
    78   80   58 1
    79   81   80 1
    80   82   80 1
    81   83   80 1
    82   84   58 1
    83   85   84 1
    84   86   84 1
    85   87   84 1
    86   88   55 1
    87   89   88 ar
    88   90   89 1
    89   91   89 ar
    90   92   91 1
    91   93   91 ar
    92   94   93 1
    93   95   93 ar
    94   96   95 1
    95   97   88 ar
    96   98   97 1
    97   99   67 1
    98  100   99 1
    99  101   99 1
   100  102   99 1
   101  103   67 1
   102  104  103 1
   103  105  103 1
   104  106  103 1
   105   11   14 1
   106   23   25 ar
   107   42   44 ar
   108   64   67 1
   109   76   78 ar
   110   95   97 ar
@<TRIPOS>SUBSTRUCTURE
     1 RES1 1
     2 RES2 54

@<TRIPOS>CRYSIN
  30.5650    5.9930   22.0320  90.0000  90.0000  90.0000  29 1

