# MOL2 file generated by ConQuest
# Please check atom types

@<TRIPOS>MOLECULE
GUGHEW
    81    84     3
SMALL
NO_CHARGES
****
Generated from CSD

@<TRIPOS>ATOM
      1 C1         4.9221    5.8111   21.9412 C.2       1 RES1    0.0000
      2 C2         4.7137    6.6795   23.1442 C.3       1 RES1    0.0000
      3 H1         4.6900    7.6087   22.8688 H         1 RES1    0.0000
      4 H2         5.4624    6.5678   23.7524 H         1 RES1    0.0000
      5 C3         3.4156    6.3367   23.8748 C.3       1 RES1    0.0000
      6 H3         3.3886    6.8340   24.7202 H         1 RES1    0.0000
      7 C4         2.1802    6.6964   23.0562 C.3       1 RES1    0.0000
      8 H4         1.3899    6.6062   23.6128 H         1 RES1    0.0000
      9 H5         2.2420    7.6223   22.7732 H         1 RES1    0.0000
     10 C5         2.0344    5.8123   21.8417 C.2       1 RES1    0.0000
     11 C6         2.2161    4.3462   22.0502 C.3       1 RES1    0.0000
     12 H6         2.3093    3.9087   21.1896 H         1 RES1    0.0000
     13 H7         1.4282    3.9854   22.4863 H         1 RES1    0.0000
     14 C7         3.4521    4.0485   22.9071 C.3       1 RES1    0.0000
     15 H8         3.4425    3.0956   23.1385 H         1 RES1    0.0000
     16 C8         4.7369    4.3417   22.1459 C.3       1 RES1    0.0000
     17 H9         5.4915    3.9876   22.6431 H         1 RES1    0.0000
     18 H10        4.7087    3.8963   21.2852 H         1 RES1    0.0000
     19 C9         3.3970    4.8469   24.1866 C.3       1 RES1    0.0000
     20 H11        4.1597    4.6214   24.7431 H         1 RES1    0.0000
     21 H12        2.5902    4.6259   24.6743 H         1 RES1    0.0000
     22 C10        4.9914   10.7641   19.2731 C.2       2 RES2    0.0000
     23 C11        4.7631   11.6347   20.4742 C.3       2 RES2    0.0000
     24 H13        5.5191   12.2324   20.5852 H         2 RES2    0.0000
     25 H14        4.7007   11.0798   21.2661 H         2 RES2    0.0000
     26 C12        3.4872   12.4579   20.3346 C.3       2 RES2    0.0000
     27 H15        3.4685   13.1052   21.0691 H         2 RES2    0.0000
     28 C13        2.2252   11.6178   20.4245 C.3       2 RES2    0.0000
     29 H16        2.2739   11.0483   21.2087 H         2 RES2    0.0000
     30 H17        1.4561   12.2008   20.5240 H         2 RES2    0.0000
     31 C14        2.0497   10.7607   19.1947 C.2       2 RES2    0.0000
     32 C15        2.2796   11.4091   17.8636 C.3       2 RES2    0.0000
     33 H18        1.5180   11.9685   17.6417 H         2 RES2    0.0000
     34 H19        2.3547   10.7235   17.1808 H         2 RES2    0.0000
     35 C16        3.5514   12.2628   17.8674 C.3       2 RES2    0.0000
     36 H20        3.5761   12.7771   17.0335 H         2 RES2    0.0000
     37 C17        4.8180   11.4103   17.9401 C.3       2 RES2    0.0000
     38 H21        4.7799   10.7235   17.2554 H         2 RES2    0.0000
     39 H22        5.5889   11.9707   17.7545 H         2 RES2    0.0000
     40 C18        3.5149   13.2417   19.0283 C.3       2 RES2    0.0000
     41 H23        2.7271   13.8033   18.9614 H         2 RES2    0.0000
     42 H24        4.2993   13.8134   19.0016 H         2 RES2    0.0000
     43 C19        2.0834    6.0423   16.1078 C.2       3 RES3    0.0000
     44 C20        2.2862    6.6502   14.7614 C.3       3 RES3    0.0000
     45 H25        2.3067    7.6166   14.8455 H         3 RES3    0.0000
     46 H26        1.5406    6.4167   14.1876 H         3 RES3    0.0000
     47 C21        3.5838    6.1754   14.1168 C.3       3 RES3    0.0000
     48 H27        3.6102    6.5002   13.1930 H         3 RES3    0.0000
     49 C22        4.8191    6.6964   14.8551 C.3       3 RES3    0.0000
     50 H28        5.6085    6.5092   14.3215 H         3 RES3    0.0000
     51 H29        4.7478    7.6595   14.9507 H         3 RES3    0.0000
     52 C23        4.9875    6.0874   16.1996 C.2       3 RES3    0.0000
     53 C24        4.8055    4.5718   16.2819 C.3       3 RES3    0.0000
     54 H30        5.5920    4.1331   15.9185 H         3 RES3    0.0000
     55 H31        4.7185    4.3090   17.2114 H         3 RES3    0.0000
     56 C25        3.5760    4.1173   15.5130 C.3       3 RES3    0.0000
     57 H32        3.5843    3.1384   15.4709 H         3 RES3    0.0000
     58 C26        2.2812    4.5571   16.2054 C.3       3 RES3    0.0000
     59 H33        1.5273    4.1060   15.7941 H         3 RES3    0.0000
     60 H34        2.3131    4.2977   17.1387 H         3 RES3    0.0000
     61 C27        3.6116    4.6530   14.0977 C.3       3 RES3    0.0000
     62 H35        2.8474    4.3192   13.6023 H         3 RES3    0.0000
     63 H36        4.4178    4.3474   13.6520 H         3 RES3    0.0000
     64 N1         5.1855    6.3660   20.8185 N.2       1 RES1    0.0000
     65 N2         1.8057    6.3547   20.7191 N.2       1 RES1    0.0000
     66 N3         5.3041    9.5371   19.3267 N.2       2 RES2    0.0000
     67 N4         1.7120    9.5225   19.2196 N.2       2 RES2    0.0000
     68 N5         1.8019    6.6896   17.1789 N.2       3 RES3    0.0000
     69 N6         5.2506    6.7099   17.2745 N.2       3 RES3    0.0000
     70 O1         5.3049    5.4288   19.7264 O.3       1 RES1    0.0000
     71 O2         1.7146    5.3928   19.6258 O.3       1 RES1    0.0000
     72 O3         5.4830    9.0657   20.6827 O.3       2 RES2    0.0000
     73 O4         1.4580    9.0466   20.5622 O.3       2 RES2    0.0000
     74 O5         1.6194    8.0925   16.9245 O.3       3 RES3    0.0000
     75 O6         5.4571    8.1218   17.0067 O.3       3 RES3    0.0000
     76 H37        1.7544    5.4243   18.4947 H         1 RES1    0.0000
     77 H38        5.5696    8.9654   17.7106 H         3 RES3    0.0000
     78 H39        5.2773    5.4131   18.5904 H         1 RES1    0.0000
     79 H40        1.5258    8.9767   17.6455 H         3 RES3    0.0000
     80 H41        1.5495    8.0632   21.1915 H         2 RES2    0.0000
     81 H42        5.4309    8.0970   21.3254 H         2 RES2    0.0000
@<TRIPOS>BOND
     1    1    2 1
     2    2    3 1
     3    4    2 1
     4    5    2 1
     5    6    5 1
     6    7    5 1
     7    8    7 1
     8    9    7 1
     9   10    7 1
    10   11   10 1
    11   12   11 1
    12   13   11 1
    13   14   11 1
    14   15   14 1
    15   16    1 1
    16   17   16 1
    17   18   16 1
    18   19    5 1
    19   20   19 1
    20   21   19 1
    21   22   23 1
    22   23   24 1
    23   25   23 1
    24   26   23 1
    25   27   26 1
    26   28   26 1
    27   29   28 1
    28   30   28 1
    29   31   28 1
    30   32   31 1
    31   33   32 1
    32   34   32 1
    33   35   32 1
    34   36   35 1
    35   37   22 1
    36   38   37 1
    37   39   37 1
    38   40   26 1
    39   41   40 1
    40   42   40 1
    41   43   44 1
    42   44   45 1
    43   46   44 1
    44   47   44 1
    45   48   47 1
    46   49   47 1
    47   50   49 1
    48   51   49 1
    49   52   49 1
    50   53   52 1
    51   54   53 1
    52   55   53 1
    53   56   53 1
    54   57   56 1
    55   58   43 1
    56   59   58 1
    57   60   58 1
    58   61   47 1
    59   62   61 1
    60   63   61 1
    61   64    1 2
    62   65   10 2
    63   66   22 2
    64   67   31 2
    65   68   43 2
    66   69   52 2
    67   70   64 1
    68   71   65 1
    69   72   66 1
    70   73   67 1
    71   74   68 1
    72   75   69 1
    73   76   71 1
    74   77   75 1
    75   78   70 1
    76   79   74 1
    77   80   73 1
    78   81   72 1
    79   14   16 1
    80   14   19 1
    81   35   37 1
    82   35   40 1
    83   56   58 1
    84   56   61 1
@<TRIPOS>SUBSTRUCTURE
     1 RES1 1
     2 RES2 22
     3 RES3 43

@<TRIPOS>CRYSIN
  12.7815   11.2772   20.0680  90.0000 107.6260  90.0000  14 1

