# MOL2 file generated by ConQuest
# Please check atom types

@<TRIPOS>MOLECULE
GUGHAS
    29    28     2
SMALL
NO_CHARGES
****
Generated from CSD

@<TRIPOS>ATOM
      1 N1         7.3157    1.5504    7.7827 N.2       1 RES1    0.0000
      2 N2         5.5032    0.9202    5.0495 N.2       1 RES1    0.0000
      3 C1         6.1074    1.9762    4.6782 C.2       1 RES1    0.0000
      4 C2         7.6564    2.5071    7.0301 C.2       1 RES1    0.0000
      5 C3         6.5874    4.2413    5.5774 C.3       1 RES1    0.0000
      6 H1         6.2303    5.1535    5.6115 H         1 RES1    0.0000
      7 C4         7.4433    1.9214    4.0194 C.3       1 RES1    0.0000
      8 H2         7.3497    2.1715    3.0861 H         1 RES1    0.0000
      9 H3         7.7794    1.0127    4.0521 H         1 RES1    0.0000
     10 C5         8.4374    2.8439    4.6853 C.3       1 RES1    0.0000
     11 H4         9.2547    2.8599    4.1432 H         1 RES1    0.0000
     12 C6         8.8039    2.3918    6.0967 C.3       1 RES1    0.0000
     13 H5         9.1025    1.4693    6.0697 H         1 RES1    0.0000
     14 H6         9.5381    2.9341    6.4254 H         1 RES1    0.0000
     15 C7         7.8742    4.2528    4.7408 C.3       1 RES1    0.0000
     16 H7         7.6810    4.5667    3.8430 H         1 RES1    0.0000
     17 H8         8.5229    4.8521    5.1406 H         1 RES1    0.0000
     18 C8         6.9036    3.7949    6.9973 C.3       1 RES1    0.0000
     19 H9         7.4293    4.4822    7.4370 H         1 RES1    0.0000
     20 H10        6.0757    3.6922    7.4910 H         1 RES1    0.0000
     21 C9         5.5535    3.3451    4.9300 C.3       1 RES1    0.0000
     22 H11        4.7772    3.2766    5.5091 H         1 RES1    0.0000
     23 H12        5.2678    3.7367    4.0906 H         1 RES1    0.0000
     24 O1         6.0664    1.7228    8.5041 O.3       1 RES1    0.0000
     25 O2         4.2047    1.1451    5.7325 O.3       1 RES1    0.0000
     26 H13        4.0162    0.2398    6.0611 H         1 RES1    0.0000
     27 H14        5.9130    0.8905    9.0063 H         1 RES1    0.0000
     28 O3         6.3111   -0.3140    4.9015 Du        2 SUP2    0.0000
     29 O4         8.1377    0.3745    7.6561 Du        2 SUP2    0.0000
@<TRIPOS>BOND
     1    1    4 2
     2    2    3 2
     3    3    7 1
     4    4   12 1
     5    5    6 1
     6    7    8 1
     7    9    7 1
     8   10    7 1
     9   11   10 1
    10   12   10 1
    11   13   12 1
    12   14   12 1
    13   15    5 1
    14   16   15 1
    15   17   15 1
    16   18    4 1
    17   19   18 1
    18   20   18 1
    19   21    3 1
    20   22   21 1
    21   23   21 1
    22   24    1 1
    23   25    2 1
    24   26   25 1
    25   27   24 1
    26    5   18 1
    27    5   21 1
    28   10   15 1
@<TRIPOS>SUBSTRUCTURE
     1 RES1 1
     2 SUP2 28

@<TRIPOS>CRYSIN
  11.7089   11.4168   14.2280  90.0000  90.0000  90.0000  61 1

