# MOL2 file generated by ConQuest
# Please check atom types

@<TRIPOS>MOLECULE
GUHBER
    39    41     1
SMALL
NO_CHARGES
****
Generated from CSD

@<TRIPOS>ATOM
      1 C1         2.2202    4.1597    2.6578 C.ar      1 RES1    0.0000
      2 C2         1.3734    3.4337    3.4663 C.ar      1 RES1    0.0000
      3 H1         1.5095    3.4128    4.4067 H         1 RES1    0.0000
      4 C3         0.3341    2.7412    2.9028 C.ar      1 RES1    0.0000
      5 H2        -0.2616    2.2429    3.4503 H         1 RES1    0.0000
      6 C4         0.1571    2.7718    1.5309 C.ar      1 RES1    0.0000
      7 H3        -0.5777    2.3155    1.1385 H         1 RES1    0.0000
      8 C5         1.0433    3.4602    0.7326 C.ar      1 RES1    0.0000
      9 H4         0.9172    3.4536   -0.2090 H         1 RES1    0.0000
     10 C6         2.1172    4.1643    1.2633 C.ar      1 RES1    0.0000
     11 C7         3.1364    4.7533    0.2937 C.3       1 RES1    0.0000
     12 H5         3.8647    5.1689    0.8385 H         1 RES1    0.0000
     13 C8         2.5277    5.8571   -0.5776 C.3       1 RES1    0.0000
     14 H6         3.1391    6.0737   -1.3257 H         1 RES1    0.0000
     15 H7         1.6658    5.5525   -0.9565 H         1 RES1    0.0000
     16 C9         3.7540    3.6116   -0.4986 C.2       1 RES1    0.0000
     17 C10        4.7196    2.8122    0.2717 C.2       1 RES1    0.0000
     18 C11        5.4794    1.7209   -0.3972 C.ar      1 RES1    0.0000
     19 C12        6.5014    1.0664    0.2693 C.ar      1 RES1    0.0000
     20 H8         6.7143    1.3050    1.1642 H         1 RES1    0.0000
     21 C13        7.2127    0.0637   -0.3693 C.ar      1 RES1    0.0000
     22 H9         7.9225   -0.3734    0.0872 H         1 RES1    0.0000
     23 C14        6.8964   -0.3095   -1.6642 C.ar      1 RES1    0.0000
     24 H10        7.3829   -1.0042   -2.0925 H         1 RES1    0.0000
     25 C15        5.8680    0.3341   -2.3361 C.ar      1 RES1    0.0000
     26 H11        5.6427    0.0752   -3.2208 H         1 RES1    0.0000
     27 C16        5.1675    1.3548   -1.7131 C.ar      1 RES1    0.0000
     28 C17        4.1159    2.0862   -2.4398 C.2       1 RES1    0.0000
     29 C18        3.4783    3.2599   -1.7767 C.2       1 RES1    0.0000
     30 N1         3.2547    4.9459    3.3444 N.pl3     1 RES1    0.0000
     31 N2         2.3133    7.0668    0.2731 N.pl3     1 RES1    0.0000
     32 O1         3.6265    5.9995    2.8419 O.2       1 RES1    0.0000
     33 O2         3.6684    4.5453    4.4238 O.2       1 RES1    0.0000
     34 O3         3.2557    7.8122    0.4498 O.2       1 RES1    0.0000
     35 O4         1.2159    7.2122    0.7860 O.2       1 RES1    0.0000
     36 O5         4.8912    3.0569    1.4573 O.2       1 RES1    0.0000
     37 O6         3.7580    1.8016   -3.5648 O.2       1 RES1    0.0000
     38 O7         2.6206    3.9424   -2.5312 O.3       1 RES1    0.0000
     39 H12        1.8523    3.6116   -2.4515 H         1 RES1    0.0000
@<TRIPOS>BOND
     1    1    2 ar
     2    2    3 1
     3    4    2 ar
     4    5    4 1
     5    6    4 ar
     6    7    6 1
     7    8    6 ar
     8    9    8 1
     9   10    1 ar
    10   11   10 1
    11   12   11 1
    12   13   11 1
    13   14   13 1
    14   15   13 1
    15   16   11 1
    16   17   16 1
    17   18   17 1
    18   19   18 ar
    19   20   19 1
    20   21   19 ar
    21   22   21 1
    22   23   21 ar
    23   24   23 1
    24   25   23 ar
    25   26   25 1
    26   27   18 ar
    27   28   27 1
    28   29   16 2
    29   30    1 1
    30   31   13 1
    31   32   30 2
    32   33   30 2
    33   34   31 2
    34   35   31 2
    35   36   17 2
    36   37   28 2
    37   38   29 1
    38   39   38 1
    39    8   10 ar
    40   25   27 ar
    41   28   29 1
@<TRIPOS>SUBSTRUCTURE
     1 RES1 1

@<TRIPOS>CRYSIN
   9.7443   12.7438   13.2260  90.0000 104.2070  90.0000 231 1

