# MOL2 file generated by ConQuest
# Please check atom types

@<TRIPOS>MOLECULE
GUHCOC
    45    47     1
SMALL
NO_CHARGES
****
Generated from CSD

@<TRIPOS>ATOM
      1 O1         1.4237    7.2427    6.7249 O.3       1 RES1    0.0000
      2 O2        -5.4225    2.7779   -1.4161 O.2       1 RES1    0.0000
      3 O3        -4.7950    2.9449   -3.4685 O.2       1 RES1    0.0000
      4 N1         1.3667    6.4242    1.2389 N.2       1 RES1    0.0000
      5 N2         0.3190    5.8317    0.8011 N.2       1 RES1    0.0000
      6 N3         1.1006    5.9223   -1.5157 N.2       1 RES1    0.0000
      7 N4         2.2067    6.5840   -1.2142 N.pl3     1 RES1    0.0000
      8 H1         2.4051    6.7547   -0.3732 H         1 RES1    0.0000
      9 N5        -4.6049    3.0914   -2.2640 N.pl3     1 RES1    0.0000
     10 C1         2.5669    7.7815    7.3812 C.3       1 RES1    0.0000
     11 H2         2.4336    7.7462    8.3507 H         1 RES1    0.0000
     12 H3         2.6945    8.7126    7.1029 H         1 RES1    0.0000
     13 H4         3.3588    7.2575    7.1411 H         1 RES1    0.0000
     14 C2         1.4902    7.0940    5.3693 C.ar      1 RES1    0.0000
     15 C3         0.3563    6.5214    4.8040 C.ar      1 RES1    0.0000
     16 H5        -0.3749    6.2785    5.3603 H         1 RES1    0.0000
     17 C4         0.2828    6.3065    3.4640 C.ar      1 RES1    0.0000
     18 H6        -0.5043    5.9296    3.0871 H         1 RES1    0.0000
     19 C5         1.3652    6.6414    2.6363 C.ar      1 RES1    0.0000
     20 C6         2.4965    7.2184    3.1995 C.ar      1 RES1    0.0000
     21 H7         3.2272    7.4599    2.6442 H         1 RES1    0.0000
     22 C7         2.5682    7.4459    4.5657 C.ar      1 RES1    0.0000
     23 H8         3.3456    7.8382    4.9466 H         1 RES1    0.0000
     24 C8         0.2493    5.5896   -0.5608 C.2       1 RES1    0.0000
     25 C9         3.0566    7.0087   -2.2379 C.ar      1 RES1    0.0000
     26 C10        2.8172    6.6789   -3.5701 C.ar      1 RES1    0.0000
     27 H9         2.0521    6.1666   -3.8044 H         1 RES1    0.0000
     28 C11        3.7003    7.1021   -4.5497 C.ar      1 RES1    0.0000
     29 H10        3.5517    6.8570   -5.4547 H         1 RES1    0.0000
     30 C12        4.7957    7.8779   -4.2219 C.ar      1 RES1    0.0000
     31 H11        5.3867    8.1797   -4.9016 H         1 RES1    0.0000
     32 C13        5.0291    8.2136   -2.8938 C.ar      1 RES1    0.0000
     33 H12        5.7814    8.7472   -2.6667 H         1 RES1    0.0000
     34 C14        4.1717    7.7764   -1.8995 C.ar      1 RES1    0.0000
     35 H13        4.3410    7.9972   -0.9916 H         1 RES1    0.0000
     36 C15       -0.9842    4.8999   -0.9988 C.ar      1 RES1    0.0000
     37 C16       -2.0315    4.6747   -0.0884 C.ar      1 RES1    0.0000
     38 H14       -1.9315    4.9455    0.8162 H         1 RES1    0.0000
     39 C17       -3.2018    4.0659   -0.4904 C.ar      1 RES1    0.0000
     40 H15       -3.8959    3.8944    0.1349 H         1 RES1    0.0000
     41 C18       -3.3463    3.7090   -1.8167 C.ar      1 RES1    0.0000
     42 C19       -2.3395    3.9165   -2.7404 C.ar      1 RES1    0.0000
     43 H16       -2.4555    3.6604   -3.6470 H         1 RES1    0.0000
     44 C20       -1.1604    4.5024   -2.3202 C.ar      1 RES1    0.0000
     45 H17       -0.4582    4.6371   -2.9455 H         1 RES1    0.0000
@<TRIPOS>BOND
     1    1   10 1
     2    2    9 2
     3    3    9 2
     4    4    5 2
     5    5   24 1
     6    6    7 1
     7    7    8 1
     8    9   41 1
     9   10   11 1
    10   12   10 1
    11   13   10 1
    12   14    1 1
    13   15   14 ar
    14   16   15 1
    15   17   15 ar
    16   18   17 1
    17   19    4 1
    18   20   19 ar
    19   21   20 1
    20   22   14 ar
    21   23   22 1
    22   24    6 2
    23   25    7 1
    24   26   25 ar
    25   27   26 1
    26   28   26 ar
    27   29   28 1
    28   30   28 ar
    29   31   30 1
    30   32   30 ar
    31   33   32 1
    32   34   25 ar
    33   35   34 1
    34   36   24 1
    35   37   36 ar
    36   38   37 1
    37   39   37 ar
    38   40   39 1
    39   41   39 ar
    40   42   41 ar
    41   43   42 1
    42   44   36 ar
    43   45   44 1
    44   17   19 ar
    45   20   22 ar
    46   32   34 ar
    47   42   44 ar
@<TRIPOS>SUBSTRUCTURE
     1 RES1 1

@<TRIPOS>CRYSIN
  21.9240    7.3605   22.4845  90.0000  90.0000  90.0000  61 1

