# MOL2 file generated by ConQuest
# Please check atom types

@<TRIPOS>MOLECULE
GUHCIW
    42    43     2
SMALL
NO_CHARGES
****
Generated from CSD

@<TRIPOS>ATOM
      1 C1         3.6019    3.1982    5.2704 C.ar      1 RES1    0.0000
      2 H1         3.9791    3.2785    6.1381 H         1 RES1    0.0000
      3 C2         2.5196    2.3630    5.0558 C.ar      1 RES1    0.0000
      4 H2         2.1655    1.8575    5.7784 H         1 RES1    0.0000
      5 C3         1.9494    2.2547    3.8010 C.ar      1 RES1    0.0000
      6 H3         1.2070    1.6794    3.6600 H         1 RES1    0.0000
      7 C4         2.4710    2.9944    2.7493 C.ar      1 RES1    0.0000
      8 C5         3.5717    3.8177    2.9477 C.ar      1 RES1    0.0000
      9 H4         3.9392    4.3087    2.2215 H         1 RES1    0.0000
     10 C6         4.1303    3.9156    4.2129 C.ar      1 RES1    0.0000
     11 H5         4.8810    4.4804    4.3549 H         1 RES1    0.0000
     12 C7         0.2460    2.2049    0.0875 C.2       1 RES1    0.0000
     13 C8         2.1073    4.1579   -2.2305 C.ar      1 RES1    0.0000
     14 C9         1.2906    4.2574   -3.3522 C.ar      1 RES1    0.0000
     15 H6         0.4477    3.8193   -3.3734 H         1 RES1    0.0000
     16 C10        1.7217    5.0044   -4.4377 C.ar      1 RES1    0.0000
     17 H7         1.1706    5.0822   -5.2071 H         1 RES1    0.0000
     18 C11        2.9542    5.6391   -4.4034 C.ar      1 RES1    0.0000
     19 H8         3.2413    6.1550   -5.1472 H         1 RES1    0.0000
     20 C12        3.7602    5.5251   -3.2989 C.ar      1 RES1    0.0000
     21 H9         4.6060    5.9560   -3.2835 H         1 RES1    0.0000
     22 C13        3.3471    4.7877   -2.2100 C.ar      1 RES1    0.0000
     23 H10        3.9082    4.7107   -1.4479 H         1 RES1    0.0000
     24 C14       -0.9846    1.3881    0.0302 C.ar      1 RES1    0.0000
     25 C15       -1.4410    0.7149    1.1632 C.ar      1 RES1    0.0000
     26 H11       -0.9775    0.8136    1.9873 H         1 RES1    0.0000
     27 C16       -2.5625   -0.0971    1.1029 C.ar      1 RES1    0.0000
     28 H12       -2.8662   -0.5584    1.8768 H         1 RES1    0.0000
     29 C17       -3.2294   -0.2255   -0.0940 C.ar      1 RES1    0.0000
     30 C18       -2.8189    0.4437   -1.2297 C.ar      1 RES1    0.0000
     31 H13       -3.2960    0.3506   -2.0454 H         1 RES1    0.0000
     32 C19       -1.7019    1.2517   -1.1572 C.ar      1 RES1    0.0000
     33 H14       -1.4167    1.7235   -1.9311 H         1 RES1    0.0000
     34 N1         1.9297    2.9423    1.4453 N.pl3     1 RES1    0.0000
     35 H15        2.2686    3.3780    0.7492 H         1 RES1    0.0000
     36 N2         0.8309    2.2668    1.3085 N.2       1 RES1    0.0000
     37 N3         0.6212    2.7922   -1.0699 N.2       1 RES1    0.0000
     38 N4         1.7316    3.4784   -1.0570 N.2       1 RES1    0.0000
     39 N5        -4.3769   -1.1305   -0.1712 N.pl3     1 RES1    0.0000
     40 O1        -4.6404   -1.8302    0.8037 O.2       1 RES1    0.0000
     41 O2        -5.0268   -1.1530   -1.2119 O.2       1 RES1    0.0000
     42 H16        2.3054    3.5545   -0.3746 Du        2 SUP2    0.0000
@<TRIPOS>BOND
     1    1    2 1
     2    3    1 ar
     3    4    3 1
     4    5    3 ar
     5    6    5 1
     6    7    5 ar
     7    8    7 ar
     8    9    8 1
     9   10    1 ar
    10   11   10 1
    11   12   24 1
    12   13   14 ar
    13   14   15 1
    14   16   14 ar
    15   17   16 1
    16   18   16 ar
    17   19   18 1
    18   20   18 ar
    19   21   20 1
    20   22   13 ar
    21   23   22 1
    22   24   25 ar
    23   25   26 1
    24   27   25 ar
    25   28   27 1
    26   29   27 ar
    27   30   29 ar
    28   31   30 1
    29   32   24 ar
    30   33   32 1
    31   34    7 1
    32   35   34 1
    33   36   12 2
    34   37   12 1
    35   38   13 1
    36   39   29 1
    37   40   39 2
    38   41   39 2
    39    8   10 ar
    40   20   22 ar
    41   30   32 ar
    42   34   36 1
    43   37   38 2
@<TRIPOS>SUBSTRUCTURE
     1 RES1 1
     2 SUP2 42

@<TRIPOS>CRYSIN
  11.0070    8.0237   18.9693  90.0000  99.0970  90.0000  14 1

