# MOL2 file generated by ConQuest
# Please check atom types

@<TRIPOS>MOLECULE
GUHDOC
    50    52     1
SMALL
NO_CHARGES
****
Generated from CSD

@<TRIPOS>ATOM
      1 O1         7.7641    3.4542   -0.7277 O.2       1 RES1    0.0000
      2 O2         7.3155    1.6126    0.2525 O.2       1 RES1    0.0000
      3 O3        -2.6273    3.9026    4.7049 O.3       1 RES1    0.0000
      4 O4        -0.4202    2.8484    3.6783 O.3       1 RES1    0.0000
      5 O5         0.7418    3.1633    5.5660 O.2       1 RES1    0.0000
      6 N1         7.0586    2.7613   -0.0249 N.pl3     1 RES1    0.0000
      7 N2         2.2835    5.0717    1.8481 N.2       1 RES1    0.0000
      8 N3         1.4947    4.3410    2.4677 N.2       1 RES1    0.0000
      9 C1         5.8004    3.3467    0.4876 C.ar      1 RES1    0.0000
     10 C2         5.5246    4.6570    0.2239 C.ar      1 RES1    0.0000
     11 H1         6.1183    5.1771   -0.2675 H         1 RES1    0.0000
     12 C3         4.3545    5.1885    0.6991 C.ar      1 RES1    0.0000
     13 H2         4.1519    6.0821    0.5411 H         1 RES1    0.0000
     14 C4         3.4800    4.4013    1.4070 C.ar      1 RES1    0.0000
     15 C5         3.7779    3.0743    1.6682 C.ar      1 RES1    0.0000
     16 H3         3.1815    2.5472    2.1509 H         1 RES1    0.0000
     17 C6         4.9505    2.5423    1.2141 C.ar      1 RES1    0.0000
     18 H4         5.1708    1.6557    1.3908 H         1 RES1    0.0000
     19 C7         0.3046    5.0194    2.9135 C.ar      1 RES1    0.0000
     20 C8         0.0414    6.3598    2.7219 C.ar      1 RES1    0.0000
     21 H5         0.6690    6.8932    2.2890 H         1 RES1    0.0000
     22 C9        -1.1379    6.9197    3.1623 C.ar      1 RES1    0.0000
     23 C10       -2.0483    6.1091    3.8378 C.ar      1 RES1    0.0000
     24 H6        -2.8394    6.4798    4.1562 H         1 RES1    0.0000
     25 C11       -1.8036    4.7727    4.0455 C.ar      1 RES1    0.0000
     26 C12       -0.6175    4.2224    3.5666 C.ar      1 RES1    0.0000
     27 C13        0.2983    2.4091    4.7459 C.2       1 RES1    0.0000
     28 C14        0.4346    0.9396    4.7471 C.ar      1 RES1    0.0000
     29 C15        0.9114    0.3345    5.8978 C.ar      1 RES1    0.0000
     30 H7         1.1856    0.8580    6.6169 H         1 RES1    0.0000
     31 C16        0.9831   -1.0388    5.9862 C.ar      1 RES1    0.0000
     32 H8         1.2951   -1.4412    6.7637 H         1 RES1    0.0000
     33 C17        0.5943   -1.8065    4.9238 C.ar      1 RES1    0.0000
     34 H9         0.6297   -2.7327    4.9885 H         1 RES1    0.0000
     35 C18        0.1533   -1.2274    3.7668 C.ar      1 RES1    0.0000
     36 H10       -0.0828   -1.7607    3.0416 H         1 RES1    0.0000
     37 C19        0.0567    0.1557    3.6735 C.ar      1 RES1    0.0000
     38 H11       -0.2604    0.5519    2.8936 H         1 RES1    0.0000
     39 C20       -1.4399    8.3730    2.9085 C.3       1 RES1    0.0000
     40 H12       -0.9101    8.6695    2.1521 H         1 RES1    0.0000
     41 H13       -2.3740    8.4550    2.6597 H         1 RES1    0.0000
     42 C21       -1.1874    9.2362    4.0032 C.2       1 RES1    0.0000
     43 H14       -1.6030    8.9555    4.7869 H         1 RES1    0.0000
     44 C22       -0.5337   10.2850    4.1525 C.2       1 RES1    0.0000
     45 H15       -0.0770   10.6559    3.4310 H         1 RES1    0.0000
     46 H16       -0.5022   10.6984    4.9847 H         1 RES1    0.0000
     47 C23       -3.8690    4.4103    5.2049 C.3       1 RES1    0.0000
     48 H17       -4.3499    3.7047    5.6428 H         1 RES1    0.0000
     49 H18       -4.3930    4.7481    4.4747 H         1 RES1    0.0000
     50 H19       -3.6968    5.1168    5.8306 H         1 RES1    0.0000
@<TRIPOS>BOND
     1    1    6 2
     2    2    6 2
     3    3   25 1
     4    4   26 1
     5    5   27 2
     6    6    9 1
     7    7    8 2
     8    8   19 1
     9    9   10 ar
    10   10   11 1
    11   12   10 ar
    12   13   12 1
    13   14    7 1
    14   15   14 ar
    15   16   15 1
    16   17    9 ar
    17   18   17 1
    18   19   20 ar
    19   20   21 1
    20   22   20 ar
    21   23   22 ar
    22   24   23 1
    23   25   23 ar
    24   26   19 ar
    25   27    4 1
    26   28   27 1
    27   29   28 ar
    28   30   29 1
    29   31   29 ar
    30   32   31 1
    31   33   31 ar
    32   34   33 1
    33   35   33 ar
    34   36   35 1
    35   37   28 ar
    36   38   37 1
    37   39   22 1
    38   40   39 1
    39   41   39 1
    40   42   39 1
    41   43   42 1
    42   44   42 2
    43   45   44 1
    44   46   44 1
    45   47    3 1
    46   48   47 1
    47   49   47 1
    48   50   47 1
    49   12   14 ar
    50   15   17 ar
    51   25   26 ar
    52   35   37 ar
@<TRIPOS>SUBSTRUCTURE
     1 RES1 1

@<TRIPOS>CRYSIN
   7.7564   22.3441   12.5552  90.0000  97.7660  90.0000 231 1

