# MOL2 file generated by ConQuest
# Please check atom types

@<TRIPOS>MOLECULE
GUHJAW
    80    82     2
SMALL
NO_CHARGES
****
Generated from CSD

@<TRIPOS>ATOM
      1 O1         3.4995    2.3655   11.3940 O.3       1 RES1    0.0000
      2 O2         4.7084    0.7347   10.4306 O.2       1 RES1    0.0000
      3 O3         1.0631   -1.0546    9.3089 O.3       1 RES1    0.0000
      4 O4         0.6398    3.0244    6.6382 O.3       1 RES1    0.0000
      5 H1         1.2473    3.5291    6.4177 H         1 RES1    0.0000
      6 C1        -0.1294   -0.4212    9.5723 C.2       1 RES1    0.0000
      7 N1         0.9223    2.4706    7.9351 N.2       1 RES1    0.0000
      8 C2         4.3545    4.2447   12.5476 C.3       1 RES1    0.0000
      9 H2         4.0658    4.7966   11.8180 H         1 RES1    0.0000
     10 H3         5.1313    4.6347   12.9564 H         1 RES1    0.0000
     11 H4         3.6511    4.1804   13.1983 H         1 RES1    0.0000
     12 C3         4.6896    2.8848   12.0410 C.3       1 RES1    0.0000
     13 H5         5.4232    2.9326   11.4086 H         1 RES1    0.0000
     14 H6         4.9526    2.3075   12.7765 H         1 RES1    0.0000
     15 C4         3.6302    1.2484   10.6632 C.2       1 RES1    0.0000
     16 C5         2.3253    0.7469   10.2277 C.2       1 RES1    0.0000
     17 C6         1.0631    1.5001   10.6080 C.3       1 RES1    0.0000
     18 H7         1.2282    2.4579   10.4842 H         1 RES1    0.0000
     19 C7         0.6248    1.2713   12.0398 C.ar      1 RES1    0.0000
     20 C8        -0.0447    2.2814   12.7129 C.ar      1 RES1    0.0000
     21 H8        -0.1627    3.1104   12.3081 H         1 RES1    0.0000
     22 C9        -0.5423    2.0526   13.9974 C.ar      1 RES1    0.0000
     23 H9        -1.0049    2.7281   14.4391 H         1 RES1    0.0000
     24 C10       -0.3557    0.8475   14.6128 C.ar      1 RES1    0.0000
     25 H10       -0.6779    0.7099   15.4751 H         1 RES1    0.0000
     26 C11        2.2549   -0.4340    9.6011 C.2       1 RES1    0.0000
     27 H11        3.0465   -0.8533    9.3520 H         1 RES1    0.0000
     28 C12       -0.0860    1.0821    9.6700 C.3       1 RES1    0.0000
     29 H12       -0.9219    1.3688   10.0934 H         1 RES1    0.0000
     30 C13        0.7959    0.0548   12.6893 C.ar      1 RES1    0.0000
     31 H13        1.2537   -0.6302   12.2554 H         1 RES1    0.0000
     32 C14       -0.0534    1.6919    8.2788 C.2       1 RES1    0.0000
     33 N2        -1.1216    1.4504    7.5092 N.3       1 RES1    0.0000
     34 H14       -1.1883    1.8219    6.7372 H         1 RES1    0.0000
     35 H15       -1.7418    0.9240    7.7887 H         1 RES1    0.0000
     36 C15        0.3062   -0.1612   13.9555 C.ar      1 RES1    0.0000
     37 H16        0.4243   -0.9871   14.3677 H         1 RES1    0.0000
     38 N3        -1.2555   -1.0037    9.7627 N.2       1 RES1    0.0000
     39 O5        -1.0961   -2.4069    9.7084 O.3       1 RES1    0.0000
     40 H17       -1.8184   -2.7701    9.8483 H         1 RES1    0.0000
     41 O6         8.6527    5.5160    3.1664 O.3       2 RES2    0.0000
     42 O7         7.4837    3.8605    4.0947 O.2       2 RES2    0.0000
     43 N4        11.2709    5.6906    6.6804 N.2       2 RES2    0.0000
     44 O8        11.5529    6.2336    7.9875 O.3       2 RES2    0.0000
     45 H18       10.8958    6.6382    8.2633 H         2 RES2    0.0000
     46 C16       12.3297    2.7969    5.0275 C.2       2 RES2    0.0000
     47 C17       12.2639    4.3033    4.9415 C.3       2 RES2    0.0000
     48 H19       13.0922    4.6054    4.5132 H         2 RES2    0.0000
     49 C18       11.0917    4.7341    4.0271 C.3       2 RES2    0.0000
     50 H20       10.9006    5.6792    4.2030 H         2 RES2    0.0000
     51 C19        9.8504    3.9376    4.3575 C.2       2 RES2    0.0000
     52 C20        8.5397    4.4015    3.9037 C.2       2 RES2    0.0000
     53 C21        7.4682    5.9991    2.4942 C.3       2 RES2    0.0000
     54 H21        6.7471    6.1208    3.1329 H         2 RES2    0.0000
     55 H22        7.1809    5.3625    1.8208 H         2 RES2    0.0000
     56 C22        7.8157    7.2901    1.8620 C.3       2 RES2    0.0000
     57 H23        7.8955    7.9663    2.5373 H         2 RES2    0.0000
     58 H24        7.1251    7.5387    1.2407 H         2 RES2    0.0000
     59 H25        8.6500    7.2041    1.3958 H         2 RES2    0.0000
     60 C23       12.2347    4.9062    6.3309 C.2       2 RES2    0.0000
     61 N5        13.2939    4.6296    7.1063 N.3       2 RES2    0.0000
     62 H26       13.3585    4.9827    7.8880 H         2 RES2    0.0000
     63 H27       13.9072    4.0988    6.8209 H         2 RES2    0.0000
     64 O9        11.1334    2.1545    5.2958 O.3       2 RES2    0.0000
     65 C24        9.9362    2.7523    4.9676 C.2       2 RES2    0.0000
     66 H28        9.1476    2.3088    5.1801 H         2 RES2    0.0000
     67 C25       11.5343    4.6035    2.5662 C.ar      2 RES2    0.0000
     68 C26       11.4381    3.4157    1.8859 C.ar      2 RES2    0.0000
     69 H29       11.0202    2.6879    2.2861 H         2 RES2    0.0000
     70 C27       11.9613    3.2895    0.5965 C.ar      2 RES2    0.0000
     71 H30       11.9150    2.4744    0.1520 H         2 RES2    0.0000
     72 C28       12.5514    4.3868   -0.0174 C.ar      2 RES2    0.0000
     73 H31       12.8848    4.3186   -0.8840 H         2 RES2    0.0000
     74 C29       12.6376    5.5562    0.6588 C.ar      2 RES2    0.0000
     75 H32       13.0411    6.2897    0.2544 H         2 RES2    0.0000
     76 C30       12.1351    5.6804    1.9386 C.ar      2 RES2    0.0000
     77 H33       12.2021    6.4949    2.3822 H         2 RES2    0.0000
     78 N6        13.4519    2.2329    4.8451 N.2       2 RES2    0.0000
     79 O10       13.3081    0.8291    4.9018 O.3       2 RES2    0.0000
     80 H34       13.9950    0.4728    4.6310 H         2 RES2    0.0000
@<TRIPOS>BOND
     1    1   12 1
     2    2   15 2
     3    3    6 1
     4    4    5 1
     5    6   28 1
     6    7    4 1
     7    8    9 1
     8   10    8 1
     9   11    8 1
    10   12    8 1
    11   13   12 1
    12   14   12 1
    13   15    1 1
    14   16   15 1
    15   17   16 1
    16   18   17 1
    17   19   17 1
    18   20   19 ar
    19   21   20 1
    20   22   20 ar
    21   23   22 1
    22   24   22 ar
    23   25   24 1
    24   26    3 1
    25   27   26 1
    26   28   17 1
    27   29   28 1
    28   30   19 ar
    29   31   30 1
    30   32    7 2
    31   33   32 1
    32   34   33 1
    33   35   33 1
    34   36   24 ar
    35   37   36 1
    36   38    6 2
    37   39   38 1
    38   40   39 1
    39   41   52 1
    40   42   52 2
    41   43   44 1
    42   44   45 1
    43   46   47 1
    44   47   48 1
    45   49   47 1
    46   50   49 1
    47   51   49 1
    48   52   51 1
    49   53   41 1
    50   54   53 1
    51   55   53 1
    52   56   53 1
    53   57   56 1
    54   58   56 1
    55   59   56 1
    56   60   43 2
    57   61   60 1
    58   62   61 1
    59   63   61 1
    60   64   46 1
    61   65   51 2
    62   66   65 1
    63   67   49 1
    64   68   67 ar
    65   69   68 1
    66   70   68 ar
    67   71   70 1
    68   72   70 ar
    69   73   72 1
    70   74   72 ar
    71   75   74 1
    72   76   67 ar
    73   77   76 1
    74   78   46 2
    75   79   78 1
    76   80   79 1
    77   16   26 2
    78   28   32 1
    79   30   36 ar
    80   47   60 1
    81   64   65 1
    82   74   76 ar
@<TRIPOS>SUBSTRUCTURE
     1 RES1 1
     2 RES2 41

@<TRIPOS>CRYSIN
  15.9505    6.3725   31.0184  90.0000  90.0000  90.0000  33 1

