# MOL2 file generated by ConQuest
# Please check atom types

@<TRIPOS>MOLECULE
GUHPUW
    52    47     2
SMALL
NO_CHARGES
****
Generated from CSD

@<TRIPOS>ATOM
      1 O1         6.6694    1.3229   11.3142 O.3       1 RES1    0.0000
      2 C1         7.1618    2.1154   10.1871 C.3       1 RES1    0.0000
      3 H1         6.4051    2.4525    9.6823 H         1 RES1    0.0000
      4 H2         7.6560    2.8773   10.5266 H         1 RES1    0.0000
      5 C2         8.0127    1.3542    9.3100 C.3       1 RES1    0.0000
      6 H3         8.4419    1.9463    8.6876 H         1 RES1    0.0000
      7 H4         7.4844    0.7130    8.8290 H         1 RES1    0.0000
      8 H5         8.6787    0.8967    9.8267 H         1 RES1    0.0000
      9 C3         4.9491    0.5480   13.6794 C.ar      1 RES1    0.0000
     10 C4         4.8168   -2.2100   13.4148 C.ar      1 RES1    0.0000
     11 C5         5.0511   -1.4234   12.2895 C.ar      1 RES1    0.0000
     12 C6         4.6389   -1.6484   14.7030 C.ar      1 RES1    0.0000
     13 C7         5.1368   -0.0299   12.4294 C.ar      1 RES1    0.0000
     14 C8         4.6882   -0.2463   14.8031 C.ar      1 RES1    0.0000
     15 C9         5.2017   -2.0702   10.9525 C.ar      1 RES1    0.0000
     16 C10        6.4048   -2.0291   10.2781 C.ar      1 RES1    0.0000
     17 H6         7.1339   -1.5952   10.6592 H         1 RES1    0.0000
     18 C11        4.1290   -2.7206   10.3837 C.ar      1 RES1    0.0000
     19 H7         3.3159   -2.7539   10.8349 H         1 RES1    0.0000
     20 C12        5.4486   -3.2592    8.5074 C.ar      1 RES1    0.0000
     21 C13        6.5329   -2.6268    9.0420 C.ar      1 RES1    0.0000
     22 H8         7.3406   -2.5992    8.5818 H         1 RES1    0.0000
     23 C14        4.2539   -3.3261    9.1458 C.ar      1 RES1    0.0000
     24 H9         3.5333   -3.7706    8.7590 H         1 RES1    0.0000
     25 C15        5.4690    0.7836   11.2106 C.2       1 RES1    0.0000
     26 C16        4.4343    0.3141   16.1034 C.1       1 RES1    0.0000
     27 C17        4.7681   -3.6393   13.3134 C.1       1 RES1    0.0000
     28 C18        4.9933    2.0390   13.8855 C.2       1 RES1    0.0000
     29 C19        4.6112    4.1672   12.9573 C.3       1 RES1    0.0000
     30 H10        3.9263    4.4572   13.5793 H         1 RES1    0.0000
     31 H11        5.4730    4.4592   13.2949 H         1 RES1    0.0000
     32 N1         4.4041   -2.4175   15.7818 N.3       1 RES1    0.0000
     33 H12        4.2810   -2.0529   16.5501 H         1 RES1    0.0000
     34 H13        4.3778   -3.2728   15.7028 H         1 RES1    0.0000
     35 N2         4.1839    0.6266   17.1692 N.1       1 RES1    0.0000
     36 N3         4.7292   -4.7830   13.2991 N.1       1 RES1    0.0000
     37 N4         5.5909   -3.9042    7.1829 N.pl3     1 RES1    0.0000
     38 O2         4.5919    2.7052   12.8369 O.3       1 RES1    0.0000
     39 O3         5.3594    2.5367   14.9142 O.2       1 RES1    0.0000
     40 O4         4.7541    0.8834   10.2558 O.2       1 RES1    0.0000
     41 O5         6.6278   -3.7726    6.5812 O.2       1 RES1    0.0000
     42 O6         4.6590   -4.5632    6.7700 O.2       1 RES1    0.0000
     43 C20        4.3701    4.7538   11.6479 C.3       1 RES1    0.0000
     44 H14        5.1174    4.5724   11.0731 H         1 RES1    0.0000
     45 H15        4.2578    5.7027   11.7373 H         1 RES1    0.0000
     46 H16        3.5751    4.3716   11.2682 H         1 RES1    0.0000
     47 H17        7.1502    1.5707    9.3845 Du        2 SUP2    0.0000
     48 H18        6.5731    2.8730   10.0442 Du        2 SUP2    0.0000
     49 C21        8.4070    2.5261   10.3867 Du        2 SUP2    0.0000
     50 H19        8.9429    1.7901   10.6934 Du        2 SUP2    0.0000
     51 H20        8.4130    3.2218   11.0478 Du        2 SUP2    0.0000
     52 H21        8.7693    2.8638    9.5647 Du        2 SUP2    0.0000
@<TRIPOS>BOND
     1    1    2 1
     2    2    3 1
     3    4    2 1
     4    5    2 1
     5    6    5 1
     6    7    5 1
     7    8    5 1
     8    9   13 ar
     9   10   11 ar
    10   11   13 ar
    11   12   10 ar
    12   13   25 1
    13   14    9 ar
    14   15   11 1
    15   16   15 ar
    16   17   16 1
    17   18   15 ar
    18   19   18 1
    19   20   21 ar
    20   21   16 ar
    21   22   21 1
    22   23   18 ar
    23   24   23 1
    24   25    1 1
    25   26   14 1
    26   27   10 1
    27   28    9 1
    28   29   30 1
    29   31   29 1
    30   32   12 1
    31   33   32 1
    32   34   32 1
    33   35   26 3
    34   36   27 3
    35   37   20 1
    36   38   28 1
    37   39   28 2
    38   40   25 2
    39   41   37 2
    40   42   37 2
    41   43   29 1
    42   44   43 1
    43   45   43 1
    44   46   43 1
    45   12   14 ar
    46   20   23 ar
    47   29   38 1
@<TRIPOS>SUBSTRUCTURE
     1 RES1 1
     2 SUP2 47

@<TRIPOS>CRYSIN
   7.1018   10.3661   15.1783  87.2300  78.8840  70.4530   2 1

