# MOL2 file generated by ConQuest
# Please check atom types

@<TRIPOS>MOLECULE
GUJKOL
    40    42     1
SMALL
NO_CHARGES
****
Generated from CSD

@<TRIPOS>ATOM
      1 O1         4.6639    1.7343    7.6099 O.3       1 RES1    0.0000
      2 N1         3.6849    2.7868    7.6184 N.2       1 RES1    0.0000
      3 C1         2.9251    2.4533    8.6171 C.2       1 RES1    0.0000
      4 N2         3.2941    1.3056    9.2900 N.2       1 RES1    0.0000
      5 C2         4.3501    0.9100    8.6289 C.2       1 RES1    0.0000
      6 C3         5.1790   -0.2680    8.8335 C.ar      1 RES1    0.0000
      7 C4         4.9217   -1.0991    9.9147 C.ar      1 RES1    0.0000
      8 C5         5.7199   -2.2386   10.1043 C.ar      1 RES1    0.0000
      9 C6         6.7554   -2.5107    9.2096 C.ar      1 RES1    0.0000
     10 C7         6.9877   -1.6986    8.1392 C.ar      1 RES1    0.0000
     11 C8         6.2136   -0.5597    7.9292 C.ar      1 RES1    0.0000
     12 C9         1.6884    3.2283    8.9492 C.3       1 RES1    0.0000
     13 C10        0.4120    2.6106    8.3492 C.3       1 RES1    0.0000
     14 O2        -0.5416    3.6631    8.4992 O.3       1 RES1    0.0000
     15 C11        0.1304    4.9350    8.3010 C.3       1 RES1    0.0000
     16 C12        1.6377    4.6548    8.4039 C.3       1 RES1    0.0000
     17 C13        0.5927    2.2238    6.8716 C.3       1 RES1    0.0000
     18 O3        -0.5922    2.2987    6.0958 O.3       1 RES1    0.0000
     19 C14       -1.6886    1.5034    6.5737 C.3       1 RES1    0.0000
     20 O4         1.1273    0.9188    6.9198 O.3       1 RES1    0.0000
     21 C15        1.7035    0.5043    5.6661 C.3       1 RES1    0.0000
     22 O5         1.6010    3.2047   10.3840 O.3       1 RES1    0.0000
     23 H1         4.1186   -0.8641   10.5972 H         1 RES1    0.0000
     24 H2         5.5118   -2.9299   10.9401 H         1 RES1    0.0000
     25 H3         7.4070   -3.3890    9.3436 H         1 RES1    0.0000
     26 H4         7.8159   -1.9105    7.4577 H         1 RES1    0.0000
     27 H5         6.3992    0.0743    7.0612 H         1 RES1    0.0000
     28 H6         0.1119    1.7283    8.9257 H         1 RES1    0.0000
     29 H7        -0.1313    5.3468    7.3291 H         1 RES1    0.0000
     30 H8        -0.1843    5.6438    9.0757 H         1 RES1    0.0000
     31 H9         2.1484    5.3468    9.0650 H         1 RES1    0.0000
     32 H10        2.1214    4.7189    7.4256 H         1 RES1    0.0000
     33 H11        1.3352    2.9029    6.4398 H         1 RES1    0.0000
     34 H12       -2.3007    2.0388    7.2970 H         1 RES1    0.0000
     35 H13       -1.3150    0.5941    7.0827 H         1 RES1    0.0000
     36 H14       -2.2657    1.2152    5.7219 H         1 RES1    0.0000
     37 H15        0.9160    0.2565    4.9825 H         1 RES1    0.0000
     38 H16        2.3152   -0.3781    5.8504 H         1 RES1    0.0000
     39 H17        2.3168    1.3367    5.3040 H         1 RES1    0.0000
     40 H18        0.9317    3.8008   10.7794 H         1 RES1    0.0000
@<TRIPOS>BOND
     1    1    2 1
     2    2    3 2
     3    3    4 1
     4    4    5 2
     5    5    1 1
     6    6    5 1
     7    7    6 ar
     8    8    7 ar
     9    9    8 ar
    10   10    9 ar
    11   11    6 ar
    12   12    3 1
    13   13   12 1
    14   14   13 1
    15   15   14 1
    16   16   12 1
    17   17   13 1
    18   18   17 1
    19   19   18 1
    20   20   17 1
    21   21   20 1
    22   22   12 1
    23   23    7 1
    24   24    8 1
    25   25    9 1
    26   26   10 1
    27   27   11 1
    28   28   13 1
    29   29   15 1
    30   30   15 1
    31   31   16 1
    32   32   16 1
    33   33   17 1
    34   34   19 1
    35   35   19 1
    36   36   19 1
    37   37   21 1
    38   38   21 1
    39   39   21 1
    40   40   22 1
    41   10   11 ar
    42   15   16 1
@<TRIPOS>SUBSTRUCTURE
     1 RES1 1

@<TRIPOS>CRYSIN
  10.5860    6.7510   11.3580  90.0000 109.3700  90.0000   4 1

