# MOL2 file generated by ConQuest
# Please check atom types

@<TRIPOS>MOLECULE
GUKTOV
    46    46     2
SMALL
NO_CHARGES
****
Generated from CSD

@<TRIPOS>ATOM
      1 N1        15.6652    1.6465    3.2007 N.ar      1 RES1    0.0000
      2 C1        14.3214    1.6465    3.3413 C.ar      1 RES1    0.0000
      3 N2        13.8540    1.6465    4.5767 N.3       1 RES1    0.0000
      4 N3        13.3756    1.6465    2.3571 N.ar      1 RES1    0.0000
      5 C2        13.8129    1.6465    1.1367 C.ar      1 RES1    0.0000
      6 O1        12.9589    1.6465    0.1159 O.3       1 RES1    0.0000
      7 C3        11.5566    1.6465    0.4509 C.3       1 RES1    0.0000
      8 C4        15.2215    1.6465    0.8002 C.ar      1 RES1    0.0000
      9 N4        15.5305    1.6465   -0.5010 N.2       1 RES1    0.0000
     10 O2        16.7747    1.6465   -0.8241 O.2       1 RES1    0.0000
     11 C5        16.1071    1.6465    1.9398 C.ar      1 RES1    0.0000
     12 N5        17.4211    1.6465    1.6833 N.3       1 RES1    0.0000
     13 C6        18.5505    1.6465    2.6263 C.3       1 RES1    0.0000
     14 C7        19.8132    1.6465    1.7514 C.3       1 RES1    0.0000
     15 C8        21.0615    1.6465    2.6211 C.3       1 RES1    0.0000
     16 C9        21.0670    0.4037    3.5020 C.3       1 RES1    0.0000
     17 C10       19.8149    0.4031    4.3770 C.3       1 RES1    0.0000
     18 C11       18.5558    0.3971    3.5140 C.3       1 RES1    0.0000
     19 C12       19.8158    1.6465    5.2676 C.3       1 RES1    0.0000
     20 H1        14.4107    1.6465    5.2579 H         1 RES1    0.0000
     21 H2        12.9854    1.6465    4.7187 H         1 RES1    0.0000
     22 H3        11.0256    1.6465   -0.3724 H         1 RES1    0.0000
     23 H4        11.3469    2.4467    0.9759 H         1 RES1    0.0000
     24 H5        11.4521    1.6465    1.4253 Du        2 SUP2    0.0000
     25 H6        11.1308    0.8463    0.0770 Du        2 SUP2    0.0000
     26 H7        11.1308    2.4467    0.0770 Du        2 SUP2    0.0000
     27 H8        17.6410    1.6465    0.8316 H         1 RES1    0.0000
     28 H9        19.8140    0.8450    1.1703 H         1 RES1    0.0000
     29 H10       21.8731    1.6465    2.0386 H         1 RES1    0.0000
     30 H11       21.8760    0.4004    4.0726 H         1 RES1    0.0000
     31 H12       21.0816   -0.4083    2.9367 H         1 RES1    0.0000
     32 H13       19.8199   -0.4136    4.9551 H         1 RES1    0.0000
     33 H14       17.7520    0.3912    4.0921 H         1 RES1    0.0000
     34 H15       18.5377   -0.4162    2.9501 H         1 RES1    0.0000
     35 H16       19.0138    1.6465    5.8480 H         1 RES1    0.0000
     36 H17       20.6201    1.6465    5.8465 H         1 RES1    0.0000
     37 H4C       11.3469    0.8463    0.9759 H         1 RES1    0.0000
     38 C11C      18.5558    2.8959    3.5140 C.3       1 RES1    0.0000
     39 C10C      19.8149    2.8899    4.3770 C.3       1 RES1    0.0000
     40 C9C       21.0670    2.8893    3.5020 C.3       1 RES1    0.0000
     41 H11C      21.8760    2.8926    4.0726 H         1 RES1    0.0000
     42 H12C      21.0816    3.7013    2.9367 H         1 RES1    0.0000
     43 H13C      19.8199    3.7066    4.9551 H         1 RES1    0.0000
     44 H14C      17.7520    2.9018    4.0921 H         1 RES1    0.0000
     45 H15C      18.5377    3.7092    2.9501 H         1 RES1    0.0000
     46 H9C       19.8140    2.4480    1.1703 H         1 RES1    0.0000
@<TRIPOS>BOND
     1    1    2 ar
     2    2    3 1
     3    3   20 1
     4    4    2 ar
     5    5    4 ar
     6    6    5 1
     7    7    6 1
     8    8    5 ar
     9    9    8 1
    10   10    9 2
    11   11    1 ar
    12   12   11 1
    13   13   12 1
    14   14   13 1
    15   15   14 1
    16   16   15 1
    17   17   16 1
    18   18   13 1
    19   19   17 1
    20   21    3 1
    21   22    7 1
    22   23    7 1
    23   27   12 1
    24   28   14 1
    25   29   15 1
    26   30   16 1
    27   31   16 1
    28   32   17 1
    29   33   18 1
    30   34   18 1
    31   35   19 1
    32   36   19 1
    33   37    7 1
    34   38   13 1
    35   39   19 1
    36   40   15 1
    37   41   40 1
    38   42   40 1
    39   43   39 1
    40   44   38 1
    41   45   38 1
    42   46   14 1
    43    8   11 ar
    44   17   18 1
    45   38   39 1
    46   39   40 1
@<TRIPOS>SUBSTRUCTURE
     1 RES1 1
     2 SUP2 24

@<TRIPOS>CRYSIN
  29.2070    6.5860    7.4782  90.0000  90.0000  90.0000  62 1

