# MOL2 file generated by ConQuest
# Please check atom types

@<TRIPOS>MOLECULE
GUKXOZ
   166   170     2
SMALL
NO_CHARGES
****
Generated from CSD

@<TRIPOS>ATOM
      1 O1         9.0354    9.7011   11.9024 O.3       1 RES1    0.0000
      2 O2         8.2645    7.6183   12.4450 O.2       1 RES1    0.0000
      3 O3         9.4325    7.9003   15.3298 O.2       1 RES1    0.0000
      4 O4        10.6936    4.2842   15.4973 O.2       1 RES1    0.0000
      5 O5         9.8897    2.5131   13.0243 O.2       1 RES1    0.0000
      6 O6        12.7933   -0.3237   14.7753 O.2       1 RES1    0.0000
      7 O7        10.2590    1.4208   21.6159 O.2       1 RES1    0.0000
      8 O8        10.2278   -0.6870   21.1933 O.2       1 RES1    0.0000
      9 N1         7.7790    9.4306   13.7074 N.am      1 RES1    0.0000
     10 H1         7.7496   10.3277   13.7577 H         1 RES1    0.0000
     11 N2         7.7673    6.3977   15.5779 N.am      1 RES1    0.0000
     12 H2         6.8844    6.2335   15.5190 H         1 RES1    0.0000
     13 N3         9.6259    5.2317   13.7768 N.am      1 RES1    0.0000
     14 H3         8.9238    5.6975   13.4602 H         1 RES1    0.0000
     15 N4        12.1021    2.7942   13.0946 N.am      1 RES1    0.0000
     16 H4        12.8008    3.3615   13.1210 H         1 RES1    0.0000
     17 N5        11.8506    1.6067   15.5329 N.am      1 RES1    0.0000
     18 H5        11.6802    2.4560   15.2896 H         1 RES1    0.0000
     19 N6        10.4082    0.4682   20.8569 N.pl3     1 RES1    0.0000
     20 C1         9.7341    9.2478   10.6842 C.3       1 RES1    0.0000
     21 C2         8.7167    8.8447    9.6472 C.3       1 RES1    0.0000
     22 H6         8.1145    9.5747    9.4860 H         1 RES1    0.0000
     23 H7         9.1664    8.6143    8.8312 H         1 RES1    0.0000
     24 H8         8.2231    8.0865    9.9655 H         1 RES1    0.0000
     25 C3        10.4623   10.5082   10.2324 C.3       1 RES1    0.0000
     26 H9         9.8225   11.1950   10.0295 H         1 RES1    0.0000
     27 H10       11.0433   10.8093   10.9344 H         1 RES1    0.0000
     28 H11       10.9818   10.3123    9.4498 H         1 RES1    0.0000
     29 C4        10.7429    8.1608   11.0095 C.3       1 RES1    0.0000
     30 H12       10.2747    7.3721   11.2931 H         1 RES1    0.0000
     31 H13       11.2625    7.9609   10.2283 H         1 RES1    0.0000
     32 H14       11.3240    8.4579   11.7129 H         1 RES1    0.0000
     33 C5         8.3518    8.8120   12.6665 C.2       1 RES1    0.0000
     34 C6         7.2006    8.6060   14.7461 C.3       1 RES1    0.0000
     35 H15        6.4410    8.1297   14.4013 H         1 RES1    0.0000
     36 H16        6.9037    9.1608   15.4703 H         1 RES1    0.0000
     37 C7         8.2419    7.6158   15.2504 C.2       1 RES1    0.0000
     38 C8         8.6452    5.3669   16.0098 C.2       1 RES1    0.0000
     39 C9         8.4913    4.6767   17.1467 C.2       1 RES1    0.0000
     40 H17        9.0883    3.9346   17.2649 H         1 RES1    0.0000
     41 C10        7.5332    4.9004   18.2399 C.ar      1 RES1    0.0000
     42 C11        6.9983    6.1463   18.5591 C.ar      1 RES1    0.0000
     43 H18        7.2116    6.9094   18.0155 H         1 RES1    0.0000
     44 C12        6.1586    6.2926   19.6531 C.ar      1 RES1    0.0000
     45 H19        5.8192    7.1616   19.8769 H         1 RES1    0.0000
     46 C13        5.7998    5.1922   20.4287 C.ar      1 RES1    0.0000
     47 H20        5.2080    5.2973   21.1780 H         1 RES1    0.0000
     48 C14        6.3112    3.9515   20.1049 C.ar      1 RES1    0.0000
     49 H21        6.0579    3.1829   20.6206 H         1 RES1    0.0000
     50 C15        7.1903    3.8039   19.0387 C.ar      1 RES1    0.0000
     51 H22        7.5668    2.9411   18.8482 H         1 RES1    0.0000
     52 C16        9.7263    4.9468   15.0763 C.2       1 RES1    0.0000
     53 C17       10.6756    4.7710   12.8778 C.3       1 RES1    0.0000
     54 H23       11.4990    5.2144   13.0932 H         1 RES1    0.0000
     55 H24       10.4462    4.9883   11.9714 H         1 RES1    0.0000
     56 C18       10.8546    3.2669   13.0143 C.2       1 RES1    0.0000
     57 C19       12.3235    1.3581   13.1345 C.3       1 RES1    0.0000
     58 H25       11.5693    0.9509   12.7026 H         1 RES1    0.0000
     59 C20       13.5584    0.9688   12.3217 C.3       1 RES1    0.0000
     60 H26       13.5745    0.0138   12.2258 H         1 RES1    0.0000
     61 H27       14.3439    1.2266   12.8083 H         1 RES1    0.0000
     62 C21       13.6072    1.6017   10.9428 C.ar      1 RES1    0.0000
     63 C22       12.4825    1.8316   10.1754 C.ar      1 RES1    0.0000
     64 H28       11.6257    1.5319   10.4868 H         1 RES1    0.0000
     65 C23       12.5790    2.4957    8.9591 C.ar      1 RES1    0.0000
     66 H29       11.7870    2.6454    8.4364 H         1 RES1    0.0000
     67 C24       13.7951    2.9374    8.4934 C.ar      1 RES1    0.0000
     68 H30       13.8504    3.4248    7.6677 H         1 RES1    0.0000
     69 C25       14.9364    2.6842    9.2274 C.ar      1 RES1    0.0000
     70 H31       15.7956    2.9589    8.8993 H         1 RES1    0.0000
     71 C26       14.8340    2.0206   10.4354 C.ar      1 RES1    0.0000
     72 H32       15.6316    1.8457   10.9414 H         1 RES1    0.0000
     73 C27       12.3645    0.7963   14.5640 C.2       1 RES1    0.0000
     74 C28       11.5490    1.2658   16.8743 C.ar      1 RES1    0.0000
     75 C29       11.4367    2.3021   17.7945 C.ar      1 RES1    0.0000
     76 H33       11.6135    3.2042   17.5193 H         1 RES1    0.0000
     77 C30       11.0762    2.0467   19.1040 C.ar      1 RES1    0.0000
     78 H34       11.0023    2.7617   19.7407 H         1 RES1    0.0000
     79 C31       10.8241    0.7412   19.4738 C.ar      1 RES1    0.0000
     80 C32       10.9463   -0.2981   18.5924 C.ar      1 RES1    0.0000
     81 H35       10.7830   -1.1986   18.8816 H         1 RES1    0.0000
     82 C33       11.3042   -0.0419   17.2663 C.ar      1 RES1    0.0000
     83 H36       11.3830   -0.7616   16.6352 H         1 RES1    0.0000
     84 O9         8.0822    5.5140    3.6386 O.3       2 RES2    0.0000
     85 O10        8.9273    7.5699    3.0868 O.2       2 RES2    0.0000
     86 O11        7.5361    7.2023    0.3874 O.2       2 RES2    0.0000
     87 O12        6.0407   10.5411   -0.1222 O.2       2 RES2    0.0000
     88 O13        6.7637   12.6804    2.1670 O.2       2 RES2    0.0000
     89 O14        4.4699   15.3566    0.5982 O.2       2 RES2    0.0000
     90 O15        6.9136   13.6814   -6.2804 O.2       2 RES2    0.0000
     91 O16        7.2007   15.7458   -5.7147 O.2       2 RES2    0.0000
     92 N7         9.3484    5.7315    1.8267 N.am      2 RES2    0.0000
     93 H37        9.4134    4.8343    1.8043 H         2 RES2    0.0000
     94 N8         9.1208    8.6984   -0.1935 N.am      2 RES2    0.0000
     95 H38       10.0020    8.8712   -0.2488 H         2 RES2    0.0000
     96 N9         7.2911    9.9208    1.6267 N.am      2 RES2    0.0000
     97 H39        8.0574    9.5732    1.9461 H         2 RES2    0.0000
     98 N10        4.5905   12.0832    2.1010 N.am      2 RES2    0.0000
     99 H40        4.0129   11.3921    2.0907 H         2 RES2    0.0000
    100 N11        5.0822   13.3412   -0.2790 N.am      2 RES2    0.0000
    101 H41        5.1175   12.4635   -0.0834 H         2 RES2    0.0000
    102 N12        6.8681   14.5902   -5.4644 N.pl3     2 RES2    0.0000
    103 C34        7.3154    6.0091    4.8000 C.3       2 RES2    0.0000
    104 C35        8.2775    6.4183    5.8884 C.3       2 RES2    0.0000
    105 H42        8.8465    5.6760    6.1067 H         2 RES2    0.0000
    106 H43        8.8127    7.1543    5.5868 H         2 RES2    0.0000
    107 H44        7.7816    6.6808    6.6683 H         2 RES2    0.0000
    108 C36        6.3721    7.1241    4.3829 C.3       2 RES2    0.0000
    109 H45        6.8808    7.8938    4.1188 H         2 RES2    0.0000
    110 H46        5.8324    6.8286    3.6462 H         2 RES2    0.0000
    111 H47        5.8049    7.3535    5.1239 H         2 RES2    0.0000
    112 C37        6.5100    4.7888    5.2156 C.3       2 RES2    0.0000
    113 H48        7.1095    4.0857    5.4769 H         2 RES2    0.0000
    114 H49        5.9424    5.0166    5.9551 H         2 RES2    0.0000
    115 H50        5.9710    4.4921    4.4789 H         2 RES2    0.0000
    116 C38        8.7940    6.3756    2.8822 C.2       2 RES2    0.0000
    117 C39        9.8349    6.5561    0.7409 C.3       2 RES2    0.0000
    118 H51       10.1059    6.0001    0.0070 H         2 RES2    0.0000
    119 H52       10.5963    7.0648    1.0314 H         2 RES2    0.0000
    120 C40        8.7173    7.5014    0.2937 C.2       2 RES2    0.0000
    121 C41        8.2034    9.6874   -0.6130 C.2       2 RES2    0.0000
    122 C42        8.3478   10.4297   -1.7179 C.2       2 RES2    0.0000
    123 H53        7.7242   11.1543   -1.8029 H         2 RES2    0.0000
    124 C43        9.3076   10.3134   -2.8163 C.ar      2 RES2    0.0000
    125 C44        9.8675    9.1075   -3.2222 C.ar      2 RES2    0.0000
    126 H54        9.6801    8.3071   -2.7260 H         2 RES2    0.0000
    127 C45       10.6983    9.0448   -4.3343 C.ar      2 RES2    0.0000
    128 H55       11.0554    8.2007   -4.6207 H         2 RES2    0.0000
    129 C46       11.0103   10.1963   -5.0363 C.ar      2 RES2    0.0000
    130 H56       11.5898   10.1534   -5.8008 H         2 RES2    0.0000
    131 C47       10.4895   11.4061   -4.6290 C.ar      2 RES2    0.0000
    132 H57       10.7267   12.2097   -5.0975 H         2 RES2    0.0000
    133 C48        9.6201   11.4644   -3.5447 C.ar      2 RES2    0.0000
    134 H58        9.2321   12.3063   -3.2931 H         2 RES2    0.0000
    135 C49        7.0968   10.0449    0.3156 C.2       2 RES2    0.0000
    136 C50        6.2417   10.3620    2.5341 C.3       2 RES2    0.0000
    137 H59        6.5368   10.2697    3.4432 H         2 RES2    0.0000
    138 H60        5.4619    9.8143    2.4146 H         2 RES2    0.0000
    139 C51        5.8987   11.8168    2.2508 C.2       2 RES2    0.0000
    140 C52        4.0609   13.4288    1.9532 C.3       2 RES2    0.0000
    141 H61        3.1149   13.3300    1.8252 H         2 RES2    0.0000
    142 C53        4.2301   14.2660    3.2236 C.3       2 RES2    0.0000
    143 H62        3.7969   15.1156    3.1068 H         2 RES2    0.0000
    144 H63        5.1641   14.4273    3.3779 H         2 RES2    0.0000
    145 C54        3.6370   13.5553    4.4260 C.ar      2 RES2    0.0000
    146 C55        4.4027   12.6513    5.1489 C.ar      2 RES2    0.0000
    147 H64        5.3310   12.5358    4.9334 H         2 RES2    0.0000
    148 C56        3.8375   11.9096    6.1831 C.ar      2 RES2    0.0000
    149 H65        4.3746   11.2782    6.6669 H         2 RES2    0.0000
    150 C57        2.5172   12.0787    6.5167 C.ar      2 RES2    0.0000
    151 H66        2.1266   11.5619    7.2257 H         2 RES2    0.0000
    152 C58        1.7470   12.9964    5.8259 C.ar      2 RES2    0.0000
    153 H67        0.8271   13.1315    6.0677 H         2 RES2    0.0000
    154 C59        2.3066   13.7270    4.7763 C.ar      2 RES2    0.0000
    155 H68        1.7638   14.3564    4.2968 H         2 RES2    0.0000
    156 C60        4.5892   14.1615    0.7020 C.2       2 RES2    0.0000
    157 C61        5.5374   13.7113   -1.5611 C.ar      2 RES2    0.0000
    158 C62        5.5420   12.7269   -2.5439 C.ar      2 RES2    0.0000
    159 H69        5.2366   11.8428   -2.3284 H         2 RES2    0.0000
    160 C63        5.9774   13.0080   -3.8255 C.ar      2 RES2    0.0000
    161 H70        5.9841   12.3271   -4.5025 H         2 RES2    0.0000
    162 C64        6.4045   14.2891   -4.1063 C.ar      2 RES2    0.0000
    163 C65        6.4200   15.2819   -3.1472 C.ar      2 RES2    0.0000
    164 H71        6.7290   16.1630   -3.3710 H         2 RES2    0.0000
    165 C66        5.9837   14.9979   -1.8544 C.ar      2 RES2    0.0000
    166 H72        5.9917   15.6795   -1.1788 H         2 RES2    0.0000
@<TRIPOS>BOND
     1    1   20 1
     2    2   33 2
     3    3   37 2
     4    4   52 2
     5    5   56 2
     6    6   73 2
     7    7   19 2
     8    8   19 2
     9    9   10 1
    10   11   12 1
    11   13   14 1
    12   15   16 1
    13   17   18 1
    14   19   79 1
    15   20   21 1
    16   21   22 1
    17   23   21 1
    18   24   21 1
    19   25   20 1
    20   26   25 1
    21   27   25 1
    22   28   25 1
    23   29   20 1
    24   30   29 1
    25   31   29 1
    26   32   29 1
    27   33    1 1
    28   34    9 1
    29   35   34 1
    30   36   34 1
    31   37   11 1
    32   38   11 1
    33   39   38 2
    34   40   39 1
    35   41   39 1
    36   42   41 ar
    37   43   42 1
    38   44   42 ar
    39   45   44 1
    40   46   44 ar
    41   47   46 1
    42   48   46 ar
    43   49   48 1
    44   50   41 ar
    45   51   50 1
    46   52   13 1
    47   53   13 1
    48   54   53 1
    49   55   53 1
    50   56   15 1
    51   57   15 1
    52   58   57 1
    53   59   57 1
    54   60   59 1
    55   61   59 1
    56   62   59 1
    57   63   62 ar
    58   64   63 1
    59   65   63 ar
    60   66   65 1
    61   67   65 ar
    62   68   67 1
    63   69   67 ar
    64   70   69 1
    65   71   62 ar
    66   72   71 1
    67   73   17 1
    68   74   17 1
    69   75   74 ar
    70   76   75 1
    71   77   75 ar
    72   78   77 1
    73   79   77 ar
    74   80   79 ar
    75   81   80 1
    76   82   74 ar
    77   83   82 1
    78   84  103 1
    79   85  116 2
    80   86  120 2
    81   87  135 2
    82   88  139 2
    83   89  156 2
    84   90  102 2
    85   91  102 2
    86   92   93 1
    87   94   95 1
    88   96   97 1
    89   98   99 1
    90  100  101 1
    91  102  162 1
    92  103  104 1
    93  104  105 1
    94  106  104 1
    95  107  104 1
    96  108  103 1
    97  109  108 1
    98  110  108 1
    99  111  108 1
   100  112  103 1
   101  113  112 1
   102  114  112 1
   103  115  112 1
   104  116   84 1
   105  117   92 1
   106  118  117 1
   107  119  117 1
   108  120   94 1
   109  121   94 1
   110  122  121 2
   111  123  122 1
   112  124  122 1
   113  125  124 ar
   114  126  125 1
   115  127  125 ar
   116  128  127 1
   117  129  127 ar
   118  130  129 1
   119  131  129 ar
   120  132  131 1
   121  133  124 ar
   122  134  133 1
   123  135   96 1
   124  136   96 1
   125  137  136 1
   126  138  136 1
   127  139   98 1
   128  140   98 1
   129  141  140 1
   130  142  140 1
   131  143  142 1
   132  144  142 1
   133  145  142 1
   134  146  145 ar
   135  147  146 1
   136  148  146 ar
   137  149  148 1
   138  150  148 ar
   139  151  150 1
   140  152  150 ar
   141  153  152 1
   142  154  145 ar
   143  155  154 1
   144  156  100 1
   145  157  100 1
   146  158  157 ar
   147  159  158 1
   148  160  158 ar
   149  161  160 1
   150  162  160 ar
   151  163  162 ar
   152  164  163 1
   153  165  157 ar
   154  166  165 1
   155    9   33 1
   156   34   37 1
   157   38   52 1
   158   48   50 ar
   159   53   56 1
   160   57   73 1
   161   69   71 ar
   162   80   82 ar
   163   92  116 1
   164  117  120 1
   165  121  135 1
   166  131  133 ar
   167  136  139 1
   168  140  156 1
   169  152  154 ar
   170  163  165 ar
@<TRIPOS>SUBSTRUCTURE
     1 RES1 1
     2 RES2 84

@<TRIPOS>CRYSIN
  10.3280   11.6050   14.7960  70.0000  86.3700  76.1900   1 1

