# MOL2 file generated by ConQuest
# Please check atom types

@<TRIPOS>MOLECULE
GUKYOA
    44    44     2
SMALL
NO_CHARGES
****
Generated from CSD

@<TRIPOS>ATOM
      1 C1         2.2214    2.8081    7.3283 C.ar      1 RES1    0.0000
      2 N1         1.6310    2.5771    6.1432 N.3       1 RES1    0.0000
      3 C2         3.6011    2.9803    7.5400 C.ar      1 RES1    0.0000
      4 N2         4.5433    2.8818    6.4649 N.pl3     1 RES1    0.0000
      5 O1         4.1302    2.6866    5.3057 O.2       1 RES1    0.0000
      6 O2         5.7513    3.0032    6.6998 O.2       1 RES1    0.0000
      7 C3         4.1202    3.2170    8.8198 C.ar      1 RES1    0.0000
      8 C4         3.3151    3.2832    9.9226 C.ar      1 RES1    0.0000
      9 C5         3.8836    3.5282   11.2890 C.3       1 RES1    0.0000
     10 C6         1.9204    3.1039    9.7355 C.ar      1 RES1    0.0000
     11 C7         0.9871    3.1634   10.9095 C.3       1 RES1    0.0000
     12 C8         1.4147    2.8850    8.4797 C.ar      1 RES1    0.0000
     13 C9         5.5980    1.7768    1.4429 C.ar      2 RES2    0.0000
     14 N3         4.9818    1.8721    2.6344 N.3       2 RES2    0.0000
     15 C10        6.9859    1.8904    1.2142 C.ar      2 RES2    0.0000
     16 N4         7.8973    2.0914    2.2851 N.pl3     2 RES2    0.0000
     17 O3         7.4730    2.2076    3.4478 O.2       2 RES2    0.0000
     18 O4         9.1145    2.1414    2.0493 O.2       2 RES2    0.0000
     19 C11        7.5179    1.7861   -0.0802 C.ar      2 RES2    0.0000
     20 C12        6.7281    1.5634   -1.1748 C.ar      2 RES2    0.0000
     21 C13        7.3220    1.4475   -2.5476 C.3       2 RES2    0.0000
     22 C14        5.3326    1.4354   -0.9655 C.ar      2 RES2    0.0000
     23 C15        4.4190    1.2100   -2.1329 C.3       2 RES2    0.0000
     24 C16        4.8147    1.5428    0.2955 C.ar      2 RES2    0.0000
     25 H1         2.1174    2.5226    5.4117 H         1 RES1    0.0000
     26 H2         0.7573    2.4809    6.0978 H         1 RES1    0.0000
     27 H3         5.0568    3.3348    8.9247 H         1 RES1    0.0000
     28 H4         4.8588    3.6031   11.2286 H         1 RES1    0.0000
     29 H5         3.6490    2.7819   11.8794 H         1 RES1    0.0000
     30 H6         3.5147    4.3604   11.6524 H         1 RES1    0.0000
     31 H7         0.0745    2.9659   10.6115 H         1 RES1    0.0000
     32 H8         1.0152    4.0599   11.3043 H         1 RES1    0.0000
     33 H9         1.2618    2.5030   11.5784 H         1 RES1    0.0000
     34 H10        0.4756    2.7794    8.3815 H         1 RES1    0.0000
     35 H11        4.1079    1.7891    2.6857 H         2 RES2    0.0000
     36 H12        5.4538    2.0182    3.3634 H         2 RES2    0.0000
     37 H13        8.4558    1.8722   -0.2001 H         2 RES2    0.0000
     38 H14        8.2911    1.5853   -2.4973 H         2 RES2    0.0000
     39 H15        6.9258    2.1263   -3.1330 H         2 RES2    0.0000
     40 H16        7.1368    0.5558   -2.9093 H         2 RES2    0.0000
     41 H17        3.4972    1.1180   -1.8129 H         2 RES2    0.0000
     42 H18        4.6852    0.3924   -2.6033 H         2 RES2    0.0000
     43 H19        4.4777    1.9730   -2.7462 H         2 RES2    0.0000
     44 H20        3.8749    1.4554    0.4036 H         2 RES2    0.0000
@<TRIPOS>BOND
     1    1    2 1
     2    2   25 1
     3    3    1 ar
     4    4    3 1
     5    5    4 2
     6    6    4 2
     7    7    3 ar
     8    8    7 ar
     9    9    8 1
    10   10    8 ar
    11   11   10 1
    12   12    1 ar
    13   13   14 1
    14   14   35 1
    15   15   13 ar
    16   16   15 1
    17   17   16 2
    18   18   16 2
    19   19   15 ar
    20   20   19 ar
    21   21   20 1
    22   22   20 ar
    23   23   22 1
    24   24   13 ar
    25   26    2 1
    26   27    7 1
    27   28    9 1
    28   29    9 1
    29   30    9 1
    30   31   11 1
    31   32   11 1
    32   33   11 1
    33   34   12 1
    34   36   14 1
    35   37   19 1
    36   38   21 1
    37   39   21 1
    38   40   21 1
    39   41   23 1
    40   42   23 1
    41   43   23 1
    42   44   24 1
    43   10   12 ar
    44   22   24 ar
@<TRIPOS>SUBSTRUCTURE
     1 RES1 1
     2 RES2 13

@<TRIPOS>CRYSIN
   7.1422    7.4564   17.0440  81.4300  89.2700  61.8400   2 1

