# MOL2 file generated by ConQuest
# Please check atom types

@<TRIPOS>MOLECULE
GULFID
   172   178     2
SMALL
NO_CHARGES
****
Generated from CSD

@<TRIPOS>ATOM
      1 O1         7.2495   11.0005    8.1582 O.3       1 RES1    0.0000
      2 O2         6.6313   10.5811    3.4022 O.3       1 RES1    0.0000
      3 O3         9.5973    7.6356   11.6865 O.3       1 RES1    0.0000
      4 O4        10.6638    6.1478    9.9542 O.3       1 RES1    0.0000
      5 O5         5.0889    4.8830    5.0662 O.3       1 RES1    0.0000
      6 O6         6.2354    5.4710    7.3067 O.3       1 RES1    0.0000
      7 N1         2.7480   11.6081    5.2051 N.1       1 RES1    0.0000
      8 N2         7.3779   15.1842    6.4063 N.1       1 RES1    0.0000
      9 N3         6.7353   11.9514    7.2430 N.2       1 RES1    0.0000
     10 N4         5.8952   11.4502    4.2360 N.2       1 RES1    0.0000
     11 C1         4.7369   12.8880    6.3213 C.3       1 RES1    0.0000
     12 C2         5.6790   13.5788    5.2263 C.3       1 RES1    0.0000
     13 C3         3.6412   12.1435    5.6316 C.1       1 RES1    0.0000
     14 C4         6.6608   14.4528    5.9372 C.1       1 RES1    0.0000
     15 C5         4.0835   13.9641    7.2430 C.ar      1 RES1    0.0000
     16 C6         4.7871   14.4265    8.3445 C.ar      1 RES1    0.0000
     17 H1         5.6388   14.0986    8.5226 H         1 RES1    0.0000
     18 C7         4.2229   15.3747    9.1780 C.ar      1 RES1    0.0000
     19 H2         4.7034   15.6851    9.9101 H         1 RES1    0.0000
     20 C8         2.9741   15.8586    8.9410 C.ar      1 RES1    0.0000
     21 H3         2.6064   16.4996    9.5065 H         1 RES1    0.0000
     22 C9         2.2605   15.3986    7.8673 C.ar      1 RES1    0.0000
     23 H4         1.4041   15.7249    7.7071 H         1 RES1    0.0000
     24 C10        2.8068   14.4530    7.0175 C.ar      1 RES1    0.0000
     25 H5         2.3148   14.1437    6.2919 H         1 RES1    0.0000
     26 C11        4.8563   14.5135    4.2932 C.ar      1 RES1    0.0000
     27 C12        4.7404   15.8666    4.5252 C.ar      1 RES1    0.0000
     28 H6         5.1782   16.2423    5.2541 H         1 RES1    0.0000
     29 C13        3.9878   16.6774    3.6967 C.ar      1 RES1    0.0000
     30 H7         3.9069   17.5847    3.8797 H         1 RES1    0.0000
     31 C14        3.3591   16.1335    2.6001 C.ar      1 RES1    0.0000
     32 H8         2.8597   16.6774    2.0363 H         1 RES1    0.0000
     33 C15        3.4657   14.7910    2.3403 C.ar      1 RES1    0.0000
     34 H9         3.0389   14.4249    1.5983 H         1 RES1    0.0000
     35 C16        4.2128   13.9818    3.1835 C.ar      1 RES1    0.0000
     36 H10        4.2830   13.0718    3.0054 H         1 RES1    0.0000
     37 C17        5.4677   11.8920    7.2283 C.2       1 RES1    0.0000
     38 C18        4.6379   10.9706    8.0634 C.3       1 RES1    0.0000
     39 H11        4.8005   10.0632    7.7954 H         1 RES1    0.0000
     40 H12        3.7080   11.1775    7.9425 H         1 RES1    0.0000
     41 H13        4.8724   11.0767    8.9884 H         1 RES1    0.0000
     42 C19        6.4660   12.5757    4.3912 C.2       1 RES1    0.0000
     43 C20        7.7648   12.9816    3.7555 C.3       1 RES1    0.0000
     44 H14        8.4945   12.7057    4.3144 H         1 RES1    0.0000
     45 H15        7.7860   13.9367    3.6526 H         1 RES1    0.0000
     46 H16        7.8442   12.5651    2.8943 H         1 RES1    0.0000
     47 C21        8.6906   11.1510    8.2513 C.3       1 RES1    0.0000
     48 H17        8.9153   11.8859    8.8413 H         1 RES1    0.0000
     49 H18        9.0676   11.3287    7.3754 H         1 RES1    0.0000
     50 C22        9.2218    9.8855    8.7874 C.ar      1 RES1    0.0000
     51 C23        9.1410    9.4795   10.1030 C.ar      1 RES1    0.0000
     52 H19        8.7760   10.0499   10.7419 H         1 RES1    0.0000
     53 C24        9.6325    8.1424   10.5017 C.ar      1 RES1    0.0000
     54 C25       10.1991    7.3783    9.4705 C.ar      1 RES1    0.0000
     55 C26       10.3420    7.7683    8.2170 C.ar      1 RES1    0.0000
     56 H20       10.7639    7.2297    7.5878 H         1 RES1    0.0000
     57 C27        9.8361    9.0205    7.8738 C.ar      1 RES1    0.0000
     58 H21        9.9099    9.2965    6.9897 H         1 RES1    0.0000
     59 C28        9.2179    8.5377   12.7799 C.3       1 RES1    0.0000
     60 H22        9.7493    9.3363   12.7341 H         1 RES1    0.0000
     61 H23        9.3662    8.1026   13.6215 H         1 RES1    0.0000
     62 H24        8.2889    8.7685   12.6982 H         1 RES1    0.0000
     63 C29       11.2400    5.2850    9.0227 C.3       1 RES1    0.0000
     64 H25       10.5540    4.9162    8.4622 H         1 RES1    0.0000
     65 H26       11.6952    4.5766    9.4819 H         1 RES1    0.0000
     66 H27       11.8674    5.7705    8.4818 H         1 RES1    0.0000
     67 C30        5.8876    9.3729    3.2097 C.3       1 RES1    0.0000
     68 H28        6.2052    8.9356    2.4040 H         1 RES1    0.0000
     69 H29        4.9535    9.5963    3.0740 H         1 RES1    0.0000
     70 C31        5.9942    8.4117    4.3602 C.ar      1 RES1    0.0000
     71 C32        5.4770    7.1252    4.1575 C.ar      1 RES1    0.0000
     72 H30        5.0691    6.9113    3.3486 H         1 RES1    0.0000
     73 C33        5.5732    6.1565    5.1675 C.ar      1 RES1    0.0000
     74 C34        6.1577    6.4927    6.3785 C.ar      1 RES1    0.0000
     75 C35        6.6386    7.7709    6.5828 C.ar      1 RES1    0.0000
     76 H31        7.0196    7.9991    7.3983 H         1 RES1    0.0000
     77 C36        6.5508    8.7173    5.5630 C.ar      1 RES1    0.0000
     78 H32        6.8799    9.5750    5.7084 H         1 RES1    0.0000
     79 C37        4.7130    4.3935    3.7882 C.3       1 RES1    0.0000
     80 H33        3.9710    4.9029    3.4548 H         1 RES1    0.0000
     81 H34        4.4589    3.4703    3.8617 H         1 RES1    0.0000
     82 H35        5.4535    4.4731    3.1835 H         1 RES1    0.0000
     83 C38        7.0425    5.6750    8.4442 C.3       1 RES1    0.0000
     84 H36        7.9448    5.8527    8.1696 H         1 RES1    0.0000
     85 H37        7.0251    4.8870    8.9933 H         1 RES1    0.0000
     86 H38        6.7073    6.4205    8.9459 H         1 RES1    0.0000
     87 O7         4.3403   10.2869   11.5150 O.3       2 RES2    0.0000
     88 O8         3.7035   10.6652   16.2443 O.3       2 RES2    0.0000
     89 O9         1.7282    5.8687   17.4391 O.3       2 RES2    0.0000
     90 O10        1.1065    6.4903   19.8284 O.3       2 RES2    0.0000
     91 O11        6.9971    5.0420   13.3404 O.3       2 RES2    0.0000
     92 O12        6.1447    5.6745   15.6856 O.3       2 RES2    0.0000
     93 N5         3.2991   14.7687   14.4550 N.1       2 RES2    0.0000
     94 N6         8.2179   11.5702   13.3535 N.1       2 RES2    0.0000
     95 N7         5.0758   11.1833   12.3272 N.2       2 RES2    0.0000
     96 N8         4.1982   11.6139   15.3130 N.2       2 RES2    0.0000
     97 C39        5.1719   13.3382   13.3224 C.3       2 RES2    0.0000
     98 C40        6.1334   12.7158   14.4517 C.3       2 RES2    0.0000
     99 C41        4.1093   14.1211   14.0039 C.1       2 RES2    0.0000
    100 C42        7.2787   12.0573   13.7800 C.1       2 RES2    0.0000
    101 C43        5.9981   14.3193   12.4563 C.ar      2 RES2    0.0000
    102 C44        6.7260   13.8447   11.3695 C.ar      2 RES2    0.0000
    103 H39        6.6583   12.9498   11.1276 H         2 RES2    0.0000
    104 C45        7.5564   14.6955   10.6390 C.ar      2 RES2    0.0000
    105 H40        8.0433   14.3665    9.9199 H         2 RES2    0.0000
    106 C46        7.6546   16.0247   10.9838 C.ar      2 RES2    0.0000
    107 H41        8.2008   16.5951   10.4935 H         2 RES2    0.0000
    108 C47        6.9469   16.4996   12.0510 C.ar      2 RES2    0.0000
    109 H42        7.0284   17.3937   12.2896 H         2 RES2    0.0000
    110 C48        6.1066   15.6711   12.7864 C.ar      2 RES2    0.0000
    111 H43        5.6168   16.0168   13.4973 H         2 RES2    0.0000
    112 C49        6.6843   13.8354   15.3767 C.ar      2 RES2    0.0000
    113 C50        7.9058   14.4167   15.1544 C.ar      2 RES2    0.0000
    114 H44        8.4480   14.1065   14.4648 H         2 RES2    0.0000
    115 C51        8.3351   15.4623   15.9536 C.ar      2 RES2    0.0000
    116 H45        9.1603   15.8576   15.7902 H         2 RES2    0.0000
    117 C52        7.5445   15.9239   16.9962 C.ar      2 RES2    0.0000
    118 H46        7.8250   16.6376   17.5241 H         2 RES2    0.0000
    119 C53        6.3263   15.3057   17.2365 C.ar      2 RES2    0.0000
    120 H47        5.7939   15.5923   17.9425 H         2 RES2    0.0000
    121 C54        5.9001   14.2694   16.4406 C.ar      2 RES2    0.0000
    122 H48        5.0843   13.8571   16.6122 H         2 RES2    0.0000
    123 C55        4.4794   12.3022   12.4432 C.2       2 RES2    0.0000
    124 C56        3.1998   12.6632   11.7519 C.3       2 RES2    0.0000
    125 H49        3.1785   12.2547   10.8841 H         2 RES2    0.0000
    126 H50        3.1455   13.6184   11.6571 H         2 RES2    0.0000
    127 H51        2.4562   12.3502   12.2716 H         2 RES2    0.0000
    128 C57        5.4682   11.6580   15.3489 C.2       2 RES2    0.0000
    129 C58        6.3520   10.8724   16.2461 C.3       2 RES2    0.0000
    130 H52        5.9922   10.8777   17.1351 H         2 RES2    0.0000
    131 H53        7.2292   11.2624   16.2527 H         2 RES2    0.0000
    132 H54        6.4060    9.9677   15.9291 H         2 RES2    0.0000
    133 C59        5.1251    9.0948   11.2927 C.3       2 RES2    0.0000
    134 H55        6.0033    9.3601   10.9756 H         2 RES2    0.0000
    135 H56        4.7048    8.5748   10.5900 H         2 RES2    0.0000
    136 C60        5.2985    8.2182   12.4906 C.ar      2 RES2    0.0000
    137 C61        6.0264    7.0265   12.3353 C.ar      2 RES2    0.0000
    138 H57        6.3336    6.7893   11.4904 H         2 RES2    0.0000
    139 C62        6.2931    6.2037   13.4025 C.ar      2 RES2    0.0000
    140 C63        5.8192    6.5425   14.6756 C.ar      2 RES2    0.0000
    141 C64        5.0993    7.7046   14.8309 C.ar      2 RES2    0.0000
    142 H58        4.7937    7.9407   15.6774 H         2 RES2    0.0000
    143 C65        4.8211    8.5257   13.7506 C.ar      2 RES2    0.0000
    144 H59        4.3075    9.2912   13.8748 H         2 RES2    0.0000
    145 C66        7.4038    4.5739   12.0706 C.3       2 RES2    0.0000
    146 H60        6.6376    4.4970   11.4986 H         2 RES2    0.0000
    147 H61        7.8222    3.7143   12.1654 H         2 RES2    0.0000
    148 H62        8.0281    5.1948   11.6865 H         2 RES2    0.0000
    149 C67        6.0371    6.1154   17.0240 C.3       2 RES2    0.0000
    150 H63        6.4868    6.9591   17.1204 H         2 RES2    0.0000
    151 H64        6.4404    5.4680   17.6074 H         2 RES2    0.0000
    152 H65        5.1100    6.2189   17.2528 H         2 RES2    0.0000
    153 C68        2.2704   10.6416   16.1726 C.3       2 RES2    0.0000
    154 H66        1.9759   10.4267   15.2737 H         2 RES2    0.0000
    155 H67        1.9000   11.5012   16.4275 H         2 RES2    0.0000
    156 C69        1.8428    9.5671   17.1417 C.ar      2 RES2    0.0000
    157 C70        1.9188    8.2379   16.7789 C.ar      2 RES2    0.0000
    158 H68        2.1608    8.0177   15.9095 H         2 RES2    0.0000
    159 C71        1.6415    7.2270   17.6843 C.ar      2 RES2    0.0000
    160 C72        1.3028    7.5587   18.9900 C.ar      2 RES2    0.0000
    161 C73        1.2010    8.8746   19.3479 C.ar      2 RES2    0.0000
    162 H69        0.9463    9.1028   20.2141 H         2 RES2    0.0000
    163 C74        1.4767    9.8695   18.4229 C.ar      2 RES2    0.0000
    164 H70        1.4106   10.7610   18.6795 H         2 RES2    0.0000
    165 C75        1.9313    5.4415   16.0941 C.3       2 RES2    0.0000
    166 H71        1.1986    5.7387   15.5499 H         2 RES2    0.0000
    167 H72        1.9825    4.4837   16.0663 H         2 RES2    0.0000
    168 H73        2.7497    5.8156   15.7591 H         2 RES2    0.0000
    169 C76        1.0492    6.7893   21.2388 C.3       2 RES2    0.0000
    170 H74        1.8007    7.3358   21.4790 H         2 RES2    0.0000
    171 H75        1.0748    5.9721   21.7405 H         2 RES2    0.0000
    172 H76        0.2357    7.2589   21.4332 H         2 RES2    0.0000
@<TRIPOS>BOND
     1    1    9 1
     2    2   10 1
     3    3   53 1
     4    4   54 1
     5    5   73 1
     6    6   74 1
     7    7   13 3
     8    8   14 3
     9    9   37 2
    10   10   42 2
    11   11   12 1
    12   12   14 1
    13   13   11 1
    14   15   11 1
    15   16   15 ar
    16   17   16 1
    17   18   16 ar
    18   19   18 1
    19   20   18 ar
    20   21   20 1
    21   22   20 ar
    22   23   22 1
    23   24   15 ar
    24   25   24 1
    25   26   12 1
    26   27   26 ar
    27   28   27 1
    28   29   27 ar
    29   30   29 1
    30   31   29 ar
    31   32   31 1
    32   33   31 ar
    33   34   33 1
    34   35   26 ar
    35   36   35 1
    36   37   11 1
    37   38   37 1
    38   39   38 1
    39   40   38 1
    40   41   38 1
    41   42   12 1
    42   43   42 1
    43   44   43 1
    44   45   43 1
    45   46   43 1
    46   47    1 1
    47   48   47 1
    48   49   47 1
    49   50   47 1
    50   51   50 ar
    51   52   51 1
    52   53   51 ar
    53   54   53 ar
    54   55   54 ar
    55   56   55 1
    56   57   50 ar
    57   58   57 1
    58   59    3 1
    59   60   59 1
    60   61   59 1
    61   62   59 1
    62   63    4 1
    63   64   63 1
    64   65   63 1
    65   66   63 1
    66   67    2 1
    67   68   67 1
    68   69   67 1
    69   70   67 1
    70   71   70 ar
    71   72   71 1
    72   73   71 ar
    73   74   73 ar
    74   75   74 ar
    75   76   75 1
    76   77   70 ar
    77   78   77 1
    78   79    5 1
    79   80   79 1
    80   81   79 1
    81   82   79 1
    82   83    6 1
    83   84   83 1
    84   85   83 1
    85   86   83 1
    86   87   95 1
    87   88   96 1
    88   89  159 1
    89   90  160 1
    90   91  139 1
    91   92  140 1
    92   93   99 3
    93   94  100 3
    94   95  123 2
    95   96  128 2
    96   97   98 1
    97   98  100 1
    98   99   97 1
    99  101   97 1
   100  102  101 ar
   101  103  102 1
   102  104  102 ar
   103  105  104 1
   104  106  104 ar
   105  107  106 1
   106  108  106 ar
   107  109  108 1
   108  110  101 ar
   109  111  110 1
   110  112   98 1
   111  113  112 ar
   112  114  113 1
   113  115  113 ar
   114  116  115 1
   115  117  115 ar
   116  118  117 1
   117  119  117 ar
   118  120  119 1
   119  121  112 ar
   120  122  121 1
   121  123   97 1
   122  124  123 1
   123  125  124 1
   124  126  124 1
   125  127  124 1
   126  128   98 1
   127  129  128 1
   128  130  129 1
   129  131  129 1
   130  132  129 1
   131  133   87 1
   132  134  133 1
   133  135  133 1
   134  136  133 1
   135  137  136 ar
   136  138  137 1
   137  139  137 ar
   138  140  139 ar
   139  141  140 ar
   140  142  141 1
   141  143  136 ar
   142  144  143 1
   143  145   91 1
   144  146  145 1
   145  147  145 1
   146  148  145 1
   147  149   92 1
   148  150  149 1
   149  151  149 1
   150  152  149 1
   151  153   88 1
   152  154  153 1
   153  155  153 1
   154  156  153 1
   155  157  156 ar
   156  158  157 1
   157  159  157 ar
   158  160  159 ar
   159  161  160 ar
   160  162  161 1
   161  163  156 ar
   162  164  163 1
   163  165   89 1
   164  166  165 1
   165  167  165 1
   166  168  165 1
   167  169   90 1
   168  170  169 1
   169  171  169 1
   170  172  169 1
   171   22   24 ar
   172   33   35 ar
   173   55   57 ar
   174   75   77 ar
   175  108  110 ar
   176  119  121 ar
   177  141  143 ar
   178  161  163 ar
@<TRIPOS>SUBSTRUCTURE
     1 RES1 1
     2 RES2 87

@<TRIPOS>CRYSIN
   8.0723   26.5310   16.3560  90.0000  92.3250  90.0000   4 1

