# MOL2 file generated by ConQuest
# Please check atom types

@<TRIPOS>MOLECULE
GULGAV
    26    26     2
SMALL
NO_CHARGES
****
Generated from CSD

@<TRIPOS>ATOM
      1 O1         9.7157    1.9602    8.3944 O.2       1 RES1    0.0000
      2 O2        10.1920    1.7661    6.3090 O.2       1 RES1    0.0000
      3 O3         5.7238    3.5413    9.1470 O.2       1 RES1    0.0000
      4 O4         7.8521    3.9277    9.0602 O.2       1 RES1    0.0000
      5 N1         5.8432    2.1598    6.8306 N.3       1 RES1    0.0000
      6 N2         7.5733    1.2854    5.7795 N.2       1 RES1    0.0000
      7 N3         9.3997    1.9031    7.2261 N.pl3     1 RES1    0.0000
      8 N4         6.8432    3.3672    8.6704 N.pl3     1 RES1    0.0000
      9 C1         6.2580    1.4423    5.7908 C.2       1 RES1    0.0000
     10 C2         7.9899    1.9285    6.8926 C.2       1 RES1    0.0000
     11 C3         6.9472    2.4836    7.5562 C.2       1 RES1    0.0000
     12 H1         5.0541    2.3675    7.1427 H         1 RES1    0.0000
     13 H2         5.6623    1.1248    5.1937 H         1 RES1    0.0000
     14 O5        10.9531    1.2309   -0.6410 O.2       2 RES2    0.0000
     15 O6         8.8478    0.7982   -0.8044 O.2       2 RES2    0.0000
     16 O7         6.9180   -0.1923    3.0768 O.2       2 RES2    0.0000
     17 O8         7.2404   -0.4599    0.9565 O.2       2 RES2    0.0000
     18 N5         9.1346    1.1820    3.3798 N.3       2 RES2    0.0000
     19 N6        10.7188    1.7852    1.9603 N.2       2 RES2    0.0000
     20 N7         9.8461    1.0477   -0.1600 N.pl3     2 RES2    0.0000
     21 N8         7.5351   -0.0018    2.0358 N.pl3     2 RES2    0.0000
     22 C4        10.3213    1.7979    3.2142 C.2       2 RES2    0.0000
     23 C5         9.7282    1.1756    1.2810 C.2       2 RES2    0.0000
     24 C6         8.7429    0.7901    2.1304 C.2       2 RES2    0.0000
     25 H3         8.7908    0.9434    4.1347 H         2 RES2    0.0000
     26 H4        10.7913    2.0773    4.0107 H         2 RES2    0.0000
@<TRIPOS>BOND
     1    1    7 2
     2    2    7 2
     3    3    8 2
     4    4    8 2
     5    5    9 1
     6    6    9 2
     7    7   10 1
     8    8   11 1
     9    9   13 1
    10   10    6 1
    11   11    5 1
    12   12    5 1
    13   14   20 2
    14   15   20 2
    15   16   21 2
    16   17   21 2
    17   18   22 1
    18   19   22 2
    19   20   23 1
    20   21   24 1
    21   22   26 1
    22   23   19 1
    23   24   18 1
    24   25   18 1
    25   10   11 2
    26   23   24 2
@<TRIPOS>SUBSTRUCTURE
     1 RES1 1
     2 RES2 14

@<TRIPOS>CRYSIN
  11.5360    9.0710   11.8220  90.0000 107.6400  90.0000 231 1

