# MOL2 file generated by ConQuest
# Please check atom types

@<TRIPOS>MOLECULE
GULGAV01
    26    26     2
SMALL
NO_CHARGES
****
Generated from CSD

@<TRIPOS>ATOM
      1 N1         0.4121    4.4251    9.2027 N.pl3     1 RES1    0.0000
      2 N2        -1.9103    3.3815   11.4131 N.pl3     1 RES1    0.0000
      3 N3        -1.2203    3.2714    7.8647 N.3       1 RES1    0.0000
      4 N4        -2.8094    2.6762    9.2938 N.2       1 RES1    0.0000
      5 O1         1.0008    4.6392    8.1453 O.2       1 RES1    0.0000
      6 O2         0.7576    4.8442   10.2964 O.2       1 RES1    0.0000
      7 O3        -0.9005    3.6254   12.0634 O.2       1 RES1    0.0000
      8 O4        -3.0270    3.2022   11.8962 O.2       1 RES1    0.0000
      9 C1        -0.7982    3.6506    9.1019 C.2       1 RES1    0.0000
     10 C2        -2.4218    2.6798    8.0234 C.2       1 RES1    0.0000
     11 C3        -1.7986    3.2652    9.9735 C.2       1 RES1    0.0000
     12 H1        -2.8572    2.2845    7.3142 H         1 RES1    0.0000
     13 H2        -0.7954    3.4047    7.0783 H         1 RES1    0.0000
     14 N5         5.4153    6.9797    1.5783 N.pl3     2 RES2    0.0000
     15 N6         2.8512    5.5121    3.0487 N.pl3     2 RES2    0.0000
     16 N7         3.5892    7.5691    0.1161 N.2       2 RES2    0.0000
     17 N8         1.8423    6.7013    1.1865 N.pl3     2 RES2    0.0000
     18 O5         6.2122    7.1323    0.6574 O.2       2 RES2    0.0000
     19 O6         5.7281    6.8967    2.7647 O.2       2 RES2    0.0000
     20 O7         3.8664    4.9516    3.4372 O.2       2 RES2    0.0000
     21 O8         1.7268    5.3601    3.5235 O.2       2 RES2    0.0000
     22 C4         4.0134    6.9453    1.2398 C.2       2 RES2    0.0000
     23 C5         2.2687    7.4058    0.1167 C.2       2 RES2    0.0000
     24 C6         2.9500    6.3918    1.9175 C.2       2 RES2    0.0000
     25 H3         1.6894    7.7179   -0.5056 H         2 RES2    0.0000
     26 H4         0.9747    6.5272    1.4314 H         2 RES2    0.0000
@<TRIPOS>BOND
     1    1    5 2
     2    2    7 2
     3    3    9 1
     4    4   10 2
     5    6    1 2
     6    8    2 2
     7    9    1 1
     8   10    3 1
     9   11    2 1
    10   12   10 1
    11   13    3 1
    12   14   18 2
    13   15   20 2
    14   16   22 1
    15   17   23 1
    16   19   14 2
    17   21   15 2
    18   22   14 1
    19   23   16 2
    20   24   15 1
    21   25   23 1
    22   26   17 1
    23    4   11 1
    24    9   11 2
    25   17   24 1
    26   22   24 2
@<TRIPOS>SUBSTRUCTURE
     1 RES1 1
     2 RES2 14

@<TRIPOS>CRYSIN
  11.4797    8.8205   11.8020  90.0000 107.8270  90.0000 231 1

