# MOL2 file generated by ConQuest
# Please check atom types

@<TRIPOS>MOLECULE
GULHEB
    82    80     2
SMALL
NO_CHARGES
****
Generated from CSD

@<TRIPOS>ATOM
      1 C1         3.0868    9.7733   11.9720 C.ar      1 RES1    0.0000
      2 C2         2.7569    9.5111   13.2932 C.ar      1 RES1    0.0000
      3 C3         3.5594    8.7993   14.1916 C.ar      1 RES1    0.0000
      4 C4         4.7859    8.3240   13.7073 C.ar      1 RES1    0.0000
      5 C5         5.1275    8.5616   12.3881 C.ar      1 RES1    0.0000
      6 H1         5.9386    8.2366   12.0721 H         1 RES1    0.0000
      7 C6         4.3043    9.2692   11.5141 C.ar      1 RES1    0.0000
      8 C7         3.1170    8.5278   15.6071 C.3       1 RES1    0.0000
      9 H2         2.1649    8.6270   15.6690 H         1 RES1    0.0000
     10 H3         3.5441    9.1502   16.2011 H         1 RES1    0.0000
     11 H4         3.3621    7.6322   15.8517 H         1 RES1    0.0000
     12 C8         5.7344    7.5681   14.5879 C.3       1 RES1    0.0000
     13 H5         6.4937    7.2855   14.0727 H         1 RES1    0.0000
     14 H6         5.2899    6.7982   14.9519 H         1 RES1    0.0000
     15 H7         6.0279    8.1366   15.3036 H         1 RES1    0.0000
     16 C9         2.2215   10.6151   11.0624 C.3       1 RES1    0.0000
     17 H8         1.9632   10.0903   10.2884 H         1 RES1    0.0000
     18 H9         1.4135   10.8696   11.5354 H         1 RES1    0.0000
     19 C10        4.7331    9.4605   10.0763 C.3       1 RES1    0.0000
     20 H10        5.5469    8.9565    9.9230 H         1 RES1    0.0000
     21 H11        4.0474    9.0971    9.4937 H         1 RES1    0.0000
     22 C11        3.1189   12.8676   11.4774 C.2       1 RES1    0.0000
     23 C12        6.1582   11.4622    9.9877 C.2       1 RES1    0.0000
     24 C13        3.8784   11.7907    9.5432 C.3       1 RES1    0.0000
     25 C14        3.1504   11.5170    8.2148 C.2       1 RES1    0.0000
     26 C15        1.4722   12.2205    6.7326 C.3       1 RES1    0.0000
     27 H12        2.0769   12.4017    5.9972 H         1 RES1    0.0000
     28 H13        1.1273   11.3194    6.6367 H         1 RES1    0.0000
     29 C16        0.3859   13.1794    6.7463 C.3       1 RES1    0.0000
     30 H14       -0.2431   12.9421    7.4314 H         1 RES1    0.0000
     31 H15       -0.0537   13.1763    5.8922 H         1 RES1    0.0000
     32 H16        0.7354   14.0556    6.9221 H         1 RES1    0.0000
     33 C17        4.6001   13.1779    9.6883 C.3       1 RES1    0.0000
     34 C18        4.4343   14.0737    8.4548 C.2       1 RES1    0.0000
     35 C19        3.5079   16.1130    7.6322 C.3       1 RES1    0.0000
     36 H17        3.2362   15.5814    6.8673 H         1 RES1    0.0000
     37 H18        2.7558   16.6699    7.8905 H         1 RES1    0.0000
     38 C20        4.6250   16.9619    7.2540 C.3       1 RES1    0.0000
     39 H19        4.8657   17.5242    7.9955 H         1 RES1    0.0000
     40 H20        4.3728   17.5101    6.5065 H         1 RES1    0.0000
     41 H21        5.3752   16.4153    7.0112 H         1 RES1    0.0000
     42 C21        4.8916   14.5989   11.7247 C.3       1 RES1    0.0000
     43 H22        4.9833   15.4580   11.2864 H         1 RES1    0.0000
     44 H23        4.4628   14.7474   12.5814 H         1 RES1    0.0000
     45 C22        6.8191   13.7515   10.6616 C.3       1 RES1    0.0000
     46 H24        7.6935   13.3575   10.8069 H         1 RES1    0.0000
     47 H25        6.9450   14.5834   10.1788 H         1 RES1    0.0000
     48 C23        6.2231   12.8510   12.8129 C.3       1 RES1    0.0000
     49 H26        7.1089   12.4564   12.7778 H         1 RES1    0.0000
     50 H27        5.5993   12.2002   12.4557 H         1 RES1    0.0000
     51 C24        5.8695   13.1067   14.2565 C.ar      1 RES1    0.0000
     52 C25        6.3216   14.2110   14.9336 C.ar      1 RES1    0.0000
     53 H28        6.7917   14.8724   14.4792 H         1 RES1    0.0000
     54 C26        6.0820   14.3461   16.2847 C.ar      1 RES1    0.0000
     55 H29        6.4150   15.0879   16.7356 H         1 RES1    0.0000
     56 C27        5.3631   13.4090   16.9701 C.ar      1 RES1    0.0000
     57 H30        5.1917   13.5183   17.8774 H         1 RES1    0.0000
     58 C28        4.9023   12.3205   16.3135 C.ar      1 RES1    0.0000
     59 H31        4.4155   11.6708   16.7675 H         1 RES1    0.0000
     60 C29        5.1576   12.1787   14.9661 C.ar      1 RES1    0.0000
     61 H32        4.8350   11.4272   14.5249 H         1 RES1    0.0000
     62 N1         1.4594    9.9982   13.7920 N.pl3     1 RES1    0.0000
     63 N2         2.9216   11.8170   10.6182 N.am      1 RES1    0.0000
     64 N3         4.9673   10.8543    9.7163 N.am      1 RES1    0.0000
     65 N4         4.0342   13.7304   10.9046 N.am      1 RES1    0.0000
     66 N5         6.0043   12.8301    9.8353 N.am      1 RES1    0.0000
     67 N6         6.2079   14.0370   11.9453 N.3       1 RES1    0.0000
     68 O1         1.4526   10.8639   14.6336 O.2       1 RES1    0.0000
     69 O2         0.4432    9.4847   13.3247 O.2       1 RES1    0.0000
     70 O3         2.5616   13.0236   12.5409 O.2       1 RES1    0.0000
     71 O4         7.1883   10.8903   10.2818 O.2       1 RES1    0.0000
     72 O5         3.4161   10.5990    7.4913 O.2       1 RES1    0.0000
     73 O6         2.1722   12.3722    8.0293 O.3       1 RES1    0.0000
     74 O7         4.7888   13.7162    7.3780 O.2       1 RES1    0.0000
     75 O8         3.8526   15.2187    8.7444 O.3       1 RES1    0.0000
     76 C30        0.9846   12.1175    7.2761 Du        2 SUP2    0.0000
     77 C31        1.2602   13.0404    6.0908 Du        2 SUP2    0.0000
     78 H33        0.1808   12.3798    7.7580 Du        2 SUP2    0.0000
     79 H34        0.9106   11.1867    7.0089 Du        2 SUP2    0.0000
     80 H35        1.0445   13.9369    6.3261 Du        2 SUP2    0.0000
     81 H36        0.7282   12.7593    5.3395 Du        2 SUP2    0.0000
     82 H37        2.1919   12.9780    5.8579 Du        2 SUP2    0.0000
@<TRIPOS>BOND
     1    1    2 ar
     2    2    3 ar
     3    3    4 ar
     4    4    5 ar
     5    5    6 1
     6    7    1 ar
     7    8    3 1
     8    9    8 1
     9   10    8 1
    10   11    8 1
    11   12    4 1
    12   13   12 1
    13   14   12 1
    14   15   12 1
    15   16    1 1
    16   17   16 1
    17   18   16 1
    18   19    7 1
    19   20   19 1
    20   21   19 1
    21   22   63 1
    22   23   64 1
    23   24   25 1
    24   25   72 2
    25   26   27 1
    26   28   26 1
    27   29   26 1
    28   30   29 1
    29   31   29 1
    30   32   29 1
    31   33   24 1
    32   34   33 1
    33   35   36 1
    34   37   35 1
    35   38   35 1
    36   39   38 1
    37   40   38 1
    38   41   38 1
    39   42   43 1
    40   44   42 1
    41   45   46 1
    42   47   45 1
    43   48   49 1
    44   50   48 1
    45   51   48 1
    46   52   51 ar
    47   53   52 1
    48   54   52 ar
    49   55   54 1
    50   56   54 ar
    51   57   56 1
    52   58   56 ar
    53   59   58 1
    54   60   51 ar
    55   61   60 1
    56   62    2 1
    57   63   16 1
    58   64   19 1
    59   65   22 1
    60   66   23 1
    61   67   42 1
    62   68   62 2
    63   69   62 2
    64   70   22 2
    65   71   23 2
    66   73   25 1
    67   74   34 2
    68   75   34 1
    69    5    7 ar
    70   24   63 1
    71   24   64 1
    72   26   73 1
    73   33   65 1
    74   33   66 1
    75   35   75 1
    76   42   65 1
    77   45   66 1
    78   45   67 1
    79   48   67 1
    80   58   60 ar
@<TRIPOS>SUBSTRUCTURE
     1 RES1 1
     2 SUP2 76

@<TRIPOS>CRYSIN
   7.9571   15.6173   22.8959  90.0000  94.0820  90.0000  14 1

