# MOL2 file generated by ConQuest
# Please check atom types

@<TRIPOS>MOLECULE
GULHOK
    19    20     1
SMALL
NO_CHARGES
****
Generated from CSD

@<TRIPOS>ATOM
      1 O1         2.8590    3.2176   15.0117 O.3       1 RES1    0.0000
      2 O2         1.6199    4.7387   12.1688 O.2       1 RES1    0.0000
      3 O3         3.7526    4.4099   12.7438 O.3       1 RES1    0.0000
      4 O4        -0.2036    1.0272   13.4777 O.3       1 RES1    0.0000
      5 O5         0.1124    1.2157   15.6854 O.2       1 RES1    0.0000
      6 N1         2.1401    4.3675   15.5975 N.3       1 RES1    0.0000
      7 C1         2.5830    4.3734   16.9989 C.3       1 RES1    0.0000
      8 C2         1.9954    5.5672   17.7251 C.3       1 RES1    0.0000
      9 C3         0.6451    5.8843   17.6665 C.3       1 RES1    0.0000
     10 C4        -0.1139    6.2408   16.4794 C.3       1 RES1    0.0000
     11 C5        -0.1455    5.2442   15.3000 C.3       1 RES1    0.0000
     12 C6         0.7124    3.9949   15.4603 C.3       1 RES1    0.0000
     13 C7         0.6751    3.0685   14.2331 C.3       1 RES1    0.0000
     14 C8         2.1536    3.0145   13.7968 C.3       1 RES1    0.0000
     15 C9         2.4445    4.1776   12.8209 C.2       1 RES1    0.0000
     16 C10        4.1797    5.4444   11.8234 C.3       1 RES1    0.0000
     17 C11        2.6703    1.7286   13.1832 C.3       1 RES1    0.0000
     18 C12        0.1676    1.6818   14.5846 C.2       1 RES1    0.0000
     19 C13       -0.5718   -0.3682   13.6580 C.3       1 RES1    0.0000
@<TRIPOS>BOND
     1    1    6 1
     2    2   15 2
     3    3   15 1
     4    4   18 1
     5    5   18 2
     6    6    7 1
     7    7    8 1
     8    8    9 1
     9    9   10 1
    10   10   11 1
    11   11   12 1
    12   12    6 1
    13   13   12 1
    14   14    1 1
    15   15   14 1
    16   16    3 1
    17   17   14 1
    18   18   13 1
    19   19    4 1
    20   13   14 1
@<TRIPOS>SUBSTRUCTURE
     1 RES1 1

@<TRIPOS>CRYSIN
   6.2250   14.6120   15.5200  90.0000  96.6000  90.0000 231 1

