# MOL2 file generated by ConQuest
# Please check atom types

@<TRIPOS>MOLECULE
GULZUI
    57    59     1
SMALL
NO_CHARGES
****
Generated from CSD

@<TRIPOS>ATOM
      1 N1         5.6013    2.0809    4.6922 N.pl3     1 RES1    0.0000
      2 N2         5.3757    0.7234    0.0135 N.pl3     1 RES1    0.0000
      3 O1         2.8650    5.6440    2.4343 O.3       1 RES1    0.0000
      4 O2         2.9706    5.2193    0.2205 O.2       1 RES1    0.0000
      5 O3         5.5960    3.0212    5.4691 O.2       1 RES1    0.0000
      6 O4         5.9943    0.9503    4.9594 O.2       1 RES1    0.0000
      7 O5         6.0823   -0.2258    0.3182 O.2       1 RES1    0.0000
      8 O6         4.9728    0.9369   -1.1161 O.2       1 RES1    0.0000
      9 C1        -0.0359    6.1112    3.4418 C.3       1 RES1    0.0000
     10 C2         1.2124    7.0336    3.4656 C.3       1 RES1    0.0000
     11 C3         2.0874    6.8704    2.2099 C.3       1 RES1    0.0000
     12 C4         3.2157    4.9317    1.3679 C.2       1 RES1    0.0000
     13 C5         3.0945    7.9806    1.9618 C.3       1 RES1    0.0000
     14 C6         0.7868    8.4967    3.6814 C.3       1 RES1    0.0000
     15 C7        -0.1241    9.0706    2.5953 C.3       1 RES1    0.0000
     16 C8         3.9812    3.7035    1.7556 C.ar      1 RES1    0.0000
     17 C9         4.3971    3.4741    3.0606 C.ar      1 RES1    0.0000
     18 C10        5.1103    2.3165    3.3250 C.ar      1 RES1    0.0000
     19 C11        5.4215    1.3882    2.3606 C.ar      1 RES1    0.0000
     20 C12        4.9955    1.6616    1.0763 C.ar      1 RES1    0.0000
     21 C13        4.2824    2.7941    0.7476 C.ar      1 RES1    0.0000
     22 C14       -0.8506    6.2531    4.7227 C.ar      1 RES1    0.0000
     23 C15       -2.2197    6.4746    4.6447 C.ar      1 RES1    0.0000
     24 C16       -2.9928    6.5912    5.7892 C.ar      1 RES1    0.0000
     25 C17       -2.4070    6.4917    7.0337 C.ar      1 RES1    0.0000
     26 C18       -1.0603    6.2877    7.1316 C.ar      1 RES1    0.0000
     27 C19       -0.2813    6.1733    5.9904 C.ar      1 RES1    0.0000
     28 C20        0.2613    4.6500    3.1048 C.ar      1 RES1    0.0000
     29 C21        0.7659    3.7523    4.0444 C.ar      1 RES1    0.0000
     30 C22        1.0778    2.4531    3.6934 C.ar      1 RES1    0.0000
     31 C23        0.8973    2.0137    2.3919 C.ar      1 RES1    0.0000
     32 C24        0.3875    2.8918    1.4519 C.ar      1 RES1    0.0000
     33 C25        0.0611    4.1935    1.8064 C.ar      1 RES1    0.0000
     34 H1        -0.6124    6.4501    2.7113 H         1 RES1    0.0000
     35 H2         1.7616    6.7673    4.2455 H         1 RES1    0.0000
     36 H3         1.5096    6.7597    1.4136 H         1 RES1    0.0000
     37 H4         3.6985    7.7161    1.2515 H         1 RES1    0.0000
     38 H5         3.6012    8.1438    2.7728 H         1 RES1    0.0000
     39 H6         2.6269    8.7899    1.7034 H         1 RES1    0.0000
     40 H7         0.3239    8.5609    4.5424 H         1 RES1    0.0000
     41 H8         1.5930    9.0512    3.7369 H         1 RES1    0.0000
     42 H9        -0.2185   10.0276    2.7255 H         1 RES1    0.0000
     43 H10       -0.9956    8.6483    2.6486 H         1 RES1    0.0000
     44 H11        0.2646    8.9008    1.7235 H         1 RES1    0.0000
     45 H12        4.2001    4.0871    3.7451 H         1 RES1    0.0000
     46 H13        5.9011    0.6060    2.5658 H         1 RES1    0.0000
     47 H14        4.0212    2.9491   -0.1372 H         1 RES1    0.0000
     48 H15       -2.6292    6.5471    3.8019 H         1 RES1    0.0000
     49 H16       -3.9184    6.7384    5.7159 H         1 RES1    0.0000
     50 H17       -2.9312    6.5649    7.8096 H         1 RES1    0.0000
     51 H18       -0.6573    6.2242    7.9788 H         1 RES1    0.0000
     52 H19        0.6455    6.0396    6.0743 H         1 RES1    0.0000
     53 H20        0.8956    4.0349    4.9316 H         1 RES1    0.0000
     54 H21        1.4158    1.8619    4.3425 H         1 RES1    0.0000
     55 H22        1.1179    1.1326    2.1517 H         1 RES1    0.0000
     56 H23        0.2610    2.6048    0.5654 H         1 RES1    0.0000
     57 H24       -0.2996    4.7745    1.1604 H         1 RES1    0.0000
@<TRIPOS>BOND
     1    1    5 2
     2    2    7 2
     3    3   11 1
     4    4   12 2
     5    6    1 2
     6    8    2 2
     7    9   10 1
     8   10   11 1
     9   11   13 1
    10   12    3 1
    11   13   37 1
    12   14   10 1
    13   15   14 1
    14   16   12 1
    15   17   16 ar
    16   18    1 1
    17   19   18 ar
    18   20    2 1
    19   21   16 ar
    20   22    9 1
    21   23   22 ar
    22   24   23 ar
    23   25   24 ar
    24   26   25 ar
    25   27   22 ar
    26   28    9 1
    27   29   28 ar
    28   30   29 ar
    29   31   30 ar
    30   32   31 ar
    31   33   28 ar
    32   34    9 1
    33   35   10 1
    34   36   11 1
    35   38   13 1
    36   39   13 1
    37   40   14 1
    38   41   14 1
    39   42   15 1
    40   43   15 1
    41   44   15 1
    42   45   17 1
    43   46   19 1
    44   47   21 1
    45   48   23 1
    46   49   24 1
    47   50   25 1
    48   51   26 1
    49   52   27 1
    50   53   29 1
    51   54   30 1
    52   55   31 1
    53   56   32 1
    54   57   33 1
    55   17   18 ar
    56   19   20 ar
    57   20   21 ar
    58   26   27 ar
    59   32   33 ar
@<TRIPOS>SUBSTRUCTURE
     1 RES1 1

@<TRIPOS>CRYSIN
   7.8420   12.1270   12.9730  65.7600  86.4300  81.3100   2 1

