# MOL2 file generated by ConQuest
# Please check atom types

@<TRIPOS>MOLECULE
GUMFUR
    46    48     1
SMALL
NO_CHARGES
****
Generated from CSD

@<TRIPOS>ATOM
      1 O1         7.1732    7.8992    2.8444 O.2       1 RES1    0.0000
      2 O2         8.9978    6.8537    2.3730 O.2       1 RES1    0.0000
      3 N1         7.3628    3.9505    4.7764 N.3       1 RES1    0.0000
      4 N2         6.2476    5.8042    4.2837 N.2       1 RES1    0.0000
      5 N3         7.9045    6.9174    2.9171 N.pl3     1 RES1    0.0000
      6 C1         6.2154    4.6648    4.9231 C.2       1 RES1    0.0000
      7 H1         5.4717    4.3680    5.4348 H         1 RES1    0.0000
      8 C2         7.4778    5.8007    3.6961 C.2       1 RES1    0.0000
      9 C3         8.2054    4.6755    3.9742 C.2       1 RES1    0.0000
     10 C4         7.6476    2.6543    5.4135 C.3       1 RES1    0.0000
     11 H2         8.4209    2.2316    4.9618 H         1 RES1    0.0000
     12 H3         6.8659    2.0568    5.3019 H         1 RES1    0.0000
     13 C5         7.9505    2.8080    6.8811 C.ar      1 RES1    0.0000
     14 C6         6.9146    2.9573    7.7976 C.ar      1 RES1    0.0000
     15 H4         6.0120    2.9257    7.5023 H         1 RES1    0.0000
     16 C7         7.1960    3.1513    9.1343 C.ar      1 RES1    0.0000
     17 H5         6.4850    3.2637    9.7536 H         1 RES1    0.0000
     18 C8         8.5001    3.1836    9.5762 C.ar      1 RES1    0.0000
     19 H6         8.6884    3.3244   10.4962 H         1 RES1    0.0000
     20 C9         9.5349    3.0102    8.6763 C.ar      1 RES1    0.0000
     21 H7        10.4345    3.0200    8.9798 H         1 RES1    0.0000
     22 C10        9.2603    2.8233    7.3370 C.ar      1 RES1    0.0000
     23 H8         9.9739    2.7041    6.7226 H         1 RES1    0.0000
     24 C11        9.5394    4.1862    3.5743 C.ar      1 RES1    0.0000
     25 C12       10.6366    4.3379    4.4035 C.ar      1 RES1    0.0000
     26 H9        10.5456    4.7954    5.2315 H         1 RES1    0.0000
     27 C13       11.8670    3.8245    4.0300 C.ar      1 RES1    0.0000
     28 H10       12.6113    3.9397    4.6101 H         1 RES1    0.0000
     29 C14       12.0408    3.1531    2.8430 C.ar      1 RES1    0.0000
     30 C15       10.9411    3.0233    2.0158 C.ar      1 RES1    0.0000
     31 H11       11.0368    2.5762    1.1823 H         1 RES1    0.0000
     32 C16        9.7079    3.5270    2.3715 C.ar      1 RES1    0.0000
     33 H12        8.9687    3.4204    1.7842 H         1 RES1    0.0000
     34 C17       13.3843    2.5970    2.4426 C.3       1 RES1    0.0000
     35 H13       13.2928    1.6245    2.2806 H         1 RES1    0.0000
     36 H14       14.0177    2.7189    3.1932 H         1 RES1    0.0000
     37 C18       13.9653    3.2473    1.2021 C.3       1 RES1    0.0000
     38 H15       14.0159    4.2252    1.3465 H         1 RES1    0.0000
     39 H16       13.3547    3.0856    0.4397 H         1 RES1    0.0000
     40 C19       15.3530    2.7271    0.8435 C.3       1 RES1    0.0000
     41 H17       15.3023    1.7459    0.7211 H         1 RES1    0.0000
     42 H18       15.6256    3.1226   -0.0215 H         1 RES1    0.0000
     43 C20       16.4152    3.0315    1.8673 C.3       1 RES1    0.0000
     44 H19       17.2717    2.6582    1.5712 H         1 RES1    0.0000
     45 H20       16.1653    2.6311    2.7262 H         1 RES1    0.0000
     46 H21       16.5001    4.0021    1.9718 H         1 RES1    0.0000
@<TRIPOS>BOND
     1    1    5 2
     2    2    5 2
     3    3    6 1
     4    4    6 2
     5    5    8 1
     6    6    7 1
     7    8    4 1
     8    9    3 1
     9   10    3 1
    10   11   10 1
    11   12   10 1
    12   13   10 1
    13   14   13 ar
    14   15   14 1
    15   16   14 ar
    16   17   16 1
    17   18   16 ar
    18   19   18 1
    19   20   18 ar
    20   21   20 1
    21   22   13 ar
    22   23   22 1
    23   24    9 1
    24   25   24 ar
    25   26   25 1
    26   27   25 ar
    27   28   27 1
    28   29   27 ar
    29   30   29 ar
    30   31   30 1
    31   32   24 ar
    32   33   32 1
    33   34   29 1
    34   35   34 1
    35   36   34 1
    36   37   34 1
    37   38   37 1
    38   39   37 1
    39   40   37 1
    40   41   40 1
    41   42   40 1
    42   43   40 1
    43   44   43 1
    44   45   43 1
    45   46   43 1
    46    8    9 2
    47   20   22 ar
    48   30   32 ar
@<TRIPOS>SUBSTRUCTURE
     1 RES1 1

@<TRIPOS>CRYSIN
  11.0383    8.2043   19.5592  90.0000  92.3720  90.0000  14 1

