# MOL2 file generated by ConQuest
# Please check atom types

@<TRIPOS>MOLECULE
GUMGEB
    30    31     1
SMALL
NO_CHARGES
****
Generated from CSD

@<TRIPOS>ATOM
      1 C1        14.8444    3.6721    4.6358 C.ar      1 RES1    0.0000
      2 H1        15.2434    2.8316    4.6476 H         1 RES1    0.0000
      3 C2        13.9786    4.0399    5.6421 C.ar      1 RES1    0.0000
      4 H2        13.7928    3.4476    6.3347 H         1 RES1    0.0000
      5 C3        13.3890    5.2834    5.6230 C.ar      1 RES1    0.0000
      6 H3        12.8003    5.5293    6.2992 H         1 RES1    0.0000
      7 C4        13.6688    6.1612    4.6079 C.ar      1 RES1    0.0000
      8 H4        13.2762    7.0046    4.6003 H         1 RES1    0.0000
      9 C5        14.5267    5.7958    3.6027 C.ar      1 RES1    0.0000
     10 H5        14.7089    6.3921    2.9132 H         1 RES1    0.0000
     11 C6        15.1209    4.5556    3.6047 C.ar      1 RES1    0.0000
     12 C7        16.0739    4.1762    2.5432 C.2       1 RES1    0.0000
     13 C8        17.2703    3.2264    0.8792 C.2       1 RES1    0.0000
     14 C9        16.0652    3.0673    1.6383 C.2       1 RES1    0.0000
     15 C10       15.1808    2.0791    1.3249 C.2       1 RES1    0.0000
     16 C11       13.8284    1.8517    1.8935 C.3       1 RES1    0.0000
     17 H6        13.6563    2.5487    2.5602 H         1 RES1    0.0000
     18 C12       12.7746    1.9635    0.8084 C.3       1 RES1    0.0000
     19 H7        12.8458    2.8202    0.3800 H         1 RES1    0.0000
     20 H8        11.9020    1.8728    1.1990 H         1 RES1    0.0000
     21 H9        12.9091    1.2691    0.1587 H         1 RES1    0.0000
     22 C13       13.7635    0.5006    2.5906 C.3       1 RES1    0.0000
     23 H10       13.9081   -0.1983    1.9489 H         1 RES1    0.0000
     24 H11       12.8994    0.3895    2.9942 H         1 RES1    0.0000
     25 H12       14.4409    0.4574    3.2695 H         1 RES1    0.0000
     26 N1        17.1220    4.9210    2.3758 N.2       1 RES1    0.0000
     27 O1        17.8981    4.3344    1.3048 O.3       1 RES1    0.0000
     28 O2        17.7112    2.5330   -0.0365 O.2       1 RES1    0.0000
     29 O3        15.5007    1.2095    0.3771 O.3       1 RES1    0.0000
     30 H13       16.3496    1.4630    0.0676 H         1 RES1    0.0000
@<TRIPOS>BOND
     1    1    2 1
     2    3    1 ar
     3    4    3 1
     4    5    3 ar
     5    6    5 1
     6    7    5 ar
     7    8    7 1
     8    9    7 ar
     9   10    9 1
    10   11    1 ar
    11   12   11 1
    12   13   14 1
    13   14   12 1
    14   15   14 2
    15   16   15 1
    16   17   16 1
    17   18   16 1
    18   19   18 1
    19   20   18 1
    20   21   18 1
    21   22   16 1
    22   23   22 1
    23   24   22 1
    24   25   22 1
    25   26   12 2
    26   27   13 1
    27   28   13 2
    28   29   15 1
    29   30   29 1
    30    9   11 ar
    31   26   27 1
@<TRIPOS>SUBSTRUCTURE
     1 RES1 1

@<TRIPOS>CRYSIN
  16.2440    8.8130   16.8880  90.0000  90.0000  90.0000  61 1

