# MOL2 file generated by ConQuest
# Please check atom types

@<TRIPOS>MOLECULE
GUMLEH
    56    61     1
SMALL
NO_CHARGES
****
Generated from CSD

@<TRIPOS>ATOM
      1 C1         2.6813    3.8068    4.9199 C.ar      1 RES1    0.0000
      2 H1         3.2931    3.8621    5.6178 H         1 RES1    0.0000
      3 C2         1.9325    2.6435    4.7554 C.ar      1 RES1    0.0000
      4 H2         2.0626    1.9318    5.3396 H         1 RES1    0.0000
      5 C3         1.0011    2.5272    3.7419 C.ar      1 RES1    0.0000
      6 C4         0.1712    1.2781    3.5650 C.3       1 RES1    0.0000
      7 H3         0.3544    0.8897    2.7066 H         1 RES1    0.0000
      8 H4        -0.7600    1.5029    3.6227 H         1 RES1    0.0000
      9 H5         0.3905    0.6486    4.2566 H         1 RES1    0.0000
     10 C5         0.8370    3.6069    2.9033 C.ar      1 RES1    0.0000
     11 H6         0.2068    3.5587    2.2197 H         1 RES1    0.0000
     12 C6         1.5881    4.7702    3.0523 C.ar      1 RES1    0.0000
     13 H7         1.4566    5.4805    2.4661 H         1 RES1    0.0000
     14 C7         2.5293    4.8815    4.0636 C.ar      1 RES1    0.0000
     15 C8         3.3721    6.1469    4.1733 C.3       1 RES1    0.0000
     16 H8         2.8122    6.9288    3.9843 H         1 RES1    0.0000
     17 C9         4.5884    6.1192    3.1755 C.3       1 RES1    0.0000
     18 H9         4.5483    5.3359    2.5893 H         1 RES1    0.0000
     19 C10        4.6044    7.4236    2.3614 C.2       1 RES1    0.0000
     20 C11        3.7043    7.5186    1.1655 C.ar      1 RES1    0.0000
     21 C12        3.3986    6.4248    0.3710 C.ar      1 RES1    0.0000
     22 H10        3.7094    5.5798    0.6041 H         1 RES1    0.0000
     23 C13        2.6275    6.5906   -0.7730 C.ar      1 RES1    0.0000
     24 H11        2.4148    5.8591   -1.3076 H         1 RES1    0.0000
     25 C14        2.1869    7.8348   -1.1069 C.ar      1 RES1    0.0000
     26 H12        1.6780    7.9404   -1.8779 H         1 RES1    0.0000
     27 C15        2.4727    8.9492   -0.3319 C.ar      1 RES1    0.0000
     28 H13        2.1541    9.7899   -0.5703 H         1 RES1    0.0000
     29 C16        3.2486    8.7783    0.8128 C.ar      1 RES1    0.0000
     30 H14        3.4616    9.5127    1.3414 H         1 RES1    0.0000
     31 C17        4.0790    6.3397    5.4823 C.2       1 RES1    0.0000
     32 C18        5.4508    6.2589    5.3662 C.2       1 RES1    0.0000
     33 C19        6.4777    6.3567    6.3312 C.2       1 RES1    0.0000
     34 H15        6.2634    6.4354    7.2334 H         1 RES1    0.0000
     35 C20        7.7682    6.3369    5.9455 C.2       1 RES1    0.0000
     36 H16        8.4374    6.4205    6.5856 H         1 RES1    0.0000
     37 C21        8.1289    6.1901    4.5757 C.ar      1 RES1    0.0000
     38 C22        9.4848    6.1703    4.1964 C.ar      1 RES1    0.0000
     39 H17       10.1407    6.2823    4.8468 H         1 RES1    0.0000
     40 C23        9.8579    5.9909    2.9005 C.ar      1 RES1    0.0000
     41 H18       10.7577    6.0030    2.6668 H         1 RES1    0.0000
     42 C24        8.8692    5.7868    1.9093 C.ar      1 RES1    0.0000
     43 C25        9.2074    5.5237    0.5743 C.ar      1 RES1    0.0000
     44 H19       10.1017    5.4926    0.3199 H         1 RES1    0.0000
     45 C26        8.2358    5.3139   -0.3418 C.ar      1 RES1    0.0000
     46 H20        8.4524    5.1296   -1.2261 H         1 RES1    0.0000
     47 C27        6.9010    5.3784    0.0654 C.ar      1 RES1    0.0000
     48 H21        6.2415    5.2529   -0.5763 H         1 RES1    0.0000
     49 C28        7.4982    5.8158    2.2370 C.ar      1 RES1    0.0000
     50 C29        7.1226    6.0356    3.6151 C.ar      1 RES1    0.0000
     51 N1         3.3941    6.5701    6.6627 N.pl3     1 RES1    0.0000
     52 N2         5.8006    6.0809    4.0438 N.pl3     1 RES1    0.0000
     53 N3         6.5213    5.6095    1.3167 N.ar      1 RES1    0.0000
     54 O1         2.1460    6.6970    6.6003 O.2       1 RES1    0.0000
     55 O2         4.0064    6.6381    7.7600 O.2       1 RES1    0.0000
     56 O3         5.2586    8.3749    2.7334 O.2       1 RES1    0.0000
@<TRIPOS>BOND
     1    1    2 1
     2    3    1 ar
     3    4    3 1
     4    5    3 ar
     5    6    5 1
     6    7    6 1
     7    8    6 1
     8    9    6 1
     9   10    5 ar
    10   11   10 1
    11   12   10 ar
    12   13   12 1
    13   14    1 ar
    14   15   14 1
    15   16   15 1
    16   17   15 1
    17   18   17 1
    18   19   17 1
    19   20   19 1
    20   21   20 ar
    21   22   21 1
    22   23   21 ar
    23   24   23 1
    24   25   23 ar
    25   26   25 1
    26   27   25 ar
    27   28   27 1
    28   29   20 ar
    29   30   29 1
    30   31   15 1
    31   32   31 2
    32   33   32 1
    33   34   33 1
    34   35   33 2
    35   36   35 1
    36   37   35 1
    37   38   37 ar
    38   39   38 1
    39   40   38 ar
    40   41   40 1
    41   42   40 ar
    42   43   42 ar
    43   44   43 1
    44   45   43 ar
    45   46   45 1
    46   47   45 ar
    47   48   47 1
    48   49   42 ar
    49   50   37 ar
    50   51   31 1
    51   52   17 1
    52   53   47 ar
    53   54   51 2
    54   55   51 2
    55   56   19 2
    56   12   14 ar
    57   27   29 ar
    58   32   52 1
    59   49   50 ar
    60   49   53 ar
    61   50   52 1
@<TRIPOS>SUBSTRUCTURE
     1 RES1 1

@<TRIPOS>CRYSIN
  16.0340    7.0890   19.8960  90.0000  92.8130  90.0000  14 1

