# MOL2 file generated by ConQuest
# Please check atom types

@<TRIPOS>MOLECULE
GUNHOO
    80    76     3
SMALL
NO_CHARGES
****
Generated from CSD

@<TRIPOS>ATOM
      1 O1        -1.0508    7.9199   11.5222 O.3       1 RES1    0.0000
      2 O2         0.2433    9.3115   10.1710 O.3       1 RES1    0.0000
      3 O3        -5.4531    8.8648   17.1362 O.2       1 RES1    0.0000
      4 O4        -3.7660    7.6833   17.7650 O.2       1 RES1    0.0000
      5 O5         2.1341   11.9650    8.9034 O.2       1 RES1    0.0000
      6 N1        -4.3759    8.3211   16.9139 N.pl3     1 RES1    0.0000
      7 C1        -3.7989    8.4359   15.5673 C.ar      1 RES1    0.0000
      8 C2        -2.6913    8.6855   13.0570 C.ar      1 RES1    0.0000
      9 C3        -2.5850    7.8317   15.3118 C.ar      1 RES1    0.0000
     10 H1        -2.1334    7.3410   15.9882 H         1 RES1    0.0000
     11 C4        -4.4866    9.1488   14.6029 C.ar      1 RES1    0.0000
     12 H2        -5.3263    9.5486   14.7987 H         1 RES1    0.0000
     13 C5        -0.6978   10.3938   10.2489 C.3       1 RES1    0.0000
     14 H3        -1.3334   10.3284    9.4788 H         1 RES1    0.0000
     15 C6        -0.4126    8.0549   10.2641 C.3       1 RES1    0.0000
     16 H4        -1.0895    7.9729    9.5326 H         1 RES1    0.0000
     17 C7        -1.4845   10.3045   11.5513 C.3       1 RES1    0.0000
     18 H5        -2.2119   10.9765   11.5493 H         1 RES1    0.0000
     19 H6        -0.8874   10.4979   12.3173 H         1 RES1    0.0000
     20 C8        -2.0398    7.9565   14.0449 C.ar      1 RES1    0.0000
     21 H7        -1.2096    7.5373   13.8477 H         1 RES1    0.0000
     22 C9        -3.9222    9.2655   13.3489 C.ar      1 RES1    0.0000
     23 H8        -4.3817    9.7503   12.6725 H         1 RES1    0.0000
     24 C10        0.9490   11.7141    8.8627 C.2       1 RES1    0.0000
     25 C11       -2.0776    8.9006   11.6997 C.3       1 RES1    0.0000
     26 H9        -2.7798    8.7688   11.0003 H         1 RES1    0.0000
     27 C12        0.1103   11.6686   10.1159 C.3       1 RES1    0.0000
     28 H10       -0.5082   12.4420   10.1176 H         1 RES1    0.0000
     29 H11        0.7040   11.7563   10.9034 H         1 RES1    0.0000
     30 C13        0.6011    6.9653   10.1359 C.3       1 RES1    0.0000
     31 H12        1.2393    7.0237   10.8765 H         1 RES1    0.0000
     32 H13        1.0783    7.0613    9.2850 H         1 RES1    0.0000
     33 H14        0.1506    6.0960   10.1606 H         1 RES1    0.0000
     34 C14        0.2522   11.4484    7.5665 C.3       1 RES1    0.0000
     35 H15        0.8304   11.7187    6.8234 H         1 RES1    0.0000
     36 H16       -0.5825   11.9607    7.5339 H         1 RES1    0.0000
     37 H17        0.0510   10.4925    7.4944 H         1 RES1    0.0000
     38 O6         1.0760    2.7051   13.5336 O.3       2 RES2    0.0000
     39 O7        -0.7509    5.2218   15.0490 O.2       2 RES2    0.0000
     40 O8         2.1425    1.3520   11.9841 O.3       2 RES2    0.0000
     41 O9         5.9492    2.1144    5.9435 O.2       2 RES2    0.0000
     42 O10        4.1114    1.1213    5.4239 O.2       2 RES2    0.0000
     43 N2         4.8419    1.6707    6.2299 N.pl3     2 RES2    0.0000
     44 C15        2.7556    1.4402    9.3041 C.ar      2 RES2    0.0000
     45 H18        1.9252    1.0729    9.5829 H         2 RES2    0.0000
     46 C16        3.1655    1.2757    7.9909 C.ar      2 RES2    0.0000
     47 H19        2.6265    0.8067    7.3652 H         2 RES2    0.0000
     48 C17        3.5355    2.1292   10.2166 C.ar      2 RES2    0.0000
     49 C18        2.4826    3.7356   11.8621 C.3       2 RES2    0.0000
     50 H20        1.7513    3.8883   11.2120 H         2 RES2    0.0000
     51 H21        3.1715    4.4342   11.7234 H         2 RES2    0.0000
     52 C19        4.3760    1.8124    7.6207 C.ar      2 RES2    0.0000
     53 C20        1.1009    5.0432   13.5684 C.3       2 RES2    0.0000
     54 H22        0.4048    5.1279   12.8699 H         2 RES2    0.0000
     55 H23        1.6756    5.8486   13.5230 H         2 RES2    0.0000
     56 C21        0.4361    4.9862   14.9243 C.2       2 RES2    0.0000
     57 C22        1.9370    3.8227   13.2863 C.3       2 RES2    0.0000
     58 H24        2.7008    3.7942   13.9303 H         2 RES2    0.0000
     59 C23        5.1804    2.4973    8.4967 C.ar      2 RES2    0.0000
     60 H25        6.0119    2.8584    8.2121 H         2 RES2    0.0000
     61 C24        3.0935    2.3548   11.6356 C.3       2 RES2    0.0000
     62 H26        3.8890    2.2588   12.2347 H         2 RES2    0.0000
     63 C25        4.7519    2.6479    9.7991 C.ar      2 RES2    0.0000
     64 H27        5.2991    3.1139   10.4208 H         2 RES2    0.0000
     65 C26        1.2805    4.6119   16.1066 C.3       2 RES2    0.0000
     66 H28        0.8280    4.8859   16.9320 H         2 RES2    0.0000
     67 H29        2.1487    5.0634   16.0438 H         2 RES2    0.0000
     68 H30        1.4165    3.6409   16.1174 H         2 RES2    0.0000
     69 C27        1.6485    1.4225   13.3200 C.3       2 RES2    0.0000
     70 H31        2.4017    1.2827   13.9626 H         2 RES2    0.0000
     71 C28        0.5822    0.3684   13.5481 C.3       2 RES2    0.0000
     72 H32        0.3054    0.3818   14.4883 H         2 RES2    0.0000
     73 H33        0.9445   -0.5163   13.3274 H         2 RES2    0.0000
     74 H34       -0.1911    0.5566   12.9775 H         2 RES2    0.0000
     75 C29        1.2113    0.4195   13.9016 Du        3 SUP3    0.0000
     76 H35        1.0327    0.5405   14.8561 Du        3 SUP3    0.0000
     77 H36        1.7436   -0.3926   13.7670 Du        3 SUP3    0.0000
     78 H37        0.3639    0.3388   13.4171 Du        3 SUP3    0.0000
     79 C30        1.9807    1.6188   13.3776 Du        3 SUP3    0.0000
     80 H38        2.8500    1.7613   13.8513 Du        3 SUP3    0.0000
@<TRIPOS>BOND
     1    1   15 1
     2    2   13 1
     3    3    6 2
     4    4    6 2
     5    5   24 2
     6    6    7 1
     7    7    9 ar
     8    8   20 ar
     9    9   10 1
    10   11    7 ar
    11   12   11 1
    12   13   14 1
    13   15    2 1
    14   16   15 1
    15   17   13 1
    16   18   17 1
    17   19   17 1
    18   20    9 ar
    19   21   20 1
    20   22    8 ar
    21   23   22 1
    22   24   27 1
    23   25    1 1
    24   26   25 1
    25   27   13 1
    26   28   27 1
    27   29   27 1
    28   30   15 1
    29   31   30 1
    30   32   30 1
    31   33   30 1
    32   34   24 1
    33   35   34 1
    34   36   34 1
    35   37   34 1
    36   38   57 1
    37   39   56 2
    38   40   61 1
    39   41   43 2
    40   42   43 2
    41   43   52 1
    42   44   45 1
    43   46   44 ar
    44   47   46 1
    45   48   44 ar
    46   49   50 1
    47   51   49 1
    48   52   46 ar
    49   53   54 1
    50   55   53 1
    51   56   53 1
    52   57   49 1
    53   58   57 1
    54   59   52 ar
    55   60   59 1
    56   61   48 1
    57   62   61 1
    58   63   48 ar
    59   64   63 1
    60   65   56 1
    61   66   65 1
    62   67   65 1
    63   68   65 1
    64   69   38 1
    65   70   69 1
    66   71   69 1
    67   72   71 1
    68   73   71 1
    69   74   71 1
    70    8   25 1
    71   11   22 ar
    72   17   25 1
    73   40   69 1
    74   49   61 1
    75   53   57 1
    76   59   63 ar
@<TRIPOS>SUBSTRUCTURE
     1 RES1 1
     2 RES2 38
     3 SUP3 75

@<TRIPOS>CRYSIN
   5.7034   26.8900   18.2435  90.0000 100.4290  90.0000  14 1

