# MOL2 file generated by ConQuest
# Please check atom types

@<TRIPOS>MOLECULE
GUNKOQ
    87    91     1
SMALL
NO_CHARGES
****
Generated from CSD

@<TRIPOS>ATOM
      1 O1         0.1783    4.8083   13.8581 O.3       1 RES1    0.0000
      2 O2         0.6863    6.6828   15.0083 O.2       1 RES1    0.0000
      3 O3         2.9077    4.5893   20.9500 O.2       1 RES1    0.0000
      4 O4         4.5357    3.2415   21.3341 O.2       1 RES1    0.0000
      5 O5         4.3761   -0.8615   16.8750 O.2       1 RES1    0.0000
      6 O6         5.2386   -0.7047   18.8339 O.2       1 RES1    0.0000
      7 N1         0.5310    4.6997   17.8455 N.2       1 RES1    0.0000
      8 N2         1.4841    4.3625   18.7598 N.pl3     1 RES1    0.0000
      9 H1         1.6025    4.8511   19.4561 H         1 RES1    0.0000
     10 N3         3.5610    3.5890   20.6580 N.pl3     1 RES1    0.0000
     11 N4         4.5123   -0.2986   17.9466 N.pl3     1 RES1    0.0000
     12 C1        -1.0615    5.3036   15.7788 C.2       1 RES1    0.0000
     13 C2        -1.8797    4.2979   15.6395 C.2       1 RES1    0.0000
     14 H2        -1.8671    3.7362   14.8982 H         1 RES1    0.0000
     15 C3        -2.8406    4.1242   16.7739 C.3       1 RES1    0.0000
     16 H3        -2.6068    3.3574   17.3198 H         1 RES1    0.0000
     17 H4        -3.7509    4.0234   16.4549 H         1 RES1    0.0000
     18 C4        -2.6606    5.4568   17.5624 C.3       1 RES1    0.0000
     19 H5        -2.5942    5.2463   18.5171 H         1 RES1    0.0000
     20 C5        -1.2894    6.0149   17.0862 C.3       1 RES1    0.0000
     21 H6        -1.3546    6.9808   16.9334 H         1 RES1    0.0000
     22 C6         0.0086    5.6909   14.8780 C.2       1 RES1    0.0000
     23 C7         0.0961    5.1582   10.9400 C.3       1 RES1    0.0000
     24 H7        -0.6936    5.2204   11.5173 H         1 RES1    0.0000
     25 C8        -0.3446    4.4717    9.6483 C.3       1 RES1    0.0000
     26 H8        -0.5330    3.5468    9.8258 H         1 RES1    0.0000
     27 H9         0.3559    4.5356    8.9969 H         1 RES1    0.0000
     28 H10       -1.1366    4.9000    9.3136 H         1 RES1    0.0000
     29 C9         0.5133    6.5724   10.6053 C.3       1 RES1    0.0000
     30 H11        1.3101    6.5530   10.0706 H         1 RES1    0.0000
     31 H12        0.6850    7.0556   11.4185 H         1 RES1    0.0000
     32 H13       -0.1896    7.0073   10.1178 H         1 RES1    0.0000
     33 C10        1.4231    4.9024   13.0943 C.3       1 RES1    0.0000
     34 H14        1.7123    5.8369   13.0382 H         1 RES1    0.0000
     35 C11        4.7904    3.1794   13.8626 C.3       1 RES1    0.0000
     36 H15        5.6302    3.1939   13.3976 H         1 RES1    0.0000
     37 H16        4.4802    2.2744   13.9345 H         1 RES1    0.0000
     38 H17        4.9035    3.5516   14.7387 H         1 RES1    0.0000
     39 C12        2.8090    1.3393   17.1918 C.ar      1 RES1    0.0000
     40 H18        2.6977    0.8488   16.4100 H         1 RES1    0.0000
     41 C13        2.2459    3.2596   18.5688 C.ar      1 RES1    0.0000
     42 C14        3.7310    0.9345   18.1712 C.ar      1 RES1    0.0000
     43 C15       -3.7954    6.4270   17.3670 C.ar      1 RES1    0.0000
     44 C16       -0.2066    5.7253   18.1038 C.2       1 RES1    0.0000
     45 C17       -0.7954    8.5276   20.7209 C.ar      1 RES1    0.0000
     46 C18       -0.8546    7.6112   19.5617 C.2       1 RES1    0.0000
     47 H19       -1.5175    7.8037   18.9395 H         1 RES1    0.0000
     48 C19        1.1536    4.3582   11.7105 C.3       1 RES1    0.0000
     49 H20        0.7977    3.4521   11.8228 H         1 RES1    0.0000
     50 C20       -0.1038    6.5561   19.2787 C.2       1 RES1    0.0000
     51 H21        0.5517    6.3286   19.8987 H         1 RES1    0.0000
     52 C21        3.9539    1.6530   19.2764 C.ar      1 RES1    0.0000
     53 H22        4.5862    1.3755   19.9009 H         1 RES1    0.0000
     54 C22        3.2218    2.8289   19.4831 C.ar      1 RES1    0.0000
     55 C23        2.0774    2.4802   17.4231 C.ar      1 RES1    0.0000
     56 H23        1.4461    2.7420   16.7919 H         1 RES1    0.0000
     57 C24        2.4775    4.2249   10.9715 C.3       1 RES1    0.0000
     58 H24        2.8297    5.1118   10.7985 H         1 RES1    0.0000
     59 H25        2.3153    3.8008   10.1133 H         1 RES1    0.0000
     60 C25       -4.3571    6.6466   16.1315 C.ar      1 RES1    0.0000
     61 H26       -4.0456    6.1712   15.3969 H         1 RES1    0.0000
     62 C26       -4.2996    7.1401   18.4116 C.ar      1 RES1    0.0000
     63 H27       -3.9386    7.0019   19.2585 H         1 RES1    0.0000
     64 C27       -5.8636    8.2537   17.0525 C.ar      1 RES1    0.0000
     65 H28       -6.5634    8.8589   16.9559 H         1 RES1    0.0000
     66 C28       -5.3160    8.0528   18.2790 C.ar      1 RES1    0.0000
     67 H29       -5.6255    8.5258   19.0181 H         1 RES1    0.0000
     68 C29       -1.6992    9.5496   20.7860 C.ar      1 RES1    0.0000
     69 H30       -2.3484    9.6383   20.1256 H         1 RES1    0.0000
     70 C30       -5.3993    7.5799   15.9630 C.ar      1 RES1    0.0000
     71 H31       -5.7636    7.7337   15.1228 H         1 RES1    0.0000
     72 C31        3.5275    3.4147   11.7307 C.3       1 RES1    0.0000
     73 H32        3.2249    2.4995   11.8228 H         1 RES1    0.0000
     74 H33        4.3571    3.4092   11.2276 H         1 RES1    0.0000
     75 C32        0.1437    8.3895   21.7048 C.ar      1 RES1    0.0000
     76 H34        0.7519    7.6879   21.6666 H         1 RES1    0.0000
     77 C33       -1.6491   10.4492   21.8284 C.ar      1 RES1    0.0000
     78 H35       -2.2725   11.1387   21.8665 H         1 RES1    0.0000
     79 C34       -0.7144   10.3466   22.7876 C.ar      1 RES1    0.0000
     80 H36       -0.6689   10.9740   23.4705 H         1 RES1    0.0000
     81 C35        0.1954    9.2667   22.7449 C.ar      1 RES1    0.0000
     82 H37        0.8248    9.1587   23.4211 H         1 RES1    0.0000
     83 C36        3.7724    4.0059   13.0898 C.3       1 RES1    0.0000
     84 H38        4.1257    4.9097   12.9775 H         1 RES1    0.0000
     85 C37        2.4431    4.0916   13.8514 C.3       1 RES1    0.0000
     86 H39        2.0969    3.1975   13.9974 H         1 RES1    0.0000
     87 H40        2.5966    4.4988   14.7185 H         1 RES1    0.0000
@<TRIPOS>BOND
     1    1   22 1
     2    2   22 2
     3    3   10 2
     4    4   10 2
     5    5   11 2
     6    6   11 2
     7    7    8 1
     8    8    9 1
     9   10   54 1
    10   11   42 1
    11   12   13 2
    12   13   14 1
    13   15   13 1
    14   16   15 1
    15   17   15 1
    16   18   15 1
    17   19   18 1
    18   20   12 1
    19   21   20 1
    20   22   12 1
    21   23   24 1
    22   25   23 1
    23   26   25 1
    24   27   25 1
    25   28   25 1
    26   29   23 1
    27   30   29 1
    28   31   29 1
    29   32   29 1
    30   33    1 1
    31   34   33 1
    32   35   36 1
    33   37   35 1
    34   38   35 1
    35   39   40 1
    36   41    8 1
    37   42   39 ar
    38   43   18 1
    39   44    7 2
    40   45   46 1
    41   46   47 1
    42   48   23 1
    43   49   48 1
    44   50   44 1
    45   51   50 1
    46   52   42 ar
    47   53   52 1
    48   54   41 ar
    49   55   39 ar
    50   56   55 1
    51   57   48 1
    52   58   57 1
    53   59   57 1
    54   60   43 ar
    55   61   60 1
    56   62   43 ar
    57   63   62 1
    58   64   65 1
    59   66   62 ar
    60   67   66 1
    61   68   45 ar
    62   69   68 1
    63   70   60 ar
    64   71   70 1
    65   72   57 1
    66   73   72 1
    67   74   72 1
    68   75   45 ar
    69   76   75 1
    70   77   68 ar
    71   78   77 1
    72   79   77 ar
    73   80   79 1
    74   81   75 ar
    75   82   81 1
    76   83   35 1
    77   84   83 1
    78   85   33 1
    79   86   85 1
    80   87   85 1
    81   18   20 1
    82   20   44 1
    83   33   48 1
    84   41   55 ar
    85   46   50 2
    86   52   54 ar
    87   64   66 ar
    88   64   70 ar
    89   72   83 1
    90   79   81 ar
    91   83   85 1
@<TRIPOS>SUBSTRUCTURE
     1 RES1 1

@<TRIPOS>CRYSIN
  12.6480    6.0330   22.6470  90.0000  97.2870  90.0000   4 1

