# MOL2 file generated by ConQuest
# Please check atom types

@<TRIPOS>MOLECULE
GUPJAD
    20    20     1
SMALL
NO_CHARGES
****
Generated from CSD

@<TRIPOS>ATOM
      1 C1         5.1155    6.8806    1.6987 C.2       1 RES1    0.0000
      2 O1         5.2822    8.0412    2.0782 O.2       1 RES1    0.0000
      3 N1         5.8085    5.8640    2.1986 N.am      1 RES1    0.0000
      4 H1         5.7174    5.1477    1.9159 H         1 RES1    0.0000
      5 C2         6.7906    6.0625    3.2424 C.3       1 RES1    0.0000
      6 H2         7.0553    5.1796    3.6043 H         1 RES1    0.0000
      7 H3         6.3753    6.5773    3.9787 H         1 RES1    0.0000
      8 C3         7.9874    6.7639    2.7954 C.1       1 RES1    0.0000
      9 C4         8.9540    7.3285    2.4797 C.1       1 RES1    0.0000
     10 H4         9.7432    7.7894    2.2228 H         1 RES1    0.0000
     11 C5         4.1068    6.5494    0.6812 C.2       1 RES1    0.0000
     12 C6         3.6138    5.4061    0.1630 C.2       1 RES1    0.0000
     13 H5         3.8794    4.5232    0.3920 H         1 RES1    0.0000
     14 C7         2.6299    5.7662   -0.7847 C.2       1 RES1    0.0000
     15 H6         2.1005    5.1866   -1.3184 H         1 RES1    0.0000
     16 C8         2.6085    7.1031   -0.7664 C.2       1 RES1    0.0000
     17 O2         3.4828    7.6283    0.1116 O.3       1 RES1    0.0000
     18 N2         1.8225    8.0508   -1.4975 N.pl3     1 RES1    0.0000
     19 O3         1.9329    9.2300   -1.2450 O.2       1 RES1    0.0000
     20 O4         1.0865    7.5899   -2.3571 O.2       1 RES1    0.0000
@<TRIPOS>BOND
     1    1    2 2
     2    3    1 1
     3    4    3 1
     4    5    3 1
     5    6    5 1
     6    7    5 1
     7    8    5 1
     8    9    8 3
     9   10    9 1
    10   11    1 1
    11   12   11 2
    12   13   12 1
    13   14   12 1
    14   15   14 1
    15   16   14 2
    16   17   11 1
    17   18   16 1
    18   19   18 2
    19   20   18 2
    20   16   17 1
@<TRIPOS>SUBSTRUCTURE
     1 RES1 1

@<TRIPOS>CRYSIN
  12.0209    9.9762    7.6200  90.0000 105.5580  90.0000  14 1

