# MOL2 file generated by ConQuest
# Please check atom types

@<TRIPOS>MOLECULE
GUPMEJ
    69    74     1
SMALL
NO_CHARGES
****
Generated from CSD

@<TRIPOS>ATOM
      1 O1        -0.1161    8.0185   13.1278 O.3       1 RES1    0.0000
      2 O2        -1.2010    6.1547   11.2208 O.3       1 RES1    0.0000
      3 O3        -0.0912    6.3325    8.6379 O.3       1 RES1    0.0000
      4 O4         2.8993    6.9649    8.9045 O.3       1 RES1    0.0000
      5 O5         1.2637    9.7215   10.5207 O.3       1 RES1    0.0000
      6 N1         0.7498    8.9327   13.8377 N.3       1 RES1    0.0000
      7 C1         0.6690    7.2561   12.1733 C.3       1 RES1    0.0000
      8 H1         0.8701    6.3725   12.5491 H         1 RES1    0.0000
      9 C2        -0.1695    7.0937   10.9279 C.3       1 RES1    0.0000
     10 H2        -0.5682    7.9550   10.6857 H         1 RES1    0.0000
     11 C3         0.7103    6.6007    9.7841 C.3       1 RES1    0.0000
     12 H3         1.1660    5.7771   10.0584 H         1 RES1    0.0000
     13 C4         1.7475    7.6514    9.4207 C.3       1 RES1    0.0000
     14 H4         1.3778    8.2033    8.7005 H         1 RES1    0.0000
     15 C5         2.1371    8.5751   10.5639 C.3       1 RES1    0.0000
     16 H5         3.0634    8.8704   10.4382 H         1 RES1    0.0000
     17 C6         1.9748    8.0338   11.9705 C.3       1 RES1    0.0000
     18 H6         2.7592    7.5244   12.2637 H         1 RES1    0.0000
     19 C7         1.7423    9.2869   12.8281 C.3       1 RES1    0.0000
     20 H7         2.5757    9.5975   13.2406 H         1 RES1    0.0000
     21 C8         1.2079   10.3000   11.8276 C.3       1 RES1    0.0000
     22 H8         0.2928   10.5329   12.0476 H         1 RES1    0.0000
     23 H9         1.7439   11.1083   11.8551 H         1 RES1    0.0000
     24 C9         1.3484    8.2162   14.9665 C.3       1 RES1    0.0000
     25 H10        0.6663    8.0021   15.6069 H         1 RES1    0.0000
     26 H11        2.0129    8.7704   15.3816 H         1 RES1    0.0000
     27 H12        1.7571    7.4067   14.6509 H         1 RES1    0.0000
     28 C10       -2.5180    6.5466   10.9083 C.3       1 RES1    0.0000
     29 H13       -2.7372    6.2830   10.0008 H         1 RES1    0.0000
     30 H14       -2.6031    7.5114   10.9764 H         1 RES1    0.0000
     31 C11       -3.4464    5.8771   11.8773 C.ar      1 RES1    0.0000
     32 C12       -3.3833    6.2054   13.2144 C.ar      1 RES1    0.0000
     33 H15       -2.7902    6.8631   13.4998 H         1 RES1    0.0000
     34 C13       -4.1827    5.5736   14.1284 C.ar      1 RES1    0.0000
     35 H16       -4.1193    5.7948   15.0294 H         1 RES1    0.0000
     36 C14       -5.0657    4.6287   13.7251 C.ar      1 RES1    0.0000
     37 H17       -5.5994    4.1958   14.3510 H         1 RES1    0.0000
     38 C15       -5.1738    4.3111   12.3985 C.ar      1 RES1    0.0000
     39 H18       -5.7939    3.6757   12.1209 H         1 RES1    0.0000
     40 C16       -4.3547    4.9405   11.4675 C.ar      1 RES1    0.0000
     41 H19       -4.4246    4.7240   10.5652 H         1 RES1    0.0000
     42 C17       -0.1936    5.0370    8.2487 C.3       1 RES1    0.0000
     43 H20       -0.6474    4.5299    8.9388 H         1 RES1    0.0000
     44 H21        0.6947    4.6640    8.1387 H         1 RES1    0.0000
     45 C18       -0.9507    4.9100    6.9562 C.ar      1 RES1    0.0000
     46 C19       -0.9150    5.8595    5.9858 C.ar      1 RES1    0.0000
     47 H22       -0.4035    6.6266    6.1102 H         1 RES1    0.0000
     48 C20       -1.6347    5.6947    4.8112 C.ar      1 RES1    0.0000
     49 H23       -1.6039    6.3501    4.1525 H         1 RES1    0.0000
     50 C21       -2.3867    4.5758    4.6213 C.ar      1 RES1    0.0000
     51 H24       -2.8869    4.4758    3.8434 H         1 RES1    0.0000
     52 C22       -2.4046    3.6180    5.5602 C.ar      1 RES1    0.0000
     53 H25       -2.8989    2.8427    5.4214 H         1 RES1    0.0000
     54 C23       -1.6919    3.7781    6.7270 C.ar      1 RES1    0.0000
     55 H26       -1.7124    3.1074    7.3713 H         1 RES1    0.0000
     56 C24        3.6614    7.7291    7.9527 C.3       1 RES1    0.0000
     57 H27        4.5467    7.3420    7.8702 H         1 RES1    0.0000
     58 H28        3.7618    8.6362    8.2801 H         1 RES1    0.0000
     59 C25        3.0141    7.7620    6.6065 C.ar      1 RES1    0.0000
     60 C26        2.2388    8.8280    6.2084 C.ar      1 RES1    0.0000
     61 H29        2.1346    9.5493    6.7872 H         1 RES1    0.0000
     62 C27        1.6204    8.8645    4.9971 C.ar      1 RES1    0.0000
     63 H30        1.0984    9.5987    4.7680 H         1 RES1    0.0000
     64 C28        1.7582    7.8538    4.1368 C.ar      1 RES1    0.0000
     65 H31        1.3461    7.8950    3.3039 H         1 RES1    0.0000
     66 C29        2.4968    6.7678    4.4720 C.ar      1 RES1    0.0000
     67 H32        2.5768    6.0560    3.8801 H         1 RES1    0.0000
     68 C30        3.1451    6.7266    5.7318 C.ar      1 RES1    0.0000
     69 H33        3.6616    5.9877    5.9622 H         1 RES1    0.0000
@<TRIPOS>BOND
     1    1    6 1
     2    2    9 1
     3    3   11 1
     4    4   13 1
     5    5   15 1
     6    6   19 1
     7    7    1 1
     8    8    7 1
     9    9    7 1
    10   10    9 1
    11   11    9 1
    12   12   11 1
    13   13   11 1
    14   14   13 1
    15   15   13 1
    16   16   15 1
    17   17    7 1
    18   18   17 1
    19   19   17 1
    20   20   19 1
    21   21    5 1
    22   22   21 1
    23   23   21 1
    24   24    6 1
    25   25   24 1
    26   26   24 1
    27   27   24 1
    28   28    2 1
    29   29   28 1
    30   30   28 1
    31   31   28 1
    32   32   31 ar
    33   33   32 1
    34   34   32 ar
    35   35   34 1
    36   36   34 ar
    37   37   36 1
    38   38   36 ar
    39   39   38 1
    40   40   31 ar
    41   41   40 1
    42   42    3 1
    43   43   42 1
    44   44   42 1
    45   45   42 1
    46   46   45 ar
    47   47   46 1
    48   48   46 ar
    49   49   48 1
    50   50   48 ar
    51   51   50 1
    52   52   50 ar
    53   53   52 1
    54   54   45 ar
    55   55   54 1
    56   56    4 1
    57   57   56 1
    58   58   56 1
    59   59   56 1
    60   60   59 ar
    61   61   60 1
    62   62   60 ar
    63   63   62 1
    64   64   62 ar
    65   65   64 1
    66   66   64 ar
    67   67   66 1
    68   68   59 ar
    69   69   68 1
    70   15   17 1
    71   19   21 1
    72   38   40 ar
    73   52   54 ar
    74   66   68 ar
@<TRIPOS>SUBSTRUCTURE
     1 RES1 1

@<TRIPOS>CRYSIN
   8.5300   11.7660   13.6640  90.0000 106.5900  90.0000   4 1

