# MOL2 file generated by ConQuest
# Please check atom types

@<TRIPOS>MOLECULE
GUPMIN
    72    76     1
SMALL
NO_CHARGES
****
Generated from CSD

@<TRIPOS>ATOM
      1 O1        -0.6919   19.7444    7.5920 O.3       1 RES1    0.0000
      2 O2         0.6916   16.9028    7.0112 O.3       1 RES1    0.0000
      3 O3        -2.7305   20.5389    8.0584 O.2       1 RES1    0.0000
      4 O4         2.7166   15.9682    6.7560 O.2       1 RES1    0.0000
      5 O5         0.4649   25.0176   12.2581 O.2       1 RES1    0.0000
      6 O6         2.2089   23.8509   12.1547 O.2       1 RES1    0.0000
      7 O7        -0.9760   12.3551   11.7851 O.2       1 RES1    0.0000
      8 O8         0.7247   11.1842   11.3649 O.2       1 RES1    0.0000
      9 C1        -0.1463   18.6446    5.5284 C.3       1 RES1    0.0000
     10 C2         0.3772   19.9493    4.7871 C.3       1 RES1    0.0000
     11 C3        -0.6297   21.0805    4.7497 C.ar      1 RES1    0.0000
     12 C4        -0.4761   22.1719    5.6010 C.ar      1 RES1    0.0000
     13 C5        -1.3947   23.1860    5.6494 C.ar      1 RES1    0.0000
     14 C6        -2.5045   23.1504    4.8399 C.ar      1 RES1    0.0000
     15 C7        -2.6826   22.1113    3.9731 C.ar      1 RES1    0.0000
     16 C8        -1.7438   21.0763    3.9071 C.ar      1 RES1    0.0000
     17 C9         0.8018   19.4746    3.3681 C.3       1 RES1    0.0000
     18 C10        0.2160   18.0967    3.2273 C.2       1 RES1    0.0000
     19 C11        0.4163   17.0450    2.4749 C.2       1 RES1    0.0000
     20 C12       -0.4057   15.8469    2.9413 C.3       1 RES1    0.0000
     21 C13       -0.8015   16.2735    4.3625 C.3       1 RES1    0.0000
     22 C14       -0.7232   17.8145    4.3581 C.3       1 RES1    0.0000
     23 C15       -1.6275   15.6838    2.0745 C.3       1 RES1    0.0000
     24 C16        0.3836   14.5652    2.9545 C.3       1 RES1    0.0000
     25 C17       -1.2409   18.8934    6.5448 C.3       1 RES1    0.0000
     26 C18       -1.5335   20.5556    8.2212 C.2       1 RES1    0.0000
     27 C19       -0.8327   21.4715    9.1517 C.ar      1 RES1    0.0000
     28 C20       -1.5174   22.5169    9.7017 C.ar      1 RES1    0.0000
     29 C21       -0.9391   23.3846   10.6015 C.ar      1 RES1    0.0000
     30 C22        0.3866   23.1609   10.9337 C.ar      1 RES1    0.0000
     31 C23        1.0982   22.1468   10.3859 C.ar      1 RES1    0.0000
     32 C24        0.4942   21.3042    9.4905 C.ar      1 RES1    0.0000
     33 C25        1.0875   18.0047    6.1488 C.3       1 RES1    0.0000
     34 C26        1.6118   15.9682    7.2620 C.2       1 RES1    0.0000
     35 C27       -0.1053   15.0168    8.8174 C.ar      1 RES1    0.0000
     36 C28       -0.4882   14.0989    9.7787 C.ar      1 RES1    0.0000
     37 C29        0.4041   13.1016   10.1087 C.ar      1 RES1    0.0000
     38 C30        1.6322   12.9740    9.5257 C.ar      1 RES1    0.0000
     39 C31        2.0129   13.9170    8.5820 C.ar      1 RES1    0.0000
     40 C32        1.1527   14.9520    8.2322 C.ar      1 RES1    0.0000
     41 N1         1.0676   24.0704   11.8577 N.pl3     1 RES1    0.0000
     42 N2         0.0164   12.1293   11.1471 N.pl3     1 RES1    0.0000
     43 H1         1.1503   20.4009    5.2359 H         1 RES1    0.0000
     44 H2         0.3266   22.1949    6.2082 H         1 RES1    0.0000
     45 H3        -1.2614   23.9617    6.2764 H         1 RES1    0.0000
     46 H4        -3.1810   23.8760    4.9081 H         1 RES1    0.0000
     47 H5        -3.4967   22.1364    3.4077 H         1 RES1    0.0000
     48 H6        -1.8738   20.3465    3.2317 H         1 RES1    0.0000
     49 H7         0.4457   20.0935    2.6751 H         1 RES1    0.0000
     50 H8         1.8030   19.4370    3.3021 H         1 RES1    0.0000
     51 H9         1.0411   17.0492    1.6874 H         1 RES1    0.0000
     52 H10       -1.7267   15.9619    4.6199 H         1 RES1    0.0000
     53 H11       -0.1523   15.8908    5.0467 H         1 RES1    0.0000
     54 H12       -1.6824   18.1093    4.3053 H         1 RES1    0.0000
     55 H13       -2.1509   14.8956    2.3869 H         1 RES1    0.0000
     56 H14       -2.1897   16.5077    2.1229 H         1 RES1    0.0000
     57 H15       -1.3382   15.5375    1.1242 H         1 RES1    0.0000
     58 H16       -0.1935   13.8125    3.2603 H         1 RES1    0.0000
     59 H17        1.1524   14.6739    3.5947 H         1 RES1    0.0000
     60 H18        0.7408   14.3749    2.0437 H         1 RES1    0.0000
     61 H19       -1.9906   19.3785    6.0960 H         1 RES1    0.0000
     62 H20       -1.5511   18.0466    6.9342 H         1 RES1    0.0000
     63 H21       -2.4653   22.6779    9.4113 H         1 RES1    0.0000
     64 H22       -1.4679   24.1206   11.0041 H         1 RES1    0.0000
     65 H23        2.0678   22.0193   10.6169 H         1 RES1    0.0000
     66 H24        1.0125   20.5598    9.0945 H         1 RES1    0.0000
     67 H25        1.6049   18.6717    6.6834 H         1 RES1    0.0000
     68 H26        1.6923   17.6305    5.4294 H         1 RES1    0.0000
     69 H27       -0.7389   15.7612    8.5534 H         1 RES1    0.0000
     70 H28       -1.3974   14.1366   10.1879 H         1 RES1    0.0000
     71 H29        2.2591   12.2150    9.7501 H         1 RES1    0.0000
     72 H30        2.9149   13.8668    8.1508 H         1 RES1    0.0000
@<TRIPOS>BOND
     1    1   25 1
     2    2   33 1
     3    3   26 2
     4    4   34 2
     5    5   41 2
     6    6   41 2
     7    7   42 2
     8    8   42 2
     9    9   10 1
    10   10   11 1
    11   11   12 ar
    12   12   13 ar
    13   13   14 ar
    14   14   15 ar
    15   15   16 ar
    16   16   11 ar
    17   17   10 1
    18   18   17 1
    19   19   18 2
    20   20   19 1
    21   21   20 1
    22   22    9 1
    23   23   20 1
    24   24   20 1
    25   25    9 1
    26   26    1 1
    27   27   26 1
    28   28   27 ar
    29   29   28 ar
    30   30   29 ar
    31   31   30 ar
    32   32   27 ar
    33   33    9 1
    34   34    2 1
    35   35   36 ar
    36   36   37 ar
    37   37   38 ar
    38   38   39 ar
    39   39   40 ar
    40   40   34 1
    41   41   30 1
    42   42   37 1
    43   43   10 1
    44   44   12 1
    45   45   13 1
    46   46   14 1
    47   47   15 1
    48   48   16 1
    49   49   17 1
    50   50   17 1
    51   51   19 1
    52   52   21 1
    53   53   21 1
    54   54   22 1
    55   55   23 1
    56   56   23 1
    57   57   23 1
    58   58   24 1
    59   59   24 1
    60   60   24 1
    61   61   25 1
    62   62   25 1
    63   63   28 1
    64   64   29 1
    65   65   31 1
    66   66   32 1
    67   67   33 1
    68   68   33 1
    69   69   35 1
    70   70   36 1
    71   71   38 1
    72   72   39 1
    73   18   22 1
    74   21   22 1
    75   31   32 ar
    76   35   40 ar
@<TRIPOS>SUBSTRUCTURE
     1 RES1 1

@<TRIPOS>CRYSIN
   6.1760   20.9090   22.0960  90.0000  95.3600  90.0000 231 1

