# MOL2 file generated by ConQuest
# Please check atom types

@<TRIPOS>MOLECULE
GUPNAG
    62    64     2
SMALL
NO_CHARGES
****
Generated from CSD

@<TRIPOS>ATOM
      1 O1         3.1208    2.2157    4.1780 O.2       1 RES1    0.0000
      2 O2         5.0803    1.1433    4.2841 O.3       1 RES1    0.0000
      3 O3         5.4886    5.3002    5.8259 O.2       1 RES1    0.0000
      4 O4         1.5128    6.2381    3.0218 O.2       1 RES1    0.0000
      5 O5         3.0483    7.6670    2.4427 O.2       1 RES1    0.0000
      6 N1         5.0230    3.2064    5.1300 N.am      1 RES1    0.0000
      7 N2         2.5840    6.8069    3.1880 N.pl3     1 RES1    0.0000
      8 C1         4.2820    2.2046    4.4809 C.2       1 RES1    0.0000
      9 C2         6.3953    2.7471    5.4400 C.3       1 RES1    0.0000
     10 C3         6.4747    1.5058    4.5468 C.3       1 RES1    0.0000
     11 C4         4.6928    4.5446    5.2967 C.2       1 RES1    0.0000
     12 C5         3.3621    5.0249    4.8114 C.3       1 RES1    0.0000
     13 C6         3.3835    6.4708    4.3816 C.3       1 RES1    0.0000
     14 C7         2.6615    6.0918    5.6305 C.3       1 RES1    0.0000
     15 C8         6.5806    2.5019    6.9483 C.3       1 RES1    0.0000
     16 C9         5.7388    1.3291    7.4716 C.3       1 RES1    0.0000
     17 C10        8.0606    2.3154    7.2629 C.3       1 RES1    0.0000
     18 H1         7.0254    3.4497    5.1497 H         1 RES1    0.0000
     19 H2         2.8291    4.4365    4.3176 H         1 RES1    0.0000
     20 H3         4.1459    6.9691    4.4198 H         1 RES1    0.0000
     21 H4         6.3134    3.3010    7.3727 H         1 RES1    0.0000
     22 H5         6.8301    0.7095    4.9358 H         1 RES1    0.0000
     23 H6         6.8994    1.6528    3.7303 H         1 RES1    0.0000
     24 H7         3.0496    6.3464    6.4146 H         1 RES1    0.0000
     25 H8         1.7642    6.0598    5.5468 H         1 RES1    0.0000
     26 H9         6.0425    0.4105    7.0660 H         1 RES1    0.0000
     27 H10        5.8849    1.2470    8.4141 H         1 RES1    0.0000
     28 H11        4.7886    1.4840    7.2990 H         1 RES1    0.0000
     29 H12        8.6384    3.1430    7.0399 H         1 RES1    0.0000
     30 H13        8.3990    1.5614    6.7855 H         1 RES1    0.0000
     31 H14        8.2099    2.1996    8.2286 H         1 RES1    0.0000
     32 O6        -0.3138    9.3113   24.6317 O.2       2 RES2    0.0000
     33 O7         1.6344   10.4006   24.5271 O.3       2 RES2    0.0000
     34 O8         2.0774    6.2769   22.9348 O.2       2 RES2    0.0000
     35 O9        -0.1645    3.8554   26.2087 O.2       2 RES2    0.0000
     36 O10       -1.9306    4.9673   25.5922 O.2       2 RES2    0.0000
     37 N3         1.5821    8.3577   23.6445 N.am      2 RES2    0.0000
     38 N4        -0.7775    4.5802   25.4324 N.pl3     2 RES2    0.0000
     39 C11        0.8468    9.3337   24.3098 C.2       2 RES2    0.0000
     40 C12        3.0175   10.1038   24.1438 C.3       2 RES2    0.0000
     41 C13        2.9261    8.8518   23.2603 C.3       2 RES2    0.0000
     42 C14        1.2740    7.0116   23.4753 C.2       2 RES2    0.0000
     43 C15       -0.0447    6.5080   23.9669 C.3       2 RES2    0.0000
     44 C16       -0.0491    5.0211   24.2365 C.3       2 RES2    0.0000
     45 C17       -0.8027    5.5606   23.0623 C.3       2 RES2    0.0000
     46 C18        3.0231    9.0955   21.7504 C.3       2 RES2    0.0000
     47 C19        4.4736    9.4281   21.3621 C.3       2 RES2    0.0000
     48 C20        2.0629   10.1761   21.2458 C.3       2 RES2    0.0000
     49 H15        3.5726    8.1913   23.5518 H         2 RES2    0.0000
     50 H16       -0.5167    7.0512   24.5028 H         2 RES2    0.0000
     51 H17        0.7813    4.5418   24.1676 H         2 RES2    0.0000
     52 H18        2.8165    8.3060   21.3050 H         2 RES2    0.0000
     53 H19        3.4969    9.9510   24.9474 H         2 RES2    0.0000
     54 H20        3.3268   10.8650   23.6279 H         2 RES2    0.0000
     55 H21       -1.7138    5.5998   23.1072 H         2 RES2    0.0000
     56 H22       -0.4600    5.3566   22.1776 H         2 RES2    0.0000
     57 H23        4.5240    9.5514   20.3945 H         2 RES2    0.0000
     58 H24        4.7508   10.2423   21.8424 H         2 RES2    0.0000
     59 H25        5.0721    8.7149   21.6094 H         2 RES2    0.0000
     60 H26        1.1846   10.0750   21.5357 H         2 RES2    0.0000
     61 H27        2.1171   10.2330   20.2542 H         2 RES2    0.0000
     62 H28        2.2935   11.1686   21.6736 H         2 RES2    0.0000
@<TRIPOS>BOND
     1    1    8 2
     2    2    8 1
     3    3   11 2
     4    4    7 2
     5    5    7 2
     6    6    8 1
     7    7   13 1
     8    9    6 1
     9   10    2 1
    10   11    6 1
    11   12   11 1
    12   13   12 1
    13   14   12 1
    14   15    9 1
    15   16   15 1
    16   17   15 1
    17   18    9 1
    18   19   12 1
    19   20   13 1
    20   21   15 1
    21   22   10 1
    22   23   10 1
    23   24   14 1
    24   25   14 1
    25   26   16 1
    26   27   16 1
    27   28   16 1
    28   29   17 1
    29   30   17 1
    30   31   17 1
    31   32   39 2
    32   33   39 1
    33   34   42 2
    34   35   38 2
    35   36   38 2
    36   37   39 1
    37   38   44 1
    38   40   33 1
    39   41   37 1
    40   42   37 1
    41   43   42 1
    42   44   43 1
    43   45   43 1
    44   46   41 1
    45   47   46 1
    46   48   46 1
    47   49   41 1
    48   50   43 1
    49   51   44 1
    50   52   46 1
    51   53   40 1
    52   54   40 1
    53   55   45 1
    54   56   45 1
    55   57   47 1
    56   58   47 1
    57   59   47 1
    58   60   48 1
    59   61   48 1
    60   62   48 1
    61    9   10 1
    62   13   14 1
    63   40   41 1
    64   44   45 1
@<TRIPOS>SUBSTRUCTURE
     1 RES1 1
     2 RES2 32

@<TRIPOS>CRYSIN
   6.3008   15.4904   23.7753  90.0000  90.0000  90.0000  19 1

