# MOL2 file generated by ConQuest
# Please check atom types

@<TRIPOS>MOLECULE
GUPRUG
    23    25     1
SMALL
NO_CHARGES
****
Generated from CSD

@<TRIPOS>ATOM
      1 C1         1.0589   -2.1461    3.2324 C.2       1 RES1    0.0000
      2 C2        -0.0867    0.0918    3.9131 C.2       1 RES1    0.0000
      3 H1        -0.3488   -0.1736    4.7871 H         1 RES1    0.0000
      4 C3        -1.0370    2.3678    4.2247 C.ar      1 RES1    0.0000
      5 H2        -1.3265    2.1419    5.1007 H         1 RES1    0.0000
      6 C4        -1.2620    3.6272    3.7366 C.ar      1 RES1    0.0000
      7 H3        -1.6896    4.2700    4.2904 H         1 RES1    0.0000
      8 C5        -0.8754    3.9896    2.4383 C.ar      1 RES1    0.0000
      9 C6        -0.2342    3.0538    1.6356 C.ar      1 RES1    0.0000
     10 H4         0.0295    3.2868    0.7531 H         1 RES1    0.0000
     11 C7         0.0246    1.7695    2.1237 C.ar      1 RES1    0.0000
     12 C8        -0.3731    1.4001    3.4282 C.ar      1 RES1    0.0000
     13 C9         0.9757   -0.3840    1.7864 C.2       1 RES1    0.0000
     14 C10        0.5718   -0.7675    3.0912 C.2       1 RES1    0.0000
     15 C11       -1.1427    5.3773    1.9394 C.3       1 RES1    0.0000
     16 H5        -0.6063    6.0181    2.4512 H         1 RES1    0.0000
     17 H6        -2.0936    5.5869    2.0482 H         1 RES1    0.0000
     18 H7        -0.9021    5.4363    0.9902 H         1 RES1    0.0000
     19 N1         1.6368   -1.3034    1.1100 N.2       1 RES1    0.0000
     20 N2         0.6933    0.8578    1.3180 N.pl3     1 RES1    0.0000
     21 O1         1.6824   -2.4382    2.0403 O.3       1 RES1    0.0000
     22 O2         0.9846   -2.9398    4.1284 O.2       1 RES1    0.0000
     23 H8         1.0919    1.1663    0.4633 H         1 RES1    0.0000
@<TRIPOS>BOND
     1    1   14 1
     2    2    3 1
     3    4    5 1
     4    6    4 ar
     5    7    6 1
     6    8    6 ar
     7    9    8 ar
     8   10    9 1
     9   11    9 ar
    10   12    2 1
    11   13   14 1
    12   14    2 2
    13   15    8 1
    14   16   15 1
    15   17   15 1
    16   18   15 1
    17   19   13 2
    18   20   11 1
    19   21    1 1
    20   22    1 2
    21   23   20 1
    22    4   12 ar
    23   11   12 ar
    24   13   20 1
    25   19   21 1
@<TRIPOS>SUBSTRUCTURE
     1 RES1 1

@<TRIPOS>CRYSIN
   3.8055   10.8232   11.1802 104.4590  95.0330  91.5220   2 1

