# MOL2 file generated by ConQuest
# Please check atom types

@<TRIPOS>MOLECULE
GUPSAN
    27    29     1
SMALL
NO_CHARGES
****
Generated from CSD

@<TRIPOS>ATOM
      1 N1         1.6044    0.7377   15.6572 N.3       1 RES1    0.0000
      2 O1         0.7292    0.9007   16.8010 O.3       1 RES1    0.0000
      3 C1         0.4983    2.2391   17.0344 C.2       1 RES1    0.0000
      4 C2         1.2400    4.3024   15.6448 C.ar      1 RES1    0.0000
      5 H1         0.8623    4.9569   16.1871 H         1 RES1    0.0000
      6 C3         2.0444    5.9805   14.0152 C.ar      1 RES1    0.0000
      7 H2         1.6917    6.6742   14.5234 H         1 RES1    0.0000
      8 C4         2.6868    6.2459   12.8356 C.ar      1 RES1    0.0000
      9 C5         3.2458    5.1967   12.0739 C.ar      1 RES1    0.0000
     10 H3         3.6875    5.3939   11.2796 H         1 RES1    0.0000
     11 C6         3.1509    3.9146   12.4780 C.ar      1 RES1    0.0000
     12 H4         3.5382    3.2444   11.9632 H         1 RES1    0.0000
     13 N2         2.3847    2.2519   14.0043 N.ar      1 RES1    0.0000
     14 C7         2.4720    3.5706   13.6720 C.ar      1 RES1    0.0000
     15 C8         1.9222    4.6358   14.4557 C.ar      1 RES1    0.0000
     16 C9         1.7460    2.0217   15.1235 C.ar      1 RES1    0.0000
     17 C10        1.1576    2.9724   15.9660 C.ar      1 RES1    0.0000
     18 O2        -0.1565    2.5771   17.9822 O.2       1 RES1    0.0000
     19 O3         2.8525    7.4844   12.2849 O.3       1 RES1    0.0000
     20 C11        2.3023    8.5953   12.9834 C.3       1 RES1    0.0000
     21 H5         1.3563    8.4694   13.0905 H         1 RES1    0.0000
     22 H6         2.4635    9.3989   12.4839 H         1 RES1    0.0000
     23 H7         2.7149    8.6666   13.8466 H         1 RES1    0.0000
     24 C12        1.0618   -0.3044   14.7962 C.3       1 RES1    0.0000
     25 H8         0.1758   -0.0614   14.5189 H         1 RES1    0.0000
     26 H9         1.0301   -1.1338   15.2794 H         1 RES1    0.0000
     27 H10        1.6225   -0.4051   14.0231 H         1 RES1    0.0000
@<TRIPOS>BOND
     1    1    2 1
     2    2    3 1
     3    3   17 1
     4    4    5 1
     5    6    7 1
     6    8    6 ar
     7    9    8 ar
     8   10    9 1
     9   11    9 ar
    10   12   11 1
    11   13   14 ar
    12   14   11 ar
    13   15    4 ar
    14   16    1 1
    15   17    4 ar
    16   18    3 2
    17   19    8 1
    18   20   19 1
    19   21   20 1
    20   22   20 1
    21   23   20 1
    22   24    1 1
    23   25   24 1
    24   26   24 1
    25   27   24 1
    26    6   15 ar
    27   13   16 ar
    28   14   15 ar
    29   16   17 ar
@<TRIPOS>SUBSTRUCTURE
     1 RES1 1

@<TRIPOS>CRYSIN
   4.0221   11.8106   22.6362  90.0000  90.0000  90.0000  19 1

