# MOL2 file generated by ConQuest
# Please check atom types

@<TRIPOS>MOLECULE
GUPWAR
   114   124     2
SMALL
NO_CHARGES
****
Generated from CSD

@<TRIPOS>ATOM
      1 C1         6.7456   -0.0718    6.4381 C.2       1 RES1    0.0000
      2 C2         5.5223   -0.6565    8.6171 C.3       1 RES1    0.0000
      3 H1         4.6180   -0.4271    8.2568 H         1 RES1    0.0000
      4 C3         8.4814   -0.8083    9.3284 C.3       1 RES1    0.0000
      5 H2         9.2364   -0.5412    9.9263 H         1 RES1    0.0000
      6 C4         7.8457    0.4436    8.7280 C.3       1 RES1    0.0000
      7 H3         8.5176    0.8612    8.1336 H         1 RES1    0.0000
      8 H4         7.6821    1.0789    9.4699 H         1 RES1    0.0000
      9 C5         6.5325    0.3188    7.9285 C.3       1 RES1    0.0000
     10 C6         5.9403    1.7260    7.7987 C.ar      1 RES1    0.0000
     11 C7         5.5879    2.6543    8.7461 C.ar      1 RES1    0.0000
     12 H5         5.6341    2.4355    9.6702 H         1 RES1    0.0000
     13 C8         5.1589    3.9332    8.3421 C.ar      1 RES1    0.0000
     14 H6         4.8921    4.5745    8.9905 H         1 RES1    0.0000
     15 C9         5.1281    4.2533    6.9902 C.ar      1 RES1    0.0000
     16 C10        5.4799    3.3273    6.0041 C.ar      1 RES1    0.0000
     17 H7         5.4511    3.5414    5.0796 H         1 RES1    0.0000
     18 C11        5.8703    2.0896    6.4549 C.ar      1 RES1    0.0000
     19 C12        5.7037   -2.1543    8.4016 C.3       1 RES1    0.0000
     20 H8         5.7155   -2.3355    7.4288 H         1 RES1    0.0000
     21 H9         4.9225   -2.6273    8.7844 H         1 RES1    0.0000
     22 C13        6.9993   -2.7414    9.0332 C.3       1 RES1    0.0000
     23 H10        6.8229   -3.6403    9.4353 H         1 RES1    0.0000
     24 C14        7.5181   -1.7531   10.1056 C.3       1 RES1    0.0000
     25 H11        8.0589   -2.2708   10.7697 H         1 RES1    0.0000
     26 C15        6.3753   -1.0836   10.8481 C.3       1 RES1    0.0000
     27 H12        5.8450   -1.7790   11.3108 H         1 RES1    0.0000
     28 H13        6.7526   -0.4824   11.5399 H         1 RES1    0.0000
     29 C16        8.0811   -4.7745    6.4393 C.3       1 RES1    0.0000
     30 H14        7.7921   -5.3875    7.1477 H         1 RES1    0.0000
     31 H15        8.7436   -5.2204    5.8710 H         1 RES1    0.0000
     32 H16        7.3079   -4.5145    5.8961 H         1 RES1    0.0000
     33 C17        8.6884   -3.5603    7.0522 C.2       1 RES1    0.0000
     34 C18        8.1786   -2.7955    8.0993 C.2       1 RES1    0.0000
     35 C19        9.8489   -2.8767    6.6340 C.2       1 RES1    0.0000
     36 H17       10.4275   -3.1591    5.9365 H         1 RES1    0.0000
     37 C20       10.0161   -1.7272    7.3990 C.2       1 RES1    0.0000
     38 C21       10.9817   -0.6530    7.3185 C.2       1 RES1    0.0000
     39 C22       11.9402   -0.6765    6.1599 C.3       1 RES1    0.0000
     40 H18       12.5454    0.0918    6.2196 H         1 RES1    0.0000
     41 H19       11.4384   -0.6306    5.3184 H         1 RES1    0.0000
     42 H20       12.4623   -1.5060    6.1830 H         1 RES1    0.0000
     43 C23        5.3438    0.5447    3.6432 C.3       1 RES1    0.0000
     44 H21        5.2797   -0.4165    3.8242 H         1 RES1    0.0000
     45 H22        5.4437    0.6895    2.6785 H         1 RES1    0.0000
     46 H23        4.5306    0.9907    3.9570 H         1 RES1    0.0000
     47 C24        4.5536    6.5323    7.4327 C.3       1 RES1    0.0000
     48 H24        3.7944    6.3040    8.0084 H         1 RES1    0.0000
     49 H25        4.3582    7.3629    6.9494 H         1 RES1    0.0000
     50 H26        5.3557    6.6546    7.9815 H         1 RES1    0.0000
     51 N1         6.2993    0.9965    5.6920 N.am      1 RES1    0.0000
     52 N2         8.9764   -1.7378    8.3053 N.pl3     1 RES1    0.0000
     53 O1         6.4803    1.0836    4.3266 O.3       1 RES1    0.0000
     54 O2         7.1726   -1.0977    5.9604 O.2       1 RES1    0.0000
     55 O3         5.5018   -0.3236   10.0043 O.3       1 RES1    0.0000
     56 O4         4.7748    5.4816    6.4990 O.3       1 RES1    0.0000
     57 O5        11.0071    0.2671    8.1376 O.2       1 RES1    0.0000
     58 C25        2.1699    8.8689    2.9937 C.2       2 RES2    0.0000
     59 C26       -0.3658    9.1842    3.0399 C.3       2 RES2    0.0000
     60 H27       -0.4452    8.8748    3.9878 H         2 RES2    0.0000
     61 C27        0.4402    9.6419    0.1182 C.3       2 RES2    0.0000
     62 H28        0.3275    9.4419   -0.8550 H         2 RES2    0.0000
     63 C28        0.7988    8.3489    0.8615 C.3       2 RES2    0.0000
     64 H29        1.6932    8.0618    0.5507 H         2 RES2    0.0000
     65 H30        0.1547    7.6523    0.5796 H         2 RES2    0.0000
     66 C29        0.8225    8.3689    2.4141 C.3       2 RES2    0.0000
     67 C30        0.7563    6.9570    2.9505 C.ar      2 RES2    0.0000
     68 C31       -0.2120    5.9746    2.8704 C.ar      2 RES2    0.0000
     69 H31       -0.9754    6.1111    2.3203 H         2 RES2    0.0000
     70 C32       -0.0798    4.7815    3.5921 C.ar      2 RES2    0.0000
     71 H32       -0.7520    4.1133    3.5334 H         2 RES2    0.0000
     72 C33        1.0293    4.5768    4.3889 C.ar      2 RES2    0.0000
     73 C34        2.0505    5.5322    4.4706 C.ar      2 RES2    0.0000
     74 H33        2.8267    5.3886    4.9988 H         2 RES2    0.0000
     75 C35        1.8732    6.6829    3.7514 C.ar      2 RES2    0.0000
     76 C36       -0.2845   10.6985    3.0986 C.3       2 RES2    0.0000
     77 H34        0.5466   10.9550    3.5719 H         2 RES2    0.0000
     78 H35       -1.0482   11.0385    3.6278 H         2 RES2    0.0000
     79 C37       -0.2984   11.3797    1.7072 C.3       2 RES2    0.0000
     80 H36       -0.8548   12.2103    1.7234 H         2 RES2    0.0000
     81 C38       -0.8419   10.3678    0.6458 C.3       2 RES2    0.0000
     82 H37       -1.2306   10.8949   -0.1098 H         2 RES2    0.0000
     83 C39       -1.9313    9.4784    1.2035 C.3       2 RES2    0.0000
     84 H38       -2.7196   10.0384    1.4134 H         2 RES2    0.0000
     85 H39       -2.2015    8.8336    0.5006 H         2 RES2    0.0000
     86 C40        5.0286    7.9994    3.8704 C.3       2 RES2    0.0000
     87 H40        5.2693    7.0794    3.6355 H         2 RES2    0.0000
     88 H41        5.7159    8.3783    4.4558 H         2 RES2    0.0000
     89 H42        4.9636    8.5371    3.0539 H         2 RES2    0.0000
     90 C41        0.1441    2.5755    5.3550 C.3       2 RES2    0.0000
     91 H43       -0.6103    3.0720    5.7343 H         2 RES2    0.0000
     92 H44        0.4092    1.8613    5.9731 H         2 RES2    0.0000
     93 H45       -0.1228    2.1825    4.4981 H         2 RES2    0.0000
     94 C42        1.0595   11.6632    1.1602 C.2       2 RES2    0.0000
     95 C43        2.0852   12.5739    1.3229 C.2       2 RES2    0.0000
     96 C44        3.1128   12.1468    0.4756 C.2       2 RES2    0.0000
     97 H46        3.9486   12.5833    0.3582 H         2 RES2    0.0000
     98 C45        2.7133   10.9832   -0.1687 C.2       2 RES2    0.0000
     99 C46        2.0953   13.7222    2.2856 C.3       2 RES2    0.0000
    100 H47        1.2863   14.2599    2.1624 H         2 RES2    0.0000
    101 H48        2.8861   14.2776    2.1239 H         2 RES2    0.0000
    102 H49        2.1208   13.3787    3.2041 H         2 RES2    0.0000
    103 C47        3.3882   10.1749   -1.1515 C.2       2 RES2    0.0000
    104 C48        4.7557   10.6679   -1.6136 C.3       2 RES2    0.0000
    105 H50        5.4497   10.3114   -1.0205 H         2 RES2    0.0000
    106 H51        4.7755   11.6479   -1.5867 H         2 RES2    0.0000
    107 H52        4.9214   10.3631   -2.5302 H         2 RES2    0.0000
    108 N3         2.7176    7.8065    3.6751 N.am      2 RES2    0.0000
    109 N4         1.4312   10.7114    0.2792 N.pl3     2 RES2    0.0000
    110 O6         3.7521    8.0053    4.5545 O.3       2 RES2    0.0000
    111 O7         2.6892    9.9525    2.9049 O.2       2 RES2    0.0000
    112 O8        -1.5681    8.7465    2.3761 O.3       2 RES2    0.0000
    113 O9         1.2453    3.4626    5.1505 O.3       2 RES2    0.0000
    114 O10        2.8985    9.1348   -1.5982 O.2       2 RES2    0.0000
@<TRIPOS>BOND
     1    1    9 1
     2    2    3 1
     3    4    5 1
     4    6    4 1
     5    7    6 1
     6    8    6 1
     7    9    2 1
     8   10    9 1
     9   11   10 ar
    10   12   11 1
    11   13   11 ar
    12   14   13 1
    13   15   13 ar
    14   16   15 ar
    15   17   16 1
    16   18   10 ar
    17   19    2 1
    18   20   19 1
    19   21   19 1
    20   22   19 1
    21   23   22 1
    22   24    4 1
    23   25   24 1
    24   26   24 1
    25   27   26 1
    26   28   26 1
    27   29   30 1
    28   31   29 1
    29   32   29 1
    30   33   29 1
    31   34   22 1
    32   35   33 1
    33   36   35 1
    34   37   35 2
    35   38   37 1
    36   39   38 1
    37   40   39 1
    38   41   39 1
    39   42   39 1
    40   43   44 1
    41   45   43 1
    42   46   43 1
    43   47   48 1
    44   49   47 1
    45   50   47 1
    46   51    1 1
    47   52    4 1
    48   53   43 1
    49   54    1 2
    50   55    2 1
    51   56   15 1
    52   57   38 2
    53   58   66 1
    54   59   60 1
    55   61   62 1
    56   63   61 1
    57   64   63 1
    58   65   63 1
    59   66   59 1
    60   67   66 1
    61   68   67 ar
    62   69   68 1
    63   70   68 ar
    64   71   70 1
    65   72   70 ar
    66   73   72 ar
    67   74   73 1
    68   75   67 ar
    69   76   59 1
    70   77   76 1
    71   78   76 1
    72   79   76 1
    73   80   79 1
    74   81   61 1
    75   82   81 1
    76   83   81 1
    77   84   83 1
    78   85   83 1
    79   86   87 1
    80   88   86 1
    81   89   86 1
    82   90   91 1
    83   92   90 1
    84   93   90 1
    85   94   79 1
    86   95   94 2
    87   96   95 1
    88   97   96 1
    89   98   96 2
    90   99   95 1
    91  100   99 1
    92  101   99 1
    93  102   99 1
    94  103   98 1
    95  104  103 1
    96  105  104 1
    97  106  104 1
    98  107  104 1
    99  108   58 1
   100  109   61 1
   101  110   86 1
   102  111   58 2
   103  112   59 1
   104  113   72 1
   105  114  103 2
   106    6    9 1
   107   16   18 ar
   108   18   51 1
   109   22   24 1
   110   26   55 1
   111   33   34 2
   112   34   52 1
   113   37   52 1
   114   47   56 1
   115   51   53 1
   116   63   66 1
   117   73   75 ar
   118   75  108 1
   119   79   81 1
   120   83  112 1
   121   90  113 1
   122   94  109 1
   123   98  109 1
   124  108  110 1
@<TRIPOS>SUBSTRUCTURE
     1 RES1 1
     2 RES2 58

@<TRIPOS>CRYSIN
   9.1606   11.7656   19.3185  90.0000  94.6230  90.0000   4 1

