# MOL2 file generated by ConQuest
# Please check atom types

@<TRIPOS>MOLECULE
GUQKIN
    88    92     2
SMALL
NO_CHARGES
****
Generated from CSD

@<TRIPOS>ATOM
      1 C1         2.4242    8.7870    1.9351 C.ar      1 RES1    0.0000
      2 C2         1.7639    7.6110    1.6176 C.ar      1 RES1    0.0000
      3 H1         1.4653    7.0491    2.2964 H         1 RES1    0.0000
      4 C3         1.5483    7.2697    0.3133 C.ar      1 RES1    0.0000
      5 H2         1.0916    6.4849    0.1117 H         1 RES1    0.0000
      6 C4         1.9973    8.0682   -0.6976 C.ar      1 RES1    0.0000
      7 H3         1.8496    7.8274   -1.5831 H         1 RES1    0.0000
      8 C5         2.6665    9.2283   -0.4010 C.ar      1 RES1    0.0000
      9 H4         2.9843    9.7674   -1.0892 H         1 RES1    0.0000
     10 C6         2.8667    9.5956    0.8950 C.ar      1 RES1    0.0000
     11 H5         3.3030   10.3939    1.0861 H         1 RES1    0.0000
     12 C7         2.6862    9.2108    3.3323 C.2       1 RES1    0.0000
     13 C8         2.4184    8.2279    4.4434 C.3       1 RES1    0.0000
     14 H6         3.0816    7.5217    4.4017 H         1 RES1    0.0000
     15 H7         1.5488    7.8239    4.2993 H         1 RES1    0.0000
     16 C9         2.4467    8.8487    5.8397 C.3       1 RES1    0.0000
     17 H8         3.2092    9.4630    5.8752 H         1 RES1    0.0000
     18 C10        1.1961    9.6546    6.0924 C.ar      1 RES1    0.0000
     19 C11       -0.0676    9.0785    5.9994 C.ar      1 RES1    0.0000
     20 H9        -0.1424    8.1768    5.7843 H         1 RES1    0.0000
     21 C12       -1.2050    9.8118    6.2187 C.ar      1 RES1    0.0000
     22 H10       -2.0425    9.4100    6.1613 H         1 RES1    0.0000
     23 C13       -1.0941   11.1379    6.5205 C.ar      1 RES1    0.0000
     24 C14        0.1244   11.7428    6.6145 C.ar      1 RES1    0.0000
     25 H11        0.1860   12.6473    6.8213 H         1 RES1    0.0000
     26 C15        1.2649   10.9961    6.3983 C.ar      1 RES1    0.0000
     27 H12        2.0972   11.4074    6.4610 H         1 RES1    0.0000
     28 C16        2.6599    7.7822    6.9163 C.3       1 RES1    0.0000
     29 H13        2.0148    7.0585    6.7712 H         1 RES1    0.0000
     30 C17        4.0727    7.1841    6.9048 C.2       1 RES1    0.0000
     31 C18        4.5646    7.0350    8.2906 C.3       1 RES1    0.0000
     32 H14        5.2955    7.6493    8.4608 H         1 RES1    0.0000
     33 H15        4.8774    6.1295    8.4451 H         1 RES1    0.0000
     34 C19        3.4118    7.3430    9.1709 C.3       1 RES1    0.0000
     35 H16        3.7096    7.7760    9.9855 H         1 RES1    0.0000
     36 H17        2.9337    6.5322    9.4048 H         1 RES1    0.0000
     37 C20        2.5279    8.2688    8.3689 C.3       1 RES1    0.0000
     38 H18        2.8271    9.1871    8.4514 H         1 RES1    0.0000
     39 H19        1.6076    8.2098    8.6686 H         1 RES1    0.0000
     40 N1        -2.3051   11.9425    6.7116 N.pl3     1 RES1    0.0000
     41 O1         3.1185   10.3134    3.5735 O.2       1 RES1    0.0000
     42 O2        -2.2017   13.1371    6.8526 O.2       1 RES1    0.0000
     43 O3        -3.3726   11.3698    6.6981 O.2       1 RES1    0.0000
     44 O4         4.7197    6.9514    5.9169 O.2       1 RES1    0.0000
     45 C21        1.5074    4.3366    5.0961 C.ar      2 RES2    0.0000
     46 C22        0.2718    4.9870    5.0867 C.ar      2 RES2    0.0000
     47 H20       -0.1031    5.2467    4.2764 H         2 RES2    0.0000
     48 C23       -0.3975    5.2470    6.2553 C.ar      2 RES2    0.0000
     49 H21       -1.2247    5.6713    6.2323 H         2 RES2    0.0000
     50 C24        0.1519    4.8851    7.4614 C.ar      2 RES2    0.0000
     51 H22       -0.3015    5.0678    8.2520 H         2 RES2    0.0000
     52 C25        1.3734    4.2521    7.5001 C.ar      2 RES2    0.0000
     53 H23        1.7443    4.0065    8.3167 H         2 RES2    0.0000
     54 C26        2.0471    3.9825    6.3263 C.ar      2 RES2    0.0000
     55 H24        2.8733    3.5569    6.3587 H         2 RES2    0.0000
     56 C27        2.1605    4.0398    3.7928 C.2       2 RES2    0.0000
     57 C28        3.4034    3.1914    3.7678 C.3       2 RES2    0.0000
     58 H25        3.1627    2.2796    3.9934 H         2 RES2    0.0000
     59 H26        4.0134    3.5124    4.4508 H         2 RES2    0.0000
     60 C29        4.1331    3.1886    2.4186 C.3       2 RES2    0.0000
     61 H27        3.4765    2.9217    1.7419 H         2 RES2    0.0000
     62 C30        4.6568    4.5524    2.0082 C.ar      2 RES2    0.0000
     63 C31        5.0675    5.5004    2.9355 C.ar      2 RES2    0.0000
     64 H28        5.0234    5.3008    3.8430 H         2 RES2    0.0000
     65 C32        5.5428    6.7393    2.5303 C.ar      2 RES2    0.0000
     66 H29        5.7908    7.3775    3.1600 H         2 RES2    0.0000
     67 C33        5.6418    7.0061    1.2082 C.ar      2 RES2    0.0000
     68 C34        5.2749    6.0960    0.2559 C.ar      2 RES2    0.0000
     69 H30        5.3651    6.2912   -0.6495 H         2 RES2    0.0000
     70 C35        4.7676    4.8841    0.6704 C.ar      2 RES2    0.0000
     71 H31        4.4907    4.2685    0.0292 H         2 RES2    0.0000
     72 C36        5.2397    2.1201    2.4123 C.3       2 RES2    0.0000
     73 H32        4.8431    1.3088    2.7924 H         2 RES2    0.0000
     74 C37        5.7498    1.7449    1.0464 C.2       2 RES2    0.0000
     75 C38        7.2175    1.4684    1.1320 C.3       2 RES2    0.0000
     76 H33        7.7255    2.1735    0.7007 H         2 RES2    0.0000
     77 H34        7.4329    0.6233    0.7080 H         2 RES2    0.0000
     78 C39        7.5267    1.4156    2.6212 C.3       2 RES2    0.0000
     79 H35        8.4340    1.7070    2.8029 H         2 RES2    0.0000
     80 H36        7.4019    0.5221    2.9752 H         2 RES2    0.0000
     81 C40        6.5039    2.3933    3.2060 C.3       2 RES2    0.0000
     82 H37        6.3629    2.2245    4.1500 H         2 RES2    0.0000
     83 H38        6.7948    3.3112    3.0890 H         2 RES2    0.0000
     84 N2         6.1560    8.3361    0.7874 N.pl3     2 RES2    0.0000
     85 O5         1.6745    4.4435    2.7538 O.2       2 RES2    0.0000
     86 O6         6.4018    9.1317    1.6635 O.2       2 RES2    0.0000
     87 O7         6.2956    8.5354   -0.4031 O.2       2 RES2    0.0000
     88 O8         5.0679    1.6923    0.0595 O.2       2 RES2    0.0000
@<TRIPOS>BOND
     1    1    2 ar
     2    2    3 1
     3    4    2 ar
     4    5    4 1
     5    6    4 ar
     6    7    6 1
     7    8    6 ar
     8    9    8 1
     9   10    1 ar
    10   11   10 1
    11   12    1 1
    12   13   12 1
    13   14   13 1
    14   15   13 1
    15   16   13 1
    16   17   16 1
    17   18   16 1
    18   19   18 ar
    19   20   19 1
    20   21   19 ar
    21   22   21 1
    22   23   21 ar
    23   24   23 ar
    24   25   24 1
    25   26   18 ar
    26   27   26 1
    27   28   16 1
    28   29   28 1
    29   30   28 1
    30   31   30 1
    31   32   31 1
    32   33   31 1
    33   34   31 1
    34   35   34 1
    35   36   34 1
    36   37   28 1
    37   38   37 1
    38   39   37 1
    39   40   23 1
    40   41   12 2
    41   42   40 2
    42   43   40 2
    43   44   30 2
    44   45   46 ar
    45   46   47 1
    46   48   46 ar
    47   49   48 1
    48   50   48 ar
    49   51   50 1
    50   52   50 ar
    51   53   52 1
    52   54   45 ar
    53   55   54 1
    54   56   45 1
    55   57   56 1
    56   58   57 1
    57   59   57 1
    58   60   57 1
    59   61   60 1
    60   62   60 1
    61   63   62 ar
    62   64   63 1
    63   65   63 ar
    64   66   65 1
    65   67   65 ar
    66   68   67 ar
    67   69   68 1
    68   70   62 ar
    69   71   70 1
    70   72   60 1
    71   73   72 1
    72   74   72 1
    73   75   74 1
    74   76   75 1
    75   77   75 1
    76   78   75 1
    77   79   78 1
    78   80   78 1
    79   81   72 1
    80   82   81 1
    81   83   81 1
    82   84   67 1
    83   85   56 2
    84   86   84 2
    85   87   84 2
    86   88   74 2
    87    8   10 ar
    88   24   26 ar
    89   34   37 1
    90   52   54 ar
    91   68   70 ar
    92   78   81 1
@<TRIPOS>SUBSTRUCTURE
     1 RES1 1
     2 RES2 45

@<TRIPOS>CRYSIN
   8.0610   10.5130   11.4440  67.4300  80.8580  87.3690   1 1

