# MOL2 file generated by ConQuest
# Please check atom types

@<TRIPOS>MOLECULE
GUQZID
    29    30     2
SMALL
NO_CHARGES
****
Generated from CSD

@<TRIPOS>ATOM
      1 C1         1.6716   11.9122    1.3961 C.3       1 RES1    0.0000
      2 H1         0.8378   11.9122    0.8816 H         1 RES1    0.0000
      3 C2         2.5839   10.6971    1.2595 C.ar      1 RES1    0.0000
      4 C3         2.7145    9.7499    0.2836 C.ar      1 RES1    0.0000
      5 H2         2.1566    9.7473   -0.4607 H         1 RES1    0.0000
      6 C4         3.7072    8.7925    0.4384 C.ar      1 RES1    0.0000
      7 H3         3.8109    8.1305   -0.2068 H         1 RES1    0.0000
      8 C5         4.5368    8.8096    1.5304 C.ar      1 RES1    0.0000
      9 H4         5.2035    8.1654    1.6053 H         1 RES1    0.0000
     10 C6         4.4032    9.7653    2.5232 C.ar      1 RES1    0.0000
     11 H5         4.9652    9.7712    3.2639 H         1 RES1    0.0000
     12 C7         3.4116   10.7033    2.3769 C.ar      1 RES1    0.0000
     13 C8         3.0165   11.9122    3.2052 C.3       1 RES1    0.0000
     14 H6         3.2583   11.9122    4.1546 H         1 RES1    0.0000
     15 N1         1.5652   11.9122    2.8600 N.3       1 RES1    0.0000
     16 N2         0.4329   11.9122    3.4006 N.2       1 RES1    0.0000
     17 O1         0.5224   11.9122    4.6298 O.2       1 RES1    0.0000
     18 N3         0.8535   11.9122    4.0391 Du        2 SUP2    0.0000
     19 O2        -0.2808   11.9122    3.5209 Du        2 SUP2    0.0000
     20 C2F        2.5839   13.1272    1.2595 C.ar      1 RES1    0.0000
     21 C3F        2.7145   14.0745    0.2836 C.ar      1 RES1    0.0000
     22 H2F        2.1566   14.0770   -0.4607 H         1 RES1    0.0000
     23 C4F        3.7072   15.0319    0.4384 C.ar      1 RES1    0.0000
     24 H3F        3.8109   15.6939   -0.2068 H         1 RES1    0.0000
     25 C5F        4.5368   15.0147    1.5304 C.ar      1 RES1    0.0000
     26 H4F        5.2035   15.6590    1.6053 H         1 RES1    0.0000
     27 C6F        4.4032   14.0591    2.5232 C.ar      1 RES1    0.0000
     28 H5F        4.9652   14.0532    3.2639 H         1 RES1    0.0000
     29 C7F        3.4116   13.1210    2.3769 C.ar      1 RES1    0.0000
@<TRIPOS>BOND
     1    1    2 1
     2    3    1 1
     3    4    3 ar
     4    5    4 1
     5    6    4 ar
     6    7    6 1
     7    8    6 ar
     8    9    8 1
     9   10    8 ar
    10   11   10 1
    11   12    3 ar
    12   13   12 1
    13   14   13 1
    14   15    1 1
    15   16   15 1
    16   17   16 2
    17   20    1 1
    18   21   20 ar
    19   22   21 1
    20   23   21 ar
    21   24   23 1
    22   25   23 ar
    23   26   25 1
    24   27   25 ar
    25   28   27 1
    26   29   13 1
    27   10   12 ar
    28   13   15 1
    29   20   29 ar
    30   27   29 ar
@<TRIPOS>SUBSTRUCTURE
     1 RES1 1
     2 SUP2 18

@<TRIPOS>CRYSIN
  11.1855   15.8829    6.0465  90.0000  90.0000  90.0000  62 1

