# MOL2 file generated by ConQuest
# Please check atom types

@<TRIPOS>MOLECULE
GURDAY
    60    68     2
SMALL
NO_CHARGES
****
Generated from CSD

@<TRIPOS>ATOM
      1 C1         8.4298    2.9177   14.7727 C.3       1 RES1    0.0000
      2 C2         8.5915    2.2308   16.1690 C.3       1 RES1    0.0000
      3 H1         8.5022    1.2701   16.3415 H         1 RES1    0.0000
      4 C3         7.5567    4.0377   15.4266 C.3       1 RES1    0.0000
      5 H2         6.7159    4.3833   15.0627 H         1 RES1    0.0000
      6 C4         9.7114    3.7704   15.0480 C.3       1 RES1    0.0000
      7 H3        10.4355    3.9218   14.4065 H         1 RES1    0.0000
      8 C5         8.1293    2.2571   13.4755 C.3       1 RES1    0.0000
      9 H4         7.9024    2.9383   12.8092 H         1 RES1    0.0000
     10 N1         6.9734    1.2957   13.6219 N.pl3     1 RES1    0.0000
     11 N2         9.2874    1.4358   12.9767 N.pl3     1 RES1    0.0000
     12 O1         7.0561    0.2297   13.1372 O.2       1 RES1    0.0000
     13 O2         5.9964    1.7216   14.1630 O.2       1 RES1    0.0000
     14 O3         9.4798    1.4286   11.7820 O.2       1 RES1    0.0000
     15 O4         9.9544    0.8427   13.7826 O.2       1 RES1    0.0000
     16 C6        14.2412    0.5739   14.7123 C.3       2 RES2    0.0000
     17 C7        13.0330    0.0683   15.5688 C.3       2 RES2    0.0000
     18 H5        12.0911    0.1195   15.3048 H         2 RES2    0.0000
     19 C8        14.8634    1.2445   15.9856 C.3       2 RES2    0.0000
     20 H6        15.2412    2.1476   16.0214 H         2 RES2    0.0000
     21 C9        15.0236   -0.7389   15.0211 C.3       2 RES2    0.0000
     22 H7        15.5175   -1.2722   14.3635 H         2 RES2    0.0000
     23 C10       14.1719    1.2238   13.3772 C.3       2 RES2    0.0000
     24 H8        15.0674    1.2416   12.9796 H         2 RES2    0.0000
     25 N3        13.6540    2.6262   13.4956 N.pl3     2 RES2    0.0000
     26 N4        13.2237    0.5028   12.4438 N.pl3     2 RES2    0.0000
     27 O5        12.6544    2.7975   14.1399 O.2       2 RES2    0.0000
     28 O6        14.3029    3.5129   13.0266 O.2       2 RES2    0.0000
     29 O7        12.7730    1.1221   11.5080 O.2       2 RES2    0.0000
     30 O8        13.0132   -0.6649   12.6701 O.2       2 RES2    0.0000
     31 C3B        9.8701    3.0735   16.4251 C.3       1 RES1    0.0000
     32 C1B        8.9970    4.1935   17.0791 C.3       1 RES1    0.0000
     33 C2B        8.8354    4.8804   15.6827 C.3       1 RES1    0.0000
     34 H1B        8.9247    5.8411   15.5102 H         1 RES1    0.0000
     35 H2B       10.7109    2.7279   16.7890 H         1 RES1    0.0000
     36 C4B        7.7155    3.3408   16.8037 C.3       1 RES1    0.0000
     37 C5B        9.2975    4.8541   18.3762 C.3       1 RES1    0.0000
     38 H4B        9.5244    4.1729   19.0426 H         1 RES1    0.0000
     39 N1B       10.4535    5.8155   18.2299 N.pl3     1 RES1    0.0000
     40 O1B       10.3708    6.8815   18.7145 O.2       1 RES1    0.0000
     41 O2B       11.4305    5.3896   17.6887 O.2       1 RES1    0.0000
     42 N2B        8.1395    5.6754   18.8750 N.pl3     1 RES1    0.0000
     43 O3B        7.9471    5.6826   20.0698 O.2       1 RES1    0.0000
     44 O4B        7.4725    6.2685   18.0692 O.2       1 RES1    0.0000
     45 H3B        6.9914    3.1894   17.4452 H         1 RES1    0.0000
     46 C8B       13.8116   -1.2445   15.8661 C.3       2 RES2    0.0000
     47 C6B       14.4338   -0.5739   17.1394 C.3       2 RES2    0.0000
     48 C7B       15.6420   -0.0683   16.2829 C.3       2 RES2    0.0000
     49 H5B       16.5839   -0.1195   16.5470 H         2 RES2    0.0000
     50 H6B       13.4337   -2.1476   15.8303 H         2 RES2    0.0000
     51 C9B       13.6513    0.7389   16.8306 C.3       2 RES2    0.0000
     52 C10B      14.5030   -1.2238   18.4745 C.3       2 RES2    0.0000
     53 H8B       13.6076   -1.2416   18.8721 H         2 RES2    0.0000
     54 N3B       15.0210   -2.6262   18.3561 N.pl3     2 RES2    0.0000
     55 O5B       16.0205   -2.7975   17.7118 O.2       2 RES2    0.0000
     56 O6B       14.3721   -3.5129   18.8252 O.2       2 RES2    0.0000
     57 N4B       15.4513   -0.5028   19.4079 N.pl3     2 RES2    0.0000
     58 O7B       15.9020   -1.1221   20.3437 O.2       2 RES2    0.0000
     59 O8B       15.6618    0.6649   19.1816 O.2       2 RES2    0.0000
     60 H7B       13.1575    1.2722   17.4882 H         2 RES2    0.0000
@<TRIPOS>BOND
     1    1    2 1
     2    2    3 1
     3    4    1 1
     4    5    4 1
     5    6    1 1
     6    7    6 1
     7    8    1 1
     8    9    8 1
     9   10    8 1
    10   11    8 1
    11   12   10 2
    12   13   10 2
    13   14   11 2
    14   15   11 2
    15   16   17 1
    16   17   18 1
    17   19   16 1
    18   20   19 1
    19   21   16 1
    20   22   21 1
    21   23   16 1
    22   24   23 1
    23   25   23 1
    24   26   23 1
    25   27   25 2
    26   28   25 2
    27   29   26 2
    28   30   26 2
    29   31    2 1
    30   32   31 1
    31   33    4 1
    32   34   33 1
    33   35   31 1
    34   36    2 1
    35   37   32 1
    36   38   37 1
    37   39   37 1
    38   40   39 2
    39   41   39 2
    40   42   37 1
    41   43   42 2
    42   44   42 2
    43   45   36 1
    44   46   17 1
    45   47   46 1
    46   48   19 1
    47   49   48 1
    48   50   46 1
    49   51   17 1
    50   52   47 1
    51   53   52 1
    52   54   52 1
    53   55   54 2
    54   56   54 2
    55   57   52 1
    56   58   57 2
    57   59   57 2
    58   60   51 1
    59    4   36 1
    60    6   33 1
    61    6   31 1
    62   19   51 1
    63   21   48 1
    64   21   46 1
    65   32   33 1
    66   32   36 1
    67   47   48 1
    68   47   51 1
@<TRIPOS>SUBSTRUCTURE
     1 RES1 1
     2 RES2 16

@<TRIPOS>CRYSIN
  11.2481    7.1112   16.1263  90.0000  99.0430  90.0000  14 1

