# MOL2 file generated by ConQuest
# Please check atom types

@<TRIPOS>MOLECULE
GURGOP
    39    42     1
SMALL
NO_CHARGES
****
Generated from CSD

@<TRIPOS>ATOM
      1 N1         2.3365    2.9231    9.1097 N.2       1 RES1    0.0000
      2 C1         1.2714    3.1351    9.8958 C.2       1 RES1    0.0000
      3 C2         1.2387    4.3516   10.7199 C.ar      1 RES1    0.0000
      4 C3         2.2917    5.2461   10.7009 C.ar      1 RES1    0.0000
      5 C4         2.2872    6.3826   11.4708 C.ar      1 RES1    0.0000
      6 C5         1.2154    6.6051   12.2947 C.ar      1 RES1    0.0000
      7 N2         1.2126    7.8019   13.1288 N.pl3     1 RES1    0.0000
      8 O1         2.1187    8.6140   12.9951 O.2       1 RES1    0.0000
      9 O2         0.2727    7.9641   13.8978 O.2       1 RES1    0.0000
     10 C6         0.1485    5.7466   12.3533 C.ar      1 RES1    0.0000
     11 C7         0.1541    4.6100   11.5627 C.ar      1 RES1    0.0000
     12 C8         0.3264    2.1017    9.8282 C.2       1 RES1    0.0000
     13 C9         0.8624    1.1875    8.9495 C.2       1 RES1    0.0000
     14 N3         0.4472   -0.0313    8.5060 N.2       1 RES1    0.0000
     15 C10        1.2581   -0.6476    7.6973 C.2       1 RES1    0.0000
     16 C11        2.4873   -0.1205    7.2100 C.2       1 RES1    0.0000
     17 C12        3.3347   -0.9964    6.3356 C.2       1 RES1    0.0000
     18 O3         3.2704   -2.2222    6.5337 O.2       1 RES1    0.0000
     19 C13        4.2414   -0.4391    5.3284 C.ar      1 RES1    0.0000
     20 C14        5.3243   -1.2258    4.8721 C.ar      1 RES1    0.0000
     21 O4         5.5149   -2.5042    5.2832 O.3       1 RES1    0.0000
     22 C15        6.2642   -0.6859    4.0013 C.ar      1 RES1    0.0000
     23 C16        6.0791    0.5932    3.4987 C.ar      1 RES1    0.0000
     24 C17        4.9724    1.3347    3.8510 C.ar      1 RES1    0.0000
     25 C18        4.0751    0.8342    4.7699 C.ar      1 RES1    0.0000
     26 C19        2.8824    1.0949    7.6473 C.2       1 RES1    0.0000
     27 N4         2.0727    1.7298    8.5301 N.pl3     1 RES1    0.0000
     28 H1         3.0387    5.0699   10.1412 H         1 RES1    0.0000
     29 H2         3.0083    7.0001   11.4339 H         1 RES1    0.0000
     30 H3        -0.5847    5.9296   12.9289 H         1 RES1    0.0000
     31 H4        -0.5786    4.0052   11.5934 H         1 RES1    0.0000
     32 H5        -0.5027    2.0449   10.2888 H         1 RES1    0.0000
     33 H6         1.0109   -1.5177    7.4083 H         1 RES1    0.0000
     34 H7         4.7645   -2.7516    5.7110 H         1 RES1    0.0000
     35 H8         7.0290   -1.1910    3.7518 H         1 RES1    0.0000
     36 H9         6.7226    0.9628    2.9043 H         1 RES1    0.0000
     37 H10        4.8277    2.1886    3.4613 H         1 RES1    0.0000
     38 H11        3.3302    1.3636    5.0301 H         1 RES1    0.0000
     39 H12        3.6944    1.4888    7.3488 H         1 RES1    0.0000
@<TRIPOS>BOND
     1    1    2 2
     2    2    3 1
     3    3    4 ar
     4    4    5 ar
     5    5    6 ar
     6    6    7 1
     7    7    8 2
     8    9    7 2
     9   10    6 ar
    10   11    3 ar
    11   12    2 1
    12   13   12 2
    13   14   13 1
    14   15   14 2
    15   16   15 1
    16   17   16 1
    17   18   17 2
    18   19   17 1
    19   20   19 ar
    20   21   20 1
    21   22   20 ar
    22   23   22 ar
    23   24   23 ar
    24   25   19 ar
    25   26   16 2
    26   27    1 1
    27   28    4 1
    28   29    5 1
    29   30   10 1
    30   31   11 1
    31   32   12 1
    32   33   15 1
    33   34   21 1
    34   35   22 1
    35   36   23 1
    36   37   24 1
    37   38   25 1
    38   39   26 1
    39   10   11 ar
    40   13   27 1
    41   24   25 ar
    42   26   27 1
@<TRIPOS>SUBSTRUCTURE
     1 RES1 1

@<TRIPOS>CRYSIN
   5.5421   11.5858   23.8057  90.0000  90.0000  90.0000  19 1

