# MOL2 file generated by ConQuest
# Please check atom types

@<TRIPOS>MOLECULE
GURNAK
   449   364     2
SMALL
NO_CHARGES
****
Generated from CSD

@<TRIPOS>ATOM
      1 C1        -2.5734    4.2971    7.1652 C.ar      1 RES1    0.0000
      2 C2        -2.2766    4.9689    8.3606 C.ar      1 RES1    0.0000
      3 C3        -3.0544    6.1064    8.6887 C.ar      1 RES1    0.0000
      4 C4        -4.0835    6.4794    7.9364 C.ar      1 RES1    0.0000
      5 C5        -4.3778    5.8303    6.7730 C.ar      1 RES1    0.0000
      6 C6        -3.6356    4.6880    6.3732 C.ar      1 RES1    0.0000
      7 N1        -1.6372    3.1964    6.9766 N.pl3     1 RES1    0.0000
      8 N2        -1.1709    4.7408    9.1130 N.pl3     1 RES1    0.0000
      9 N3        -2.7701    6.8178    9.8540 N.pl3     1 RES1    0.0000
     10 N4        -4.8852    7.5553    8.3172 N.pl3     1 RES1    0.0000
     11 N5        -5.2927    6.3919    5.9188 N.pl3     1 RES1    0.0000
     12 N6        -4.0246    4.1593    5.1193 N.pl3     1 RES1    0.0000
     13 C7        -1.7191    2.2552    5.9716 C.2       1 RES1    0.0000
     14 C8        -0.5153    1.5589    5.9659 C.2       1 RES1    0.0000
     15 C9         0.3183    2.1001    6.9483 C.2       1 RES1    0.0000
     16 C10       -0.3467    3.1119    7.5706 C.2       1 RES1    0.0000
     17 C11       -0.0634    3.9344    8.7245 C.2       1 RES1    0.0000
     18 C12        0.9417    4.1614    9.6560 C.2       1 RES1    0.0000
     19 C13        0.4818    5.0990   10.5253 C.2       1 RES1    0.0000
     20 C14       -0.8066    5.4314   10.2745 C.2       1 RES1    0.0000
     21 C15       -1.8059    6.4148   10.7496 C.2       1 RES1    0.0000
     22 C16       -2.0103    7.1352   11.9338 C.2       1 RES1    0.0000
     23 C17       -3.1462    8.0286   11.7245 C.2       1 RES1    0.0000
     24 C18       -3.6095    7.7707   10.4366 C.2       1 RES1    0.0000
     25 C19       -4.7333    8.1939    9.5768 C.2       1 RES1    0.0000
     26 C20       -5.8823    9.0223    9.6805 C.2       1 RES1    0.0000
     27 C21       -6.6579    8.8438    8.5058 C.2       1 RES1    0.0000
     28 C22       -5.9925    7.9836    7.6139 C.2       1 RES1    0.0000
     29 C23       -6.1238    7.4726    6.2544 C.2       1 RES1    0.0000
     30 C24       -6.7891    7.8361    5.0684 C.2       1 RES1    0.0000
     31 C25       -6.4030    6.9449    4.0445 C.2       1 RES1    0.0000
     32 C26       -5.4894    6.0007    4.5687 C.2       1 RES1    0.0000
     33 C27       -4.6911    4.9141    4.1483 C.2       1 RES1    0.0000
     34 C28       -4.6127    4.2215    2.9490 C.2       1 RES1    0.0000
     35 C29       -3.9114    2.9926    3.2526 C.2       1 RES1    0.0000
     36 C30       -3.5983    2.9924    4.5141 C.2       1 RES1    0.0000
     37 C31       -2.9678    1.8815    5.3607 C.3       1 RES1    0.0000
     38 H1        -2.7374    1.1531    4.7139 H         1 RES1    0.0000
     39 C32       -3.9953    1.2284    6.3713 C.ar      1 RES1    0.0000
     40 C33       -5.3474    1.4594    6.2921 C.ar      1 RES1    0.0000
     41 H2        -5.6963    2.0039    5.5983 H         1 RES1    0.0000
     42 C34       -6.2062    0.8932    7.2293 C.ar      1 RES1    0.0000
     43 H3        -7.1418    1.0665    7.2104 H         1 RES1    0.0000
     44 C35       -5.6341    0.0491    8.2192 C.ar      1 RES1    0.0000
     45 C36       -4.2859   -0.2211    8.2588 C.ar      1 RES1    0.0000
     46 H4        -3.9371   -0.7998    8.9244 H         1 RES1    0.0000
     47 C37       -3.4331    0.3601    7.3179 C.ar      1 RES1    0.0000
     48 H5        -2.5012    0.1720    7.3198 H         1 RES1    0.0000
     49 N7        -6.5521   -0.5528    9.2336 N.pl3     1 RES1    0.0000
     50 O1        -7.7261   -0.3031    9.1978 O.2       1 RES1    0.0000
     51 O2        -5.9779   -1.2219   10.1274 O.2       1 RES1    0.0000
     52 C38       -0.2392    0.4425    5.0382 C.ar      1 RES1    0.0000
     53 C39       -0.4894    0.5089    3.6599 C.ar      1 RES1    0.0000
     54 H6        -0.8590    1.3157    3.3186 H         1 RES1    0.0000
     55 C40       -0.2351   -0.5201    2.7529 C.ar      1 RES1    0.0000
     56 H7        -0.4374   -0.4603    1.8271 H         1 RES1    0.0000
     57 C41        0.3722   -1.7021    3.3639 C.ar      1 RES1    0.0000
     58 C42        0.5207   -1.8361    4.6630 C.ar      1 RES1    0.0000
     59 H8         0.8585   -2.6532    5.0118 H         1 RES1    0.0000
     60 C43        0.1902   -0.7933    5.5436 C.ar      1 RES1    0.0000
     61 H9         0.2562   -0.9253    6.4826 H         1 RES1    0.0000
     62 O3         0.7057   -2.6384    2.3324 O.3       1 RES1    0.0000
     63 C44        1.2747   -3.8254    2.7378 C.3       1 RES1    0.0000
     64 H10        0.6209   -4.3073    3.3054 H         1 RES1    0.0000
     65 H11        2.0613   -3.6182    3.3016 H         1 RES1    0.0000
     66 C45        1.7281   -4.7806    1.5763 C.3       1 RES1    0.0000
     67 H12        2.0875   -4.2550    0.8202 H         1 RES1    0.0000
     68 H13        2.4338   -5.3973    1.8950 H         1 RES1    0.0000
     69 C46        0.5455   -5.5360    1.1540 C.3       1 RES1    0.0000
     70 H14       -0.1114   -4.9461    0.7090 H         1 RES1    0.0000
     71 H15        0.1135   -5.9804    1.9252 H         1 RES1    0.0000
     72 C47        1.1282   -6.6035    0.1358 C.3       1 RES1    0.0000
     73 H16        0.3913   -7.1273   -0.2432 H         1 RES1    0.0000
     74 H17        1.7449   -7.2000    0.6072 H         1 RES1    0.0000
     75 H18        1.6059   -6.1417   -0.5845 H         1 RES1    0.0000
     76 C48        7.6318   -0.7174    7.9345 C.3       1 RES1    0.0000
     77 H19        8.0675    0.1448    7.7195 H         1 RES1    0.0000
     78 H20        8.0671   -1.0750    8.7490 H         1 RES1    0.0000
     79 C49        7.9133   -1.6098    6.8295 C.3       1 RES1    0.0000
     80 H21        7.7582   -1.1487    5.9678 H         1 RES1    0.0000
     81 H22        7.2800   -2.3687    6.8918 H         1 RES1    0.0000
     82 C50        9.3485   -2.2113    6.8333 C.3       1 RES1    0.0000
     83 H23        9.4906   -2.8342    6.0904 H         1 RES1    0.0000
     84 H24        9.4990   -2.6756    7.6837 H         1 RES1    0.0000
     85 H25        9.9753   -1.4618    6.7541 H         1 RES1    0.0000
     86 C51        1.7541    1.6825    7.1086 C.ar      1 RES1    0.0000
     87 C52        2.6422    1.9177    6.0659 C.ar      1 RES1    0.0000
     88 H26        2.3604    2.4137    5.3060 H         1 RES1    0.0000
     89 C53        3.9405    1.4296    6.1338 C.ar      1 RES1    0.0000
     90 H27        4.5472    1.5914    5.4210 H         1 RES1    0.0000
     91 C54        4.3528    0.7041    7.2462 C.ar      1 RES1    0.0000
     92 C55        3.4656    0.4671    8.2890 C.ar      1 RES1    0.0000
     93 H28        3.7456   -0.0288    9.0488 H         1 RES1    0.0000
     94 C56        2.1654    0.9553    8.2211 C.ar      1 RES1    0.0000
     95 H29        1.5578    0.7952    8.9338 H         1 RES1    0.0000
     96 O4         5.7071    0.2684    7.1652 O.3       1 RES1    0.0000
     97 C57        6.1310   -0.3403    8.3719 C.3       1 RES1    0.0000
     98 H30        5.5953   -1.1424    8.5907 H         1 RES1    0.0000
     99 H31        6.1133    0.2917    9.1337 H         1 RES1    0.0000
    100 C58        2.3038    3.6296    9.7277 C.ar      1 RES1    0.0000
    101 C59        3.3450    4.1925    9.0413 C.ar      1 RES1    0.0000
    102 H32        3.1548    4.9024    8.4398 H         1 RES1    0.0000
    103 C60        4.6612    3.7816    9.1752 C.ar      1 RES1    0.0000
    104 H33        5.3345    4.1208    8.5963 H         1 RES1    0.0000
    105 C61        4.9727    2.8990   10.1312 C.ar      1 RES1    0.0000
    106 C62        3.9920    2.3367   10.7949 C.ar      1 RES1    0.0000
    107 H34        4.2005    1.6189   11.3813 H         1 RES1    0.0000
    108 C63        2.6922    2.7214   10.6968 C.ar      1 RES1    0.0000
    109 H35        2.0462    2.3659   11.2964 H         1 RES1    0.0000
    110 O5         6.3287    2.6052   10.1632 O.3       1 RES1    0.0000
    111 C64        6.7025    1.6899   11.1607 C.3       1 RES1    0.0000
    112 H36        6.2682    0.8147   11.0004 H         1 RES1    0.0000
    113 H37        6.4223    2.0212   12.0507 H         1 RES1    0.0000
    114 C65        8.2339    1.5388   11.1079 C.3       1 RES1    0.0000
    115 H38        8.6515    2.3836   11.4134 H         1 RES1    0.0000
    116 H39        8.5088    1.3879   10.1708 H         1 RES1    0.0000
    117 C66        8.7710    0.3472   12.0035 C.3       1 RES1    0.0000
    118 H40        8.4463   -0.4212   11.8847 H         1 RES1    0.0000
    119 H41        9.7124    0.4816   12.2543 H         1 RES1    0.0000
    120 C67        8.3019    0.5429   13.4347 C.3       1 RES1    0.0000
    121 H42        8.6523   -0.1664   14.0136 H         1 RES1    0.0000
    122 H43        7.3230    0.4966   13.4139 H         1 RES1    0.0000
    123 H44        8.5834    1.4159   13.7816 H         1 RES1    0.0000
    124 C68        1.2611    5.7621   11.6132 C.ar      1 RES1    0.0000
    125 C69        1.6001    5.1266   12.8388 C.ar      1 RES1    0.0000
    126 H45        1.2976    4.2354   12.9689 H         1 RES1    0.0000
    127 C70        2.3386    5.7084   13.8533 C.ar      1 RES1    0.0000
    128 H46        2.4963    5.2485   14.6697 H         1 RES1    0.0000
    129 C71        2.8464    7.0066   13.6402 C.ar      1 RES1    0.0000
    130 C72        2.5145    7.6906   12.4617 C.ar      1 RES1    0.0000
    131 H47        2.7929    8.5893   12.3392 H         1 RES1    0.0000
    132 C73        1.7706    7.0459   11.4680 C.ar      1 RES1    0.0000
    133 H48        1.6042    7.5087   10.6554 H         1 RES1    0.0000
    134 O6         3.5788    7.4962   14.7282 O.3       1 RES1    0.0000
    135 C74        4.0667    8.8073   14.7452 C.3       1 RES1    0.0000
    136 H49        4.5294    9.0074   13.8929 H         1 RES1    0.0000
    137 H50        4.7160    8.9178   15.4843 H         1 RES1    0.0000
    138 C75        2.8066    9.8279   14.9507 C.3       1 RES1    0.0000
    139 H51        2.9822   10.7294   14.5811 H         1 RES1    0.0000
    140 H52        1.9605    9.4663   14.5849 H         1 RES1    0.0000
    141 C76        2.8487    9.7982   16.4214 C.3       1 RES1    0.0000
    142 H53        3.6906   10.1940   16.7571 H         1 RES1    0.0000
    143 H54        2.7780    8.8694   16.7552 H         1 RES1    0.0000
    144 C77       -1.4758    6.7824   13.2461 C.ar      1 RES1    0.0000
    145 C78       -0.7183    7.5899   14.0550 C.ar      1 RES1    0.0000
    146 H55       -0.4940    8.4551   13.7364 H         1 RES1    0.0000
    147 C79       -0.2554    7.2143   15.3259 C.ar      1 RES1    0.0000
    148 H56        0.2365    7.8165   15.8708 H         1 RES1    0.0000
    149 C80       -0.5480    5.9077   15.7596 C.ar      1 RES1    0.0000
    150 C81       -1.2546    5.0310   14.9281 C.ar      1 RES1    0.0000
    151 H57       -1.3876    4.1280   15.1902 H         1 RES1    0.0000
    152 C82       -1.7538    5.4817   13.7251 C.ar      1 RES1    0.0000
    153 H58       -2.2980    4.9018   13.2046 H         1 RES1    0.0000
    154 O7        -0.0782    5.3471   16.9475 O.3       1 RES1    0.0000
    155 C83        0.6669    6.1861   17.8375 C.3       1 RES1    0.0000
    156 H59        0.1101    6.9261   18.1882 H         1 RES1    0.0000
    157 H60        1.4652    6.5657   17.3887 H         1 RES1    0.0000
    158 C84        1.0870    5.1538   19.0141 C.3       1 RES1    0.0000
    159 H61        1.3904    4.2949   18.6294 H         1 RES1    0.0000
    160 H62        1.8167    5.5336   19.5628 H         1 RES1    0.0000
    161 C85       -0.0438    4.9658   19.7815 C.3       1 RES1    0.0000
    162 H63       -0.7903    4.6121   19.2366 H         1 RES1    0.0000
    163 H64       -0.3283    5.8110   20.2114 H         1 RES1    0.0000
    164 C86        0.4470    3.8741   20.8921 C.3       1 RES1    0.0000
    165 H65       -0.2754    3.7177   21.5370 H         1 RES1    0.0000
    166 H66        1.2344    4.2167   21.3616 H         1 RES1    0.0000
    167 H67        0.6740    3.0324   20.4433 H         1 RES1    0.0000
    168 C87       -3.5937    8.8706   12.7823 C.ar      1 RES1    0.0000
    169 C88       -2.7249    9.9149   13.1896 C.ar      1 RES1    0.0000
    170 H68       -1.9225   10.0955   12.7144 H         1 RES1    0.0000
    171 C89       -3.0755   10.6649   14.3002 C.ar      1 RES1    0.0000
    172 H69       -2.5681   11.4371   14.5245 H         1 RES1    0.0000
    173 C90       -4.1168   10.3202   15.0544 C.ar      1 RES1    0.0000
    174 C91       -5.0650    9.3769   14.6037 C.ar      1 RES1    0.0000
    175 H70       -5.8890    9.2685   15.0657 H         1 RES1    0.0000
    176 C92       -4.7942    8.6219   13.5007 C.ar      1 RES1    0.0000
    177 H71       -5.3956    7.9445   13.2178 H         1 RES1    0.0000
    178 O8        -4.6687   10.9641   16.2366 O.3       1 RES1    0.0000
    179 C93       -3.8147   11.7633   16.9645 C.3       1 RES1    0.0000
    180 H72       -4.2270   12.6419   17.1643 H         1 RES1    0.0000
    181 H73       -2.9639   11.9066   16.4780 H         1 RES1    0.0000
    182 C94       -3.5571   10.8801   18.3409 C.3       1 RES1    0.0000
    183 H74       -4.4172   10.3995   18.4164 H         1 RES1    0.0000
    184 H75       -3.6087   11.5921   19.0273 H         1 RES1    0.0000
    185 C95       -2.5348    9.8019   19.0971 C.3       1 RES1    0.0000
    186 H76       -2.7111    9.9775   20.0549 H         1 RES1    0.0000
    187 H77       -2.9871    8.9394   18.9160 H         1 RES1    0.0000
    188 C96       -0.9929    9.3739   19.1102 C.3       1 RES1    0.0000
    189 H78       -0.9873    8.7359   19.8550 H         1 RES1    0.0000
    190 H79       -0.1723    9.9097   19.1329 H         1 RES1    0.0000
    191 H80       -1.0398    8.8848   18.2617 H         1 RES1    0.0000
    192 C97       -6.2439    9.8651   10.8024 C.ar      1 RES1    0.0000
    193 C98       -5.4375   10.9467   11.2399 C.ar      1 RES1    0.0000
    194 H81       -4.6254   11.1424   10.7892 H         1 RES1    0.0000
    195 C99       -5.8344   11.7346   12.3392 C.ar      1 RES1    0.0000
    196 H82       -5.2916   12.4635   12.6145 H         1 RES1    0.0000
    197 C100      -6.9876   11.4621   13.0123 C.ar      1 RES1    0.0000
    198 C101      -7.7827   10.3788   12.5937 C.ar      1 RES1    0.0000
    199 H83       -8.5768   10.1656   13.0708 H         1 RES1    0.0000
    200 C102      -7.4242    9.6310   11.5095 C.ar      1 RES1    0.0000
    201 H84       -7.9956    8.9264   11.2286 H         1 RES1    0.0000
    202 O9        -7.4577   12.1861   14.0701 O.3       1 RES1    0.0000
    203 C103      -6.6444   13.2431   14.5245 C.3       1 RES1    0.0000
    204 H85       -6.4646   13.8736   13.7816 H         1 RES1    0.0000
    205 H86       -5.7778   12.8869   14.8470 H         1 RES1    0.0000
    206 C104      -7.3702   13.9687   15.6615 C.3       1 RES1    0.0000
    207 H87       -8.2159   14.3913   15.3089 H         1 RES1    0.0000
    208 H88       -7.6000   13.3918   16.4045 H         1 RES1    0.0000
    209 C105      -6.4511   15.2052   16.2480 C.3       1 RES1    0.0000
    210 H89       -5.6240   14.8824   16.6892 H         1 RES1    0.0000
    211 H90       -6.2218   15.8670   15.5484 H         1 RES1    0.0000
    212 C106      -7.5184   15.7700   17.2963 C.3       1 RES1    0.0000
    213 H91       -7.1379   16.5418   17.7658 H         1 RES1    0.0000
    214 H92       -7.7420   15.0711   17.9450 H         1 RES1    0.0000
    215 H93       -8.3291   16.0475   16.8193 H         1 RES1    0.0000
    216 C107      -7.9764    9.4625    8.3116 C.ar      1 RES1    0.0000
    217 C108      -8.3365   10.7364    8.7245 C.ar      1 RES1    0.0000
    218 H94       -7.6845   11.2804    9.1488 H         1 RES1    0.0000
    219 C109      -9.6142   11.2526    8.5435 C.ar      1 RES1    0.0000
    220 H95       -9.8131   12.1370    8.8282 H         1 RES1    0.0000
    221 C110     -10.6108   10.4744    7.9439 C.ar      1 RES1    0.0000
    222 C111     -10.2962    9.1669    7.5197 C.ar      1 RES1    0.0000
    223 H96      -10.9646    8.6194    7.1237 H         1 RES1    0.0000
    224 C112      -9.0148    8.6821    7.6856 C.ar      1 RES1    0.0000
    225 H97       -8.8100    7.8075    7.3763 H         1 RES1    0.0000
    226 O10      -11.8901   10.8766    7.7026 O.3       1 RES1    0.0000
    227 C113     -12.2693   12.1717    8.1551 C.3       1 RES1    0.0000
    228 H98      -11.6503   12.8561    7.7987 H         1 RES1    0.0000
    229 H99      -12.2485   12.2113    9.1431 H         1 RES1    0.0000
    230 C114     -13.6864   12.4215    7.6441 C.3       1 RES1    0.0000
    231 H100     -13.7123   12.3151    6.6598 H         1 RES1    0.0000
    232 H101     -14.3077   11.7631    8.0438 H         1 RES1    0.0000
    233 C115     -14.1126   13.8071    8.0137 C.3       1 RES1    0.0000
    234 H102     -13.4028   14.4455    7.7516 H         1 RES1    0.0000
    235 H103     -14.2231   13.8620    8.9961 H         1 RES1    0.0000
    236 C116     -15.4203   14.2063    7.3424 C.3       1 RES1    0.0000
    237 H104     -15.6622   15.1164    7.6139 H         1 RES1    0.0000
    238 H105     -16.1280   13.5847    7.6102 H         1 RES1    0.0000
    239 H106     -15.3092   14.1768    6.3676 H         1 RES1    0.0000
    240 C117      -7.7167    8.9421    4.9081 C.ar      1 RES1    0.0000
    241 C118      -7.3423   10.2310    5.3946 C.ar      1 RES1    0.0000
    242 H107      -6.5031   10.3674    5.8189 H         1 RES1    0.0000
    243 C119      -8.2481   11.3009    5.2268 C.ar      1 RES1    0.0000
    244 H108      -8.0038   12.1721    5.5153 H         1 RES1    0.0000
    245 C120      -9.4327   11.1052    4.6781 C.ar      1 RES1    0.0000
    246 C121      -9.8207    9.8937    4.1501 C.ar      1 RES1    0.0000
    247 H109     -10.6600    9.7841    3.7165 H         1 RES1    0.0000
    248 C122      -8.9181    8.8337    4.2840 C.ar      1 RES1    0.0000
    249 H110      -9.1603    7.9906    3.9201 H         1 RES1    0.0000
    250 O11      -10.2350   12.2712    4.6291 O.3       1 RES1    0.0000
    251 C123     -11.4177   12.2163    4.0540 C.3       1 RES1    0.0000
    252 H111     -12.0488   11.7510    4.6574 H         1 RES1    0.0000
    253 H112     -11.2865   11.6367    3.2602 H         1 RES1    0.0000
    254 C124     -12.1562   13.6996    3.6222 C.3       1 RES1    0.0000
    255 H113     -11.6186   14.2873    3.0339 H         1 RES1    0.0000
    256 H114     -13.0792   13.6055    3.2790 H         1 RES1    0.0000
    257 C125     -12.1917   14.0917    4.6668 C.3       1 RES1    0.0000
    258 H115     -11.2759   14.1351    5.0420 H         1 RES1    0.0000
    259 H116     -12.7520   13.4762    5.2023 H         1 RES1    0.0000
    260 C126      -7.0978    6.8455    2.7020 C.ar      1 RES1    0.0000
    261 C127      -7.1088    7.9450    1.8497 C.ar      1 RES1    0.0000
    262 H117      -6.7166    8.7647    2.1269 H         1 RES1    0.0000
    263 C128      -7.6938    7.8443    0.5921 C.ar      1 RES1    0.0000
    264 H118      -7.6999    8.5937    0.0094 H         1 RES1    0.0000
    265 C129      -8.2658    6.6442    0.1867 C.ar      1 RES1    0.0000
    266 C130      -8.2542    5.5450    1.0371 C.ar      1 RES1    0.0000
    267 H119      -8.6463    4.7253    0.7599 H         1 RES1    0.0000
    268 C131      -7.6711    5.6457    2.2947 C.ar      1 RES1    0.0000
    269 H120      -7.6649    4.8964    2.8774 H         1 RES1    0.0000
    270 O12       -8.6950    6.8792   -1.2237 O.3       1 RES1    0.0000
    271 C132      -9.1847    5.6795   -1.3991 C.3       1 RES1    0.0000
    272 H121      -9.9856    5.5430   -0.8334 H         1 RES1    0.0000
    273 H122      -8.5215    4.9612   -1.2369 H         1 RES1    0.0000
    274 C133      -9.5733    6.0158   -2.9415 C.3       1 RES1    0.0000
    275 H123     -10.5468    6.1685   -2.8680 H         1 RES1    0.0000
    276 H124      -9.1693    6.8259   -3.3393 H         1 RES1    0.0000
    277 C134      -9.8399    4.7459   -3.6769 C.3       1 RES1    0.0000
    278 H125      -9.4209    3.9614   -3.2432 H         1 RES1    0.0000
    279 H126      -9.3842    4.9807   -4.5235 H         1 RES1    0.0000
    280 C135     -11.3594    4.7278   -3.8598 C.3       1 RES1    0.0000
    281 H127     -11.7519    4.8351   -2.9679 H         1 RES1    0.0000
    282 H128     -11.6217    3.8590   -4.2293 H         1 RES1    0.0000
    283 H129     -11.6835    5.4439   -4.4462 H         1 RES1    0.0000
    284 C136      -4.7960    4.7734    1.5273 C.ar      1 RES1    0.0000
    285 C137      -4.4447    6.0686    1.1653 C.ar      1 RES1    0.0000
    286 H130      -4.0658    6.6563    1.8083 H         1 RES1    0.0000
    287 C138      -4.6467    6.5041   -0.1395 C.ar      1 RES1    0.0000
    288 H131      -4.4055    7.3882   -0.3865 H         1 RES1    0.0000
    289 C139      -5.1981    5.6444   -1.0823 C.ar      1 RES1    0.0000
    290 C140      -5.5494    4.3492   -0.7203 C.ar      1 RES1    0.0000
    291 H132      -5.9276    3.7618   -1.3652 H         1 RES1    0.0000
    292 C141      -5.3474    3.9137    0.5845 C.ar      1 RES1    0.0000
    293 H133      -5.5877    3.0277    0.8315 H         1 RES1    0.0000
    294 O13       -5.4243    5.8097   -2.4927 O.3       1 RES1    0.0000
    295 C142      -5.3426    7.2326   -2.7624 C.3       1 RES1    0.0000
    296 H134      -4.4267    7.5867   -2.6266 H         1 RES1    0.0000
    297 H135      -5.9865    7.7533   -2.2212 H         1 RES1    0.0000
    298 C143      -5.7682    7.1876   -4.3896 C.3       1 RES1    0.0000
    299 H136      -5.0432    6.7931   -4.9364 H         1 RES1    0.0000
    300 H137      -6.5956    6.6601   -4.5254 H         1 RES1    0.0000
    301 C144      -5.9645    8.4862   -4.7120 C.3       1 RES1    0.0000
    302 H138      -5.1459    9.0023   -4.5046 H         1 RES1    0.0000
    303 H139      -6.7024    8.8514   -4.1615 H         1 RES1    0.0000
    304 C145      -6.3186    8.6570   -6.2394 C.3       1 RES1    0.0000
    305 H140      -6.4665    9.6054   -6.4373 H         1 RES1    0.0000
    306 H141      -7.1304    8.1498   -6.4468 H         1 RES1    0.0000
    307 H142      -5.5758    8.3233   -6.7862 H         1 RES1    0.0000
    308 C146      -3.8025    2.0477    2.2287 C.ar      1 RES1    0.0000
    309 C147      -2.7714    2.2629    1.3237 C.ar      1 RES1    0.0000
    310 H143      -2.3784    3.1265    1.2464 H         1 RES1    0.0000
    311 C148      -2.3109    1.2184    0.5298 C.ar      1 RES1    0.0000
    312 H144      -1.6054    1.3664   -0.0886 H         1 RES1    0.0000
    313 C149      -2.8845   -0.0431    0.6411 C.ar      1 RES1    0.0000
    314 C150      -3.9176   -0.2583    1.5462 C.ar      1 RES1    0.0000
    315 H145      -4.3086   -1.1219    1.6235 H         1 RES1    0.0000
    316 C151      -4.3761    0.7862    2.3400 C.ar      1 RES1    0.0000
    317 H146      -5.0817    0.6382    2.9585 H         1 RES1    0.0000
    318 O14       -2.3749   -1.3344   -0.1622 O.3       1 RES1    0.0000
    319 C152      -3.5938   -1.0068   -1.0371 C.3       1 RES1    0.0000
    320 H147      -4.0982   -1.8333   -1.2482 H         1 RES1    0.0000
    321 H148      -4.1985   -0.3824   -0.5638 H         1 RES1    0.0000
    322 C153      -3.0669   -0.3723   -2.3061 C.3       1 RES1    0.0000
    323 H149      -3.0300   -1.0385   -3.0377 H         1 RES1    0.0000
    324 H150      -2.1558   -0.0114   -2.1590 H         1 RES1    0.0000
    325 C154      -4.1226    0.8467   -2.6813 C.3       1 RES1    0.0000
    326 H151      -4.0045    1.5882   -2.0383 H         1 RES1    0.0000
    327 H152      -3.9117    1.1902   -3.5845 H         1 RES1    0.0000
    328 C155      -5.5477    0.3923   -2.6511 C.3       1 RES1    0.0000
    329 H153      -5.7698   -0.0428   -3.5015 H         1 RES1    0.0000
    330 H154      -6.1332    1.1647   -2.5154 H         1 RES1    0.0000
    331 H155      -5.6714   -0.2458   -1.9157 H         1 RES1    0.0000
    332 C156       1.3997   10.7966   16.9607 C.3       1 RES1    0.0000
    333 H156       1.3037   10.7706   17.9355 H         1 RES1    0.0000
    334 H157       0.5846   10.4443   16.5440 H         1 RES1    0.0000
    335 H158       1.5391   11.7228   16.6703 H         1 RES1    0.0000
    336 C157     -12.9797   15.7394    4.3613 C.3       1 RES1    0.0000
    337 H159     -13.1024   16.1549    5.2400 H         1 RES1    0.0000
    338 H160     -13.8475   15.6459    3.9182 H         1 RES1    0.0000
    339 H161     -12.3923   16.3019    3.8126 H         1 RES1    0.0000
    340 C158       1.6305    1.4157    7.3047 Du        2 SUP2    0.0000
    341 C159       2.7709    2.0988    6.8974 Du        2 SUP2    0.0000
    342 H162       2.6960    2.9716    6.5278 Du        2 SUP2    0.0000
    343 C160       4.0207    1.5044    7.0275 Du        2 SUP2    0.0000
    344 H163       4.8013    1.9707    6.7485 Du        2 SUP2    0.0000
    345 C161       4.1297    0.2280    7.5687 Du        2 SUP2    0.0000
    346 C162       2.9902   -0.4533    7.9760 Du        2 SUP2    0.0000
    347 H164       3.0651   -1.3261    8.3455 Du        2 SUP2    0.0000
    348 C163       1.7401    0.1397    7.8440 Du        2 SUP2    0.0000
    349 H165       0.9614   -0.3266    8.1230 Du        2 SUP2    0.0000
    350 O15        5.3073   -0.4685    7.7968 Du        2 SUP2    0.0000
    351 C164       6.4807    0.2469    7.3500 Du        2 SUP2    0.0000
    352 H166       6.5278    1.1548    7.7403 Du        2 SUP2    0.0000
    353 H167       6.5183    0.3089    6.3638 Du        2 SUP2    0.0000
    354 H168       8.1517    0.2177    7.7893 Du        2 SUP2    0.0000
    355 H169       8.1535   -1.0042    8.8207 Du        2 SUP2    0.0000
    356 H170       9.7327    0.5320   12.3203 Du        2 SUP2    0.0000
    357 H171       8.3381    0.6859   13.0859 Du        2 SUP2    0.0000
    358 C165       8.6582   -1.0614   11.6717 Du        2 SUP2    0.0000
    359 H172       8.9880   -1.6502   12.3920 Du        2 SUP2    0.0000
    360 H173       9.0673   -1.3137   10.8288 Du        2 SUP2    0.0000
    361 H174       7.6768   -1.1626   11.6095 Du        2 SUP2    0.0000
    362 H175      -4.1933   12.4277   17.4246 Du        2 SUP2    0.0000
    363 H176      -2.9681   12.1220   16.4346 Du        2 SUP2    0.0000
    364 H177      -2.7634   10.3578   19.8833 Du        2 SUP2    0.0000
    365 H178      -3.1358    9.0143   19.0725 Du        2 SUP2    0.0000
    366 C166      -2.5735   10.7162   17.5811 Du        2 SUP2    0.0000
    367 H179      -1.7527   11.2691   17.5792 Du        2 SUP2    0.0000
    368 H180      -2.4439   10.0451   16.8664 Du        2 SUP2    0.0000
    369 H181      -8.2848   14.2049   15.4372 Du        2 SUP2    0.0000
    370 H182      -6.8708   14.7938   15.9576 Du        2 SUP2    0.0000
    371 C167      -7.2771   12.8149   16.9437 Du        2 SUP2    0.0000
    372 H183      -7.7854   12.0152   16.6552 Du        2 SUP2    0.0000
    373 H184      -6.3301   12.5411   17.0229 Du        2 SUP2    0.0000
    374 C168      -7.8159   13.2176   18.4937 Du        2 SUP2    0.0000
    375 H185      -7.7394   12.4357   19.0782 Du        2 SUP2    0.0000
    376 H186      -8.7526   13.5027   18.4503 Du        2 SUP2    0.0000
    377 H187      -7.2682   13.9476   18.8500 Du        2 SUP2    0.0000
    378 C169      -6.3410    7.1329    2.5983 Du        2 SUP2    0.0000
    379 C170      -5.1469    7.5041    1.9912 Du        2 SUP2    0.0000
    380 H188      -4.3428    7.5268    2.4984 Du        2 SUP2    0.0000
    381 C171      -5.1249    7.8403    0.6430 Du        2 SUP2    0.0000
    382 H189      -4.3099    8.0935    0.2300 Du        2 SUP2    0.0000
    383 C172      -6.3017    7.8071   -0.0980 Du        2 SUP2    0.0000
    384 C173      -7.4951    7.4362    0.5072 Du        2 SUP2    0.0000
    385 H190      -8.2974    7.4135    0.0000 Du        2 SUP2    0.0000
    386 C174      -7.5153    7.1000    1.8554 Du        2 SUP2    0.0000
    387 H191      -8.3328    6.8465    2.2702 Du        2 SUP2    0.0000
    388 O16       -6.4062    8.1025   -1.5254 Du        2 SUP2    0.0000
    389 C175      -5.0337    8.1623   -1.9855 Du        2 SUP2    0.0000
    390 H192      -4.4931    7.3770   -1.7027 Du        2 SUP2    0.0000
    391 H193      -4.5719    9.0011   -1.7347 Du        2 SUP2    0.0000
    392 C176      -5.4975    8.1040   -3.6769 Du        2 SUP2    0.0000
    393 H194      -4.6803    8.1586   -4.2444 Du        2 SUP2    0.0000
    394 H195      -5.9470    7.2475   -3.8711 Du        2 SUP2    0.0000
    395 C177      -6.3910    9.2393   -3.9861 Du        2 SUP2    0.0000
    396 H196      -5.9120   10.0894   -3.8258 Du        2 SUP2    0.0000
    397 H197      -7.2091    9.1649   -3.4280 Du        2 SUP2    0.0000
    398 C178      -6.5392    8.7739   -5.4964 Du        2 SUP2    0.0000
    399 H198      -7.1315    9.3808   -5.9754 Du        2 SUP2    0.0000
    400 H199      -6.9065    7.8615   -5.5228 Du        2 SUP2    0.0000
    401 H200      -5.6523    8.7720   -5.9226 Du        2 SUP2    0.0000
    402 C179      -5.7766    4.1795    2.0232 Du        2 SUP2    0.0000
    403 C180      -7.1445    3.9374    2.1043 Du        2 SUP2    0.0000
    404 H201      -7.5543    3.8046    2.9509 Du        2 SUP2    0.0000
    405 C181      -7.9116    3.8898    0.9466 Du        2 SUP2    0.0000
    406 H202      -8.8442    3.7242    1.0012 Du        2 SUP2    0.0000
    407 C182      -7.3109    4.0843   -0.2923 Du        2 SUP2    0.0000
    408 C183      -5.9450    4.3263   -0.3733 Du        2 SUP2    0.0000
    409 H203      -5.5351    4.4592   -1.2200 Du        2 SUP2    0.0000
    410 C184      -5.1778    4.3739    0.7844 Du        2 SUP2    0.0000
    411 H204      -4.2434    4.5396    0.7297 Du        2 SUP2    0.0000
    412 O17       -8.1951    4.1434   -1.4274 Du        2 SUP2    0.0000
    413 C185      -8.1811    4.6853   -3.1055 Du        2 SUP2    0.0000
    414 H205      -8.1494    5.6766   -3.0320 Du        2 SUP2    0.0000
    415 H206      -7.2453    4.4103   -3.3016 Du        2 SUP2    0.0000
    416 C186      -9.4033    4.8930   -3.9408 Du        2 SUP2    0.0000
    417 H207      -9.6927    4.0253   -4.2972 Du        2 SUP2    0.0000
    418 H208      -9.1590    5.4732   -4.7120 Du        2 SUP2    0.0000
    419 C187     -10.5612    5.5387   -3.2149 Du        2 SUP2    0.0000
    420 H209     -10.2258    6.0841   -2.4588 Du        2 SUP2    0.0000
    421 H210     -11.0544    6.1370   -3.8315 Du        2 SUP2    0.0000
    422 C188     -11.4848    4.4668   -2.6964 Du        2 SUP2    0.0000
    423 H211     -12.3229    4.8811   -2.3928 Du        2 SUP2    0.0000
    424 H212     -11.0606    4.0019   -1.9497 Du        2 SUP2    0.0000
    425 H213     -11.6814    3.8304   -3.4148 Du        2 SUP2    0.0000
    426 C189      -3.6595    1.8205    2.2099 Du        2 SUP2    0.0000
    427 C190      -2.7981    2.0047    1.1332 Du        2 SUP2    0.0000
    428 H214      -2.1445    2.6933    1.1615 Du        2 SUP2    0.0000
    429 C191      -2.8973    1.1845    0.0151 Du        2 SUP2    0.0000
    430 H215      -2.3097    1.3112   -0.7203 Du        2 SUP2    0.0000
    431 C192      -3.8579    0.1801   -0.0264 Du        2 SUP2    0.0000
    432 C193      -4.7165   -0.0059    1.0503 Du        2 SUP2    0.0000
    433 H216      -5.3730   -0.6927    1.0220 Du        2 SUP2    0.0000
    434 C194      -4.6192    0.8143    2.1684 Du        2 SUP2    0.0000
    435 H217      -5.2069    0.6876    2.9038 Du        2 SUP2    0.0000
    436 O18       -3.8215   -0.6511   -1.1238 Du        2 SUP2    0.0000
    437 C195      -3.6730   -0.2736   -2.6568 Du        2 SUP2    0.0000
    438 H218      -2.7171   -0.0335   -2.7567 Du        2 SUP2    0.0000
    439 H219      -3.7813   -1.1355   -3.1319 Du        2 SUP2    0.0000
    440 C196      -4.4063    0.7327   -3.5373 Du        2 SUP2    0.0000
    441 H220      -3.9815    1.6147   -3.3846 Du        2 SUP2    0.0000
    442 H221      -4.2207    0.4857   -4.4763 Du        2 SUP2    0.0000
    443 C197      -5.8134    0.9214   -3.4261 Du        2 SUP2    0.0000
    444 H222      -6.2596    0.2422   -3.9899 Du        2 SUP2    0.0000
    445 H223      -6.0736    0.7393   -2.4871 Du        2 SUP2    0.0000
    446 C198      -6.3294    2.1941   -3.7825 Du        2 SUP2    0.0000
    447 H224      -7.2726    2.1059   -4.0313 Du        2 SUP2    0.0000
    448 H225      -5.8228    2.5488   -4.5423 Du        2 SUP2    0.0000
    449 H226      -6.2472    2.8050   -3.0226 Du        2 SUP2    0.0000
@<TRIPOS>BOND
     1    1    2 ar
     2    2    3 ar
     3    3    4 ar
     4    4    5 ar
     5    5    6 ar
     6    6    1 ar
     7    7    1 1
     8    8    2 1
     9    9    3 1
    10   10    4 1
    11   11    5 1
    12   12    6 1
    13   13    7 1
    14   14   13 2
    15   15   14 1
    16   16    7 1
    17   17    8 1
    18   18   17 2
    19   19   18 1
    20   20    8 1
    21   21    9 1
    22   22   21 2
    23   23   22 1
    24   24    9 1
    25   25   10 1
    26   26   25 2
    27   27   26 1
    28   28   10 1
    29   29   11 1
    30   30   29 2
    31   31   30 1
    32   32   11 1
    33   33   12 1
    34   34   33 2
    35   35   34 1
    36   36   12 1
    37   37   13 1
    38   38   37 1
    39   39   37 1
    40   40   39 ar
    41   41   40 1
    42   42   40 ar
    43   43   42 1
    44   44   42 ar
    45   45   44 ar
    46   46   45 1
    47   47   39 ar
    48   48   47 1
    49   49   44 1
    50   50   49 2
    51   51   49 2
    52   52   14 1
    53   53   52 ar
    54   54   53 1
    55   55   53 ar
    56   56   55 1
    57   57   55 ar
    58   58   57 ar
    59   59   58 1
    60   60   52 ar
    61   61   60 1
    62   62   57 1
    63   63   62 1
    64   64   63 1
    65   65   63 1
    66   66   63 1
    67   67   66 1
    68   68   66 1
    69   69   66 1
    70   70   69 1
    71   71   69 1
    72   72   69 1
    73   73   72 1
    74   74   72 1
    75   75   72 1
    76   76   77 1
    77   78   76 1
    78   79   76 1
    79   80   79 1
    80   81   79 1
    81   82   79 1
    82   83   82 1
    83   84   82 1
    84   85   82 1
    85   86   15 1
    86   87   86 ar
    87   88   87 1
    88   89   87 ar
    89   90   89 1
    90   91   89 ar
    91   92   91 ar
    92   93   92 1
    93   94   86 ar
    94   95   94 1
    95   96   91 1
    96   97   76 1
    97   98   97 1
    98   99   97 1
    99  100   18 1
   100  101  100 ar
   101  102  101 1
   102  103  101 ar
   103  104  103 1
   104  105  103 ar
   105  106  105 ar
   106  107  106 1
   107  108  100 ar
   108  109  108 1
   109  110  105 1
   110  111  110 1
   111  112  111 1
   112  113  111 1
   113  114  111 1
   114  115  114 1
   115  116  114 1
   116  117  114 1
   117  118  117 1
   118  119  117 1
   119  120  117 1
   120  121  120 1
   121  122  120 1
   122  123  120 1
   123  124   19 1
   124  125  124 ar
   125  126  125 1
   126  127  125 ar
   127  128  127 1
   128  129  127 ar
   129  130  129 ar
   130  131  130 1
   131  132  124 ar
   132  133  132 1
   133  134  129 1
   134  135  134 1
   135  136  135 1
   136  137  135 1
   137  138  135 1
   138  139  138 1
   139  140  138 1
   140  141  138 1
   141  142  141 1
   142  143  141 1
   143  144   22 1
   144  145  144 ar
   145  146  145 1
   146  147  145 ar
   147  148  147 1
   148  149  147 ar
   149  150  149 ar
   150  151  150 1
   151  152  144 ar
   152  153  152 1
   153  154  149 1
   154  155  154 1
   155  156  155 1
   156  157  155 1
   157  158  155 1
   158  159  158 1
   159  160  158 1
   160  161  158 1
   161  162  161 1
   162  163  161 1
   163  164  161 1
   164  165  164 1
   165  166  164 1
   166  167  164 1
   167  168   23 1
   168  169  168 ar
   169  170  169 1
   170  171  169 ar
   171  172  171 1
   172  173  171 ar
   173  174  173 ar
   174  175  174 1
   175  176  168 ar
   176  177  176 1
   177  178  173 1
   178  179  178 1
   179  180  179 1
   180  181  179 1
   181  182  179 1
   182  183  182 1
   183  184  182 1
   184  185  182 1
   185  186  185 1
   186  187  185 1
   187  188  185 1
   188  189  188 1
   189  190  188 1
   190  191  188 1
   191  192   26 1
   192  193  192 ar
   193  194  193 1
   194  195  193 ar
   195  196  195 1
   196  197  195 ar
   197  198  197 ar
   198  199  198 1
   199  200  192 ar
   200  201  200 1
   201  202  197 1
   202  203  202 1
   203  204  203 1
   204  205  203 1
   205  206  203 1
   206  207  206 1
   207  208  206 1
   208  209  206 1
   209  210  209 1
   210  211  209 1
   211  212  209 1
   212  213  212 1
   213  214  212 1
   214  215  212 1
   215  216   27 1
   216  217  216 ar
   217  218  217 1
   218  219  217 ar
   219  220  219 1
   220  221  219 ar
   221  222  221 ar
   222  223  222 1
   223  224  216 ar
   224  225  224 1
   225  226  221 1
   226  227  226 1
   227  228  227 1
   228  229  227 1
   229  230  227 1
   230  231  230 1
   231  232  230 1
   232  233  230 1
   233  234  233 1
   234  235  233 1
   235  236  233 1
   236  237  236 1
   237  238  236 1
   238  239  236 1
   239  240   30 1
   240  241  240 ar
   241  242  241 1
   242  243  241 ar
   243  244  243 1
   244  245  243 ar
   245  246  245 ar
   246  247  246 1
   247  248  240 ar
   248  249  248 1
   249  250  245 1
   250  251  250 1
   251  252  251 1
   252  253  251 1
   253  254  251 1
   254  255  254 1
   255  256  254 1
   256  257  254 1
   257  258  257 1
   258  259  257 1
   259  260   31 1
   260  261  260 ar
   261  262  261 1
   262  263  261 ar
   263  264  263 1
   264  265  263 ar
   265  266  265 ar
   266  267  266 1
   267  268  260 ar
   268  269  268 1
   269  270  265 1
   270  271  270 1
   271  272  271 1
   272  273  271 1
   273  274  271 1
   274  275  274 1
   275  276  274 1
   276  277  274 1
   277  278  277 1
   278  279  277 1
   279  280  277 1
   280  281  280 1
   281  282  280 1
   282  283  280 1
   283  284   34 1
   284  285  284 ar
   285  286  285 1
   286  287  285 ar
   287  288  287 1
   288  289  287 ar
   289  290  289 ar
   290  291  290 1
   291  292  284 ar
   292  293  292 1
   293  294  289 1
   294  295  294 1
   295  296  295 1
   296  297  295 1
   297  298  295 1
   298  299  298 1
   299  300  298 1
   300  301  298 1
   301  302  301 1
   302  303  301 1
   303  304  301 1
   304  305  304 1
   305  306  304 1
   306  307  304 1
   307  308   35 1
   308  309  308 ar
   309  310  309 1
   310  311  309 ar
   311  312  311 1
   312  313  311 ar
   313  314  313 ar
   314  315  314 1
   315  316  308 ar
   316  317  316 1
   317  318  313 1
   318  319  318 1
   319  320  319 1
   320  321  319 1
   321  322  319 1
   322  323  322 1
   323  324  322 1
   324  325  322 1
   325  326  325 1
   326  327  325 1
   327  328  325 1
   328  329  328 1
   329  330  328 1
   330  331  328 1
   331  332  141 1
   332  333  332 1
   333  334  332 1
   334  335  332 1
   335  336  257 1
   336  337  336 1
   337  338  336 1
   338  339  336 1
   339   15   16 2
   340   16   17 1
   341   19   20 2
   342   20   21 1
   343   23   24 2
   344   24   25 1
   345   27   28 2
   346   28   29 1
   347   31   32 2
   348   32   33 1
   349   35   36 2
   350   36   37 1
   351   45   47 ar
   352   58   60 ar
   353   92   94 ar
   354   96   97 1
   355  106  108 ar
   356  130  132 ar
   357  150  152 ar
   358  174  176 ar
   359  198  200 ar
   360  222  224 ar
   361  246  248 ar
   362  266  268 ar
   363  290  292 ar
   364  314  316 ar
@<TRIPOS>SUBSTRUCTURE
     1 RES1 1
     2 SUP2 340

@<TRIPOS>CRYSIN
  18.8040   20.0720   20.2650  90.3300 108.8900 117.0200   2 1

