# MOL2 file generated by ConQuest
# Please check atom types

@<TRIPOS>MOLECULE
GUSWIA
    41    43     1
SMALL
NO_CHARGES
****
Generated from CSD

@<TRIPOS>ATOM
      1 O1         1.4088    2.3073   -2.1511 O.3       1 RES1    0.0000
      2 O2        -0.0934    3.4933   -3.4996 O.3       1 RES1    0.0000
      3 O3        -0.0422    1.1817    1.3789 O.3       1 RES1    0.0000
      4 O4         0.6159    3.1506    2.2419 O.2       1 RES1    0.0000
      5 O5         4.1235   -0.3472    7.0404 O.2       1 RES1    0.0000
      6 O6         2.9842   -2.1027    6.5619 O.2       1 RES1    0.0000
      7 N1        -3.1278    2.3013   -0.1473 N.ar      1 RES1    0.0000
      8 N2         3.3009   -0.9493    6.3615 N.pl3     1 RES1    0.0000
      9 C1         1.2606    3.2736   -3.1601 C.3       1 RES1    0.0000
     10 C2        -0.8520    4.1516   -2.4953 C.3       1 RES1    0.0000
     11 C3        -1.3004    3.2638   -1.3850 C.ar      1 RES1    0.0000
     12 C4        -0.3778    2.6195   -0.5505 C.ar      1 RES1    0.0000
     13 C5         1.0935    2.7418   -0.8251 C.3       1 RES1    0.0000
     14 C6        -0.8869    1.8675    0.4762 C.ar      1 RES1    0.0000
     15 C7        -2.2617    1.6797    0.6719 C.ar      1 RES1    0.0000
     16 C8        -2.6463    3.0574   -1.1198 C.ar      1 RES1    0.0000
     17 C9         1.9585    2.7434   -4.3754 C.3       1 RES1    0.0000
     18 C10        0.6180    1.9586    2.2784 C.2       1 RES1    0.0000
     19 C11        1.3319    1.1500    3.2980 C.ar      1 RES1    0.0000
     20 C12        2.1940    1.8264    4.1726 C.ar      1 RES1    0.0000
     21 C13        2.8594    1.1316    5.1533 C.ar      1 RES1    0.0000
     22 C14        2.6351   -0.2121    5.2712 C.ar      1 RES1    0.0000
     23 C15        1.7991   -0.9201    4.4284 C.ar      1 RES1    0.0000
     24 C16        1.1464   -0.2100    3.4312 C.ar      1 RES1    0.0000
     25 C17       -2.8034    0.8218    1.7457 C.3       1 RES1    0.0000
     26 H1         1.5828    4.2281   -2.8760 H         1 RES1    0.0000
     27 H2        -3.2826    3.5937   -1.6856 H         1 RES1    0.0000
     28 H3         2.3329    2.7825    4.0312 H         1 RES1    0.0000
     29 H4         3.4310    1.5681    5.7403 H         1 RES1    0.0000
     30 H5         1.6736   -1.8267    4.5262 H         1 RES1    0.0000
     31 H6         0.6112   -0.6737    2.8289 H         1 RES1    0.0000
     32 H7        -0.2965    4.9071   -2.1570 H         1 RES1    0.0000
     33 H8        -1.6410    4.5574   -2.9114 H         1 RES1    0.0000
     34 H9         1.3284    3.7701   -0.7308 H         1 RES1    0.0000
     35 H10        1.5902    2.2119   -0.2593 H         1 RES1    0.0000
     36 H11       -2.4575   -0.0750    1.7445 H         1 RES1    0.0000
     37 H12       -3.7207    0.7870    1.6973 H         1 RES1    0.0000
     38 H13       -2.6428    1.2983    2.5460 H         1 RES1    0.0000
     39 H14        1.8644    3.3606   -5.0331 H         1 RES1    0.0000
     40 H15        1.4766    1.9993   -4.6795 H         1 RES1    0.0000
     41 H16        2.8404    2.5525   -4.1608 H         1 RES1    0.0000
@<TRIPOS>BOND
     1    1    9 1
     2    2    9 1
     3    3   14 1
     4    4   18 2
     5    5    8 2
     6    6    8 2
     7    7   15 ar
     8    8   22 1
     9    9   17 1
    10   10    2 1
    11   11   10 1
    12   12   11 ar
    13   13    1 1
    14   14   12 ar
    15   15   14 ar
    16   16    7 ar
    17   17   39 1
    18   18    3 1
    19   19   18 1
    20   20   19 ar
    21   21   20 ar
    22   22   21 ar
    23   23   22 ar
    24   24   19 ar
    25   25   15 1
    26   26    9 1
    27   27   16 1
    28   28   20 1
    29   29   21 1
    30   30   23 1
    31   31   24 1
    32   32   10 1
    33   33   10 1
    34   34   13 1
    35   35   13 1
    36   36   25 1
    37   37   25 1
    38   38   25 1
    39   40   17 1
    40   41   17 1
    41   11   16 ar
    42   12   13 1
    43   23   24 ar
@<TRIPOS>SUBSTRUCTURE
     1 RES1 1

@<TRIPOS>CRYSIN
   7.5690    9.8660   12.2050  76.5200  78.6600  66.7600   2 1

