# MOL2 file generated by ConQuest
# Please check atom types

@<TRIPOS>MOLECULE
GUTYUR
    33    35     1
SMALL
NO_CHARGES
****
Generated from CSD

@<TRIPOS>ATOM
      1 C1        14.9393    1.5836   10.0423 C.2       1 RES1    0.0000
      2 N1        14.2314    0.9328   11.0161 N.pl3     1 RES1    0.0000
      3 H1        13.3897    0.6814   10.8712 H         1 RES1    0.0000
      4 N2        14.6778    0.6008   12.2648 N.2       1 RES1    0.0000
      5 C2        15.8957    0.9177   12.5609 C.2       1 RES1    0.0000
      6 H2        16.2129    0.7038   13.4297 H         1 RES1    0.0000
      7 C3        16.8049    1.5768   11.6518 C.ar      1 RES1    0.0000
      8 C4        16.3226    1.9099   10.3767 C.ar      1 RES1    0.0000
      9 C5        18.1271    1.8823   12.0002 C.ar      1 RES1    0.0000
     10 H3        18.4549    1.6627   12.8652 H         1 RES1    0.0000
     11 C6        18.9524    2.5043   11.0820 C.ar      1 RES1    0.0000
     12 H4        19.8498    2.7095   11.3170 H         1 RES1    0.0000
     13 C7        18.4751    2.8333    9.8114 C.ar      1 RES1    0.0000
     14 H5        19.0521    3.2539    9.1849 H         1 RES1    0.0000
     15 C8        17.1687    2.5516    9.4587 C.ar      1 RES1    0.0000
     16 H6        16.8441    2.7913    8.5986 H         1 RES1    0.0000
     17 N3        14.4686    1.9327    8.8731 N.2       1 RES1    0.0000
     18 N4        13.1142    1.6480    8.7190 N.2       1 RES1    0.0000
     19 C9        12.6672    2.0875    7.5987 C.2       1 RES1    0.0000
     20 H7        13.2782    2.4960    6.9971 H         1 RES1    0.0000
     21 C10       11.2607    1.9883    7.2062 C.ar      1 RES1    0.0000
     22 C11       10.2919    1.4185    8.0447 C.ar      1 RES1    0.0000
     23 H8        10.5334    1.0494    8.8869 H         1 RES1    0.0000
     24 C12        8.9764    1.4064    7.6188 C.ar      1 RES1    0.0000
     25 C13        8.5616    1.9345    6.4033 C.ar      1 RES1    0.0000
     26 H9         7.6466    1.9175    6.1467 H         1 RES1    0.0000
     27 C14        9.5313    2.4888    5.5759 C.ar      1 RES1    0.0000
     28 H10        9.2806    2.8560    4.7366 H         1 RES1    0.0000
     29 C15       10.8645    2.5100    5.9657 C.ar      1 RES1    0.0000
     30 H11       11.5168    2.8829    5.3835 H         1 RES1    0.0000
     31 N5         7.9496    0.7931    8.4828 N.pl3     1 RES1    0.0000
     32 O1         8.3144    0.1870    9.4848 O.2       1 RES1    0.0000
     33 O2         6.7756    0.9082    8.1501 O.2       1 RES1    0.0000
@<TRIPOS>BOND
     1    1    2 1
     2    2    3 1
     3    4    2 1
     4    5    4 2
     5    6    5 1
     6    7    5 1
     7    8    1 1
     8    9    7 ar
     9   10    9 1
    10   11    9 ar
    11   12   11 1
    12   13   11 ar
    13   14   13 1
    14   15    8 ar
    15   16   15 1
    16   17    1 2
    17   18   17 1
    18   19   18 2
    19   20   19 1
    20   21   19 1
    21   22   21 ar
    22   23   22 1
    23   24   22 ar
    24   25   24 ar
    25   26   25 1
    26   27   25 ar
    27   28   27 1
    28   29   21 ar
    29   30   29 1
    30   31   24 1
    31   32   31 2
    32   33   31 2
    33    7    8 ar
    34   13   15 ar
    35   27   29 ar
@<TRIPOS>SUBSTRUCTURE
     1 RES1 1

@<TRIPOS>CRYSIN
  14.1361    3.7858   24.2876  90.0000  94.0090  90.0000  14 1

