# MOL2 file generated by ConQuest
# Please check atom types

@<TRIPOS>MOLECULE
GUTZAY
    62    68     2
SMALL
NO_CHARGES
****
Generated from CSD

@<TRIPOS>ATOM
      1 C1         9.9603    5.1692   10.2449 C.2       1 RES1    0.0000
      2 N1         9.7877    5.7134   11.4897 N.pl3     1 RES1    0.0000
      3 N2        10.2818    6.9170   11.9321 N.2       1 RES1    0.0000
      4 C2        11.0036    7.5224   11.0655 C.2       1 RES1    0.0000
      5 H1        11.3712    8.3351   11.3254 H         1 RES1    0.0000
      6 C3        11.3083    7.0792    9.7311 C.ar      1 RES1    0.0000
      7 C4        10.7375    5.8777    9.2877 C.ar      1 RES1    0.0000
      8 C5        12.1100    7.8122    8.8781 C.ar      1 RES1    0.0000
      9 H2        12.4988    8.6056    9.1700 H         1 RES1    0.0000
     10 C6        12.3307    7.3642    7.5979 C.ar      1 RES1    0.0000
     11 H3        12.8736    7.8541    7.0240 H         1 RES1    0.0000
     12 C7        11.7515    6.1924    7.1597 C.ar      1 RES1    0.0000
     13 H4        11.8987    5.9072    6.2867 H         1 RES1    0.0000
     14 C8        10.9685    5.4480    7.9836 C.ar      1 RES1    0.0000
     15 H5        10.5893    4.6556    7.6787 H         1 RES1    0.0000
     16 N3         9.3624    4.0087   10.1856 N.2       1 RES1    0.0000
     17 N4         8.7937    3.7927   11.4185 N.2       1 RES1    0.0000
     18 C9         9.0427    4.8239   12.1978 C.2       1 RES1    0.0000
     19 C10        8.6000    4.9171   13.5808 C.ar      1 RES1    0.0000
     20 C11        7.7098    3.9613   14.0391 C.ar      1 RES1    0.0000
     21 H6         7.4109    3.2856   13.4738 H         1 RES1    0.0000
     22 C12        7.2760    4.0275   15.3406 C.ar      1 RES1    0.0000
     23 C13        7.6669    5.0209   16.2122 C.ar      1 RES1    0.0000
     24 H7         7.3379    5.0586   17.0803 H         1 RES1    0.0000
     25 C14        8.5612    5.9518   15.7490 C.ar      1 RES1    0.0000
     26 H8         8.8580    6.6242   16.3193 H         1 RES1    0.0000
     27 C15        9.0251    5.9074   14.4591 C.ar      1 RES1    0.0000
     28 H9         9.6326    6.5486   14.1686 H         1 RES1    0.0000
     29 N5         6.3846    2.9887   15.8211 N.pl3     1 RES1    0.0000
     30 O1         6.1684    2.0396   15.1099 O.2       1 RES1    0.0000
     31 O2         5.9107    3.0984   16.9279 O.2       1 RES1    0.0000
     32 C16        6.9136    1.1840    1.4885 C.2       2 RES2    0.0000
     33 N6         6.4802    1.6325    0.2812 N.pl3     2 RES2    0.0000
     34 N7         5.1620    1.7638   -0.1231 N.2       2 RES2    0.0000
     35 C17        4.3166    1.3694    0.7639 C.2       2 RES2    0.0000
     36 H10        3.4172    1.4254    0.5341 H         2 RES2    0.0000
     37 C18        4.6122    0.8544    2.0677 C.ar      2 RES2    0.0000
     38 C19        5.9586    0.7817    2.4603 C.ar      2 RES2    0.0000
     39 C20        3.6099    0.4428    2.9349 C.ar      2 RES2    0.0000
     40 H11        2.7167    0.4868    2.6777 H         2 RES2    0.0000
     41 C21        3.9544   -0.0293    4.1731 C.ar      2 RES2    0.0000
     42 H12        3.2898   -0.3147    4.7575 H         2 RES2    0.0000
     43 C22        5.2808   -0.0876    4.5656 C.ar      2 RES2    0.0000
     44 H13        5.4940   -0.4037    5.4146 H         2 RES2    0.0000
     45 C23        6.2831    0.3128    3.7280 C.ar      2 RES2    0.0000
     46 H14        7.1708    0.2721    4.0012 H         2 RES2    0.0000
     47 N8         8.2319    1.1878    1.5166 N.2       2 RES2    0.0000
     48 N9         8.6497    1.6418    0.2914 N.2       2 RES2    0.0000
     49 C24        7.5958    1.9082   -0.4533 C.2       2 RES2    0.0000
     50 C25        7.6771    2.3907   -1.8163 C.ar      2 RES2    0.0000
     51 C26        8.9169    2.8040   -2.2873 C.ar      2 RES2    0.0000
     52 H15        9.6682    2.7631   -1.7418 H         2 RES2    0.0000
     53 C27        9.0126    3.2718   -3.5678 C.ar      2 RES2    0.0000
     54 C28        7.9435    3.3543   -4.4184 C.ar      2 RES2    0.0000
     55 H16        8.0379    3.6933   -5.2798 H         2 RES2    0.0000
     56 C29        6.7208    2.9161   -3.9521 C.ar      2 RES2    0.0000
     57 H17        5.9809    2.9358   -4.5141 H         2 RES2    0.0000
     58 C30        6.5846    2.4525   -2.6688 C.ar      2 RES2    0.0000
     59 H18        5.7495    2.1759   -2.3658 H         2 RES2    0.0000
     60 N10       10.3165    3.7351   -4.0424 N.pl3     2 RES2    0.0000
     61 O3        11.3052    3.3191   -3.4969 O.2       2 RES2    0.0000
     62 O4        10.3352    4.5318   -4.9558 O.2       2 RES2    0.0000
@<TRIPOS>BOND
     1    1    2 1
     2    2    3 1
     3    3    4 2
     4    4    5 1
     5    6    4 1
     6    7    1 1
     7    8    6 ar
     8    9    8 1
     9   10    8 ar
    10   11   10 1
    11   12   10 ar
    12   13   12 1
    13   14    7 ar
    14   15   14 1
    15   16    1 2
    16   17   16 1
    17   18    2 1
    18   19   18 1
    19   20   19 ar
    20   21   20 1
    21   22   20 ar
    22   23   22 ar
    23   24   23 1
    24   25   23 ar
    25   26   25 1
    26   27   19 ar
    27   28   27 1
    28   29   22 1
    29   30   29 2
    30   31   29 2
    31   32   33 1
    32   33   34 1
    33   34   35 2
    34   35   36 1
    35   37   35 1
    36   38   32 1
    37   39   37 ar
    38   40   39 1
    39   41   39 ar
    40   42   41 1
    41   43   41 ar
    42   44   43 1
    43   45   38 ar
    44   46   45 1
    45   47   32 2
    46   48   47 1
    47   49   33 1
    48   50   49 1
    49   51   50 ar
    50   52   51 1
    51   53   51 ar
    52   54   53 ar
    53   55   54 1
    54   56   54 ar
    55   57   56 1
    56   58   50 ar
    57   59   58 1
    58   60   53 1
    59   61   60 2
    60   62   60 2
    61    6    7 ar
    62   12   14 ar
    63   17   18 2
    64   25   27 ar
    65   37   38 ar
    66   43   45 ar
    67   48   49 2
    68   56   58 ar
@<TRIPOS>SUBSTRUCTURE
     1 RES1 1
     2 RES2 32

@<TRIPOS>CRYSIN
   7.6948    7.7883   23.7516  85.6400  84.7060  61.8970   2 1

