# MOL2 file generated by ConQuest
# Please check atom types

@<TRIPOS>MOLECULE
GUVCUV
   124   132     2
SMALL
NO_CHARGES
****
Generated from CSD

@<TRIPOS>ATOM
      1 C1        18.5219    6.4560    5.2655 C.2       1 RES1    0.0000
      2 C2        17.2466    5.7099    5.0750 C.2       1 RES1    0.0000
      3 C3        16.8495    4.3666    5.0254 C.2       1 RES1    0.0000
      4 N1        25.0467    6.7951    5.9880 N.pl3     1 RES1    0.0000
      5 N2        19.5938    5.6600    5.5593 N.am      1 RES1    0.0000
      6 H1        19.4033    4.8069    5.6684 H         1 RES1    0.0000
      7 N3        16.1425    6.5024    4.9619 N.pl3     1 RES1    0.0000
      8 H2        16.1425    7.3816    4.9619 H         1 RES1    0.0000
      9 O1        25.8235    5.8218    5.9979 O.2       1 RES1    0.0000
     10 O2        25.4235    7.9575    6.0297 O.2       1 RES1    0.0000
     11 O3        18.5674    7.6696    5.2020 O.2       1 RES1    0.0000
     12 C4        -6.4828    8.9379    9.0624 C.ar      2 RES2    0.0000
     13 C5        -6.6895   10.2789    9.2112 C.ar      2 RES2    0.0000
     14 H3        -7.5547   10.6168    9.3998 H         2 RES2    0.0000
     15 C6        -5.6111   11.1391    9.0802 C.ar      2 RES2    0.0000
     16 H4        -5.7306   12.0767    9.1636 H         2 RES2    0.0000
     17 C7        -4.3456   10.6144    8.8282 C.ar      2 RES2    0.0000
     18 C8        -4.1389    9.2544    8.6595 C.ar      2 RES2    0.0000
     19 H5        -3.2705    8.9106    8.4749 H         2 RES2    0.0000
     20 C9        -5.2302    8.4144    8.7647 C.ar      2 RES2    0.0000
     21 H6        -5.1236    7.4792    8.6356 H         2 RES2    0.0000
     22 C10       -1.9532   11.2712    8.5682 C.2       2 RES2    0.0000
     23 C11       -1.0460   12.4336    8.4570 C.2       2 RES2    0.0000
     24 C12       -1.1332   13.8126    8.5086 C.2       2 RES2    0.0000
     25 C13        0.1679   14.3088    8.2506 C.2       2 RES2    0.0000
     26 C14        0.9976   13.2248    8.0759 C.2       2 RES2    0.0000
     27 C15        2.4407   12.9726    7.8021 C.2       2 RES2    0.0000
     28 C16        4.6135   14.1684    7.5143 C.ar      2 RES2    0.0000
     29 C17        5.4303   13.0607    7.4468 C.ar      2 RES2    0.0000
     30 H7         5.0558   12.1897    7.5024 H         2 RES2    0.0000
     31 C18        6.7863   13.2153    7.2999 C.ar      2 RES2    0.0000
     32 H8         7.3545   12.4550    7.2285 H         2 RES2    0.0000
     33 C19        7.3126   14.4801    7.2582 C.ar      2 RES2    0.0000
     34 C20        6.5119   15.6152    7.2920 C.ar      2 RES2    0.0000
     35 H9         6.8928   16.4826    7.2185 H         2 RES2    0.0000
     36 C21        5.1624   15.4546    7.4329 C.ar      2 RES2    0.0000
     37 H10        4.5942   16.2161    7.4766 H         2 RES2    0.0000
     38 C22        0.6102   15.7377    8.2268 C.ar      2 RES2    0.0000
     39 C23        1.1332   16.3231    9.3720 C.ar      2 RES2    0.0000
     40 H11        1.1623   15.8329   10.1838 H         2 RES2    0.0000
     41 C24        1.6110   17.6153    9.3323 C.ar      2 RES2    0.0000
     42 H12        1.9694   18.0139   10.1163 H         2 RES2    0.0000
     43 C25        1.5691   18.3256    8.1534 C.ar      2 RES2    0.0000
     44 H13        1.9048   19.2132    8.1236 H         2 RES2    0.0000
     45 C26        1.0428   17.7569    7.0220 C.ar      2 RES2    0.0000
     46 H14        1.0073   18.2554    6.2143 H         2 RES2    0.0000
     47 C27        0.5650   16.4469    7.0558 C.ar      2 RES2    0.0000
     48 H15        0.2066   16.0495    6.2698 H         2 RES2    0.0000
     49 C28       -2.3503   14.6146    8.7746 C.ar      2 RES2    0.0000
     50 C29       -2.8572   15.5105    7.8219 C.ar      2 RES2    0.0000
     51 H16       -2.4052   15.6342    6.9962 H         2 RES2    0.0000
     52 C30       -4.0195   16.2161    8.0879 C.ar      2 RES2    0.0000
     53 H17       -4.3488   16.8229    7.4349 H         2 RES2    0.0000
     54 C31       -4.7039   16.0661    9.2668 C.ar      2 RES2    0.0000
     55 H18       -5.4949   16.5647    9.4315 H         2 RES2    0.0000
     56 C32       -4.2196   15.1714   10.2155 C.ar      2 RES2    0.0000
     57 H19       -4.6813   15.0453   11.0392 H         2 RES2    0.0000
     58 C33       -3.0445   14.4563    9.9396 C.ar      2 RES2    0.0000
     59 H20       -2.7184   13.8424   10.5867 H         2 RES2    0.0000
     60 C34       21.8634    4.9556    5.6149 C.ar      1 RES1    0.0000
     61 H21       21.5599    4.0680    5.4680 H         1 RES1    0.0000
     62 C35       23.2000    5.2102    5.7260 C.ar      1 RES1    0.0000
     63 H22       23.8360    4.5058    5.6565 H         1 RES1    0.0000
     64 C36       23.6100    6.5071    5.9384 C.ar      1 RES1    0.0000
     65 C37       22.7157    7.5613    6.0912 C.ar      1 RES1    0.0000
     66 H23       23.0192    8.4418    6.2738 H         1 RES1    0.0000
     67 C38       21.3727    7.2876    5.9681 C.ar      1 RES1    0.0000
     68 H24       20.7334    7.9861    6.0575 H         1 RES1    0.0000
     69 C39       20.9465    5.9872    5.7141 C.ar      1 RES1    0.0000
     70 C40       17.7212    3.1923    5.1147 C.ar      1 RES1    0.0000
     71 C41       18.7705    3.0150    4.2156 C.ar      1 RES1    0.0000
     72 H25       18.8770    3.6301    3.5011 H         1 RES1    0.0000
     73 C42       19.6551    1.9596    4.3446 C.ar      1 RES1    0.0000
     74 H26       20.3815    1.8692    3.7393 H         1 RES1    0.0000
     75 C43       19.4743    1.0244    5.3767 C.ar      1 RES1    0.0000
     76 H27       20.0813    0.3022    5.4878 H         1 RES1    0.0000
     77 C44       18.4025    1.1767    6.2202 C.ar      1 RES1    0.0000
     78 H28       18.2539    0.5247    6.8950 H         1 RES1    0.0000
     79 C45       17.5372    2.2392    6.1210 C.ar      1 RES1    0.0000
     80 H29       16.8173    2.3249    6.7343 H         1 RES1    0.0000
     81 N4        -7.6031    8.0015    9.2251 N.pl3     2 RES2    0.0000
     82 N5        -3.2769   11.5389    8.7607 N.am      2 RES2    0.0000
     83 H30       -3.4900   12.3872    8.8540 H         2 RES2    0.0000
     84 N6         0.2389   12.1017    8.1970 N.pl3     2 RES2    0.0000
     85 H31        0.5392   11.2783    8.1156 H         2 RES2    0.0000
     86 N7         3.2317   14.1006    7.7366 N.am      2 RES2    0.0000
     87 H32        2.8185   14.8704    7.8477 H         2 RES2    0.0000
     88 N8         8.7783   14.6336    7.1749 N.pl3     2 RES2    0.0000
     89 O4        -8.7150    8.4810    9.4712 O.2       2 RES2    0.0000
     90 O5        -7.4046    6.8022    9.0564 O.2       2 RES2    0.0000
     91 O6        -1.4990   10.1444    8.4709 O.2       2 RES2    0.0000
     92 O7         2.8563   11.8435    7.6770 O.2       2 RES2    0.0000
     93 O8         9.4511   13.5996    7.1292 O.2       2 RES2    0.0000
     94 O9         9.2587   15.7711    7.1630 O.2       2 RES2    0.0000
     95 C3F       15.4355    4.3666    4.8984 C.2       1 RES1    0.0000
     96 C2F       15.0384    5.7099    4.8487 C.2       1 RES1    0.0000
     97 C1F       13.7631    6.4560    4.6582 C.2       1 RES1    0.0000
     98 N2F       12.6912    5.6600    4.3645 N.am      1 RES1    0.0000
     99 H1F       12.8817    4.8069    4.2553 H         1 RES1    0.0000
    100 C39F      11.3385    5.9872    4.2097 C.ar      1 RES1    0.0000
    101 C34F      10.4216    4.9556    4.3089 C.ar      1 RES1    0.0000
    102 H21F      10.7251    4.0680    4.4558 H         1 RES1    0.0000
    103 C35F       9.0850    5.2102    4.1977 C.ar      1 RES1    0.0000
    104 H22F       8.4490    4.5058    4.2672 H         1 RES1    0.0000
    105 C36F       8.6750    6.5071    3.9854 C.ar      1 RES1    0.0000
    106 N1F        7.2383    6.7951    3.9358 N.pl3     1 RES1    0.0000
    107 O1F        6.4615    5.8218    3.9258 O.2       1 RES1    0.0000
    108 O2F        6.8615    7.9575    3.8941 O.2       1 RES1    0.0000
    109 C37F       9.5693    7.5613    3.8326 C.ar      1 RES1    0.0000
    110 H23F       9.2658    8.4418    3.6500 H         1 RES1    0.0000
    111 C38F      10.9123    7.2876    3.9556 C.ar      1 RES1    0.0000
    112 H24F      11.5516    7.9861    3.8663 H         1 RES1    0.0000
    113 O3F       13.7176    7.6696    4.7217 O.2       1 RES1    0.0000
    114 C40F      14.5638    3.1923    4.8090 C.ar      1 RES1    0.0000
    115 C41F      13.5145    3.0150    5.7081 C.ar      1 RES1    0.0000
    116 H25F      13.4080    3.6301    6.4227 H         1 RES1    0.0000
    117 C42F      12.6299    1.9596    5.5791 C.ar      1 RES1    0.0000
    118 H26F      11.9035    1.8692    6.1845 H         1 RES1    0.0000
    119 C43F      12.8107    1.0244    4.5471 C.ar      1 RES1    0.0000
    120 H27F      12.2037    0.3022    4.4359 H         1 RES1    0.0000
    121 C44F      13.8826    1.1767    3.7035 C.ar      1 RES1    0.0000
    122 H28F      14.0311    0.5247    3.0287 H         1 RES1    0.0000
    123 C45F      14.7478    2.2392    3.8028 C.ar      1 RES1    0.0000
    124 H29F      15.4677    2.3249    3.1895 H         1 RES1    0.0000
@<TRIPOS>BOND
     1    1    2 1
     2    2    3 2
     3    3   70 1
     4    4    9 2
     5    5    1 1
     6    6    5 1
     7    7    2 1
     8    8    7 1
     9   10    4 2
    10   11    1 2
    11   12   13 ar
    12   13   14 1
    13   15   13 ar
    14   16   15 1
    15   17   15 ar
    16   18   17 ar
    17   19   18 1
    18   20   12 ar
    19   21   20 1
    20   22   23 1
    21   23   24 2
    22   24   25 1
    23   25   26 2
    24   26   27 1
    25   27   86 1
    26   28   29 ar
    27   29   30 1
    28   31   29 ar
    29   32   31 1
    30   33   31 ar
    31   34   33 ar
    32   35   34 1
    33   36   28 ar
    34   37   36 1
    35   38   25 1
    36   39   38 ar
    37   40   39 1
    38   41   39 ar
    39   42   41 1
    40   43   41 ar
    41   44   43 1
    42   45   43 ar
    43   46   45 1
    44   47   38 ar
    45   48   47 1
    46   49   24 1
    47   50   49 ar
    48   51   50 1
    49   52   50 ar
    50   53   52 1
    51   54   52 ar
    52   55   54 1
    53   56   54 ar
    54   57   56 1
    55   58   49 ar
    56   59   58 1
    57   60   61 1
    58   62   60 ar
    59   63   62 1
    60   64    4 1
    61   65   64 ar
    62   66   65 1
    63   67   65 ar
    64   68   67 1
    65   69    5 1
    66   70   71 ar
    67   71   72 1
    68   73   71 ar
    69   74   73 1
    70   75   73 ar
    71   76   75 1
    72   77   75 ar
    73   78   77 1
    74   79   70 ar
    75   80   79 1
    76   81   12 1
    77   82   17 1
    78   83   82 1
    79   84   23 1
    80   85   84 1
    81   86   28 1
    82   87   86 1
    83   88   33 1
    84   89   81 2
    85   90   81 2
    86   91   22 2
    87   92   27 2
    88   93   88 2
    89   94   88 2
    90   95    3 1
    91   96    7 1
    92   97   96 1
    93   98   97 1
    94   99   98 1
    95  100   98 1
    96  101  100 ar
    97  102  101 1
    98  103  101 ar
    99  104  103 1
   100  105  103 ar
   101  106  105 1
   102  107  106 2
   103  108  106 2
   104  109  105 ar
   105  110  109 1
   106  111  100 ar
   107  112  111 1
   108  113   97 2
   109  114   95 1
   110  115  114 ar
   111  116  115 1
   112  117  115 ar
   113  118  117 1
   114  119  117 ar
   115  120  119 1
   116  121  119 ar
   117  122  121 1
   118  123  114 ar
   119  124  123 1
   120   18   20 ar
   121   22   82 1
   122   26   84 1
   123   34   36 ar
   124   45   47 ar
   125   56   58 ar
   126   60   69 ar
   127   62   64 ar
   128   67   69 ar
   129   77   79 ar
   130   95   96 2
   131  109  111 ar
   132  121  123 ar
@<TRIPOS>SUBSTRUCTURE
     1 RES1 1
     2 RES2 12

@<TRIPOS>CRYSIN
  32.2850   11.8982   19.8475  90.0000  90.0000  90.0000  60 1

