# MOL2 file generated by ConQuest
# Please check atom types

@<TRIPOS>MOLECULE
GUVYAY
    30    32     1
SMALL
NO_CHARGES
****
Generated from CSD

@<TRIPOS>ATOM
      1 O1         4.1174    6.8371   17.4154 O.2       1 RES1    0.0000
      2 O2         3.0023    8.3013   16.2726 O.2       1 RES1    0.0000
      3 N1         2.4837    3.1823   12.7143 N.3       1 RES1    0.0000
      4 C1         2.5993    4.2582   13.5284 C.ar      1 RES1    0.0000
      5 C2         3.1594    6.1588   15.4284 C.ar      1 RES1    0.0000
      6 C3         3.8730    2.5117   14.4857 C.3       1 RES1    0.0000
      7 C4         3.4224    3.9389   14.6357 C.ar      1 RES1    0.0000
      8 N2         3.4500    7.1582   16.4221 N.pl3     1 RES1    0.0000
      9 C5         3.7069    4.8788   15.5795 C.ar      1 RES1    0.0000
     10 C6         2.0623    5.5399   13.3887 C.ar      1 RES1    0.0000
     11 C7         2.3502    6.4807   14.3556 C.ar      1 RES1    0.0000
     12 C8         2.9635    1.9746   13.3960 C.3       1 RES1    0.0000
     13 C9         1.5908    3.0575   11.5819 C.3       1 RES1    0.0000
     14 C10        2.5343    0.7403   11.2829 C.3       1 RES1    0.0000
     15 C11        3.4989    0.9873   12.4241 C.3       1 RES1    0.0000
     16 C12        2.0828    2.0263   10.6391 C.3       1 RES1    0.0000
     17 H1         3.7586    1.9961   15.3051 H         1 RES1    0.0000
     18 H2         4.8168    2.4670   14.2275 H         1 RES1    0.0000
     19 H3         4.2395    4.6628   16.3302 H         1 RES1    0.0000
     20 H4         1.5211    5.7439   12.6489 H         1 RES1    0.0000
     21 H5         2.0001    7.3622   14.3185 H         1 RES1    0.0000
     22 H6         2.1538    1.4952   13.8483 H         1 RES1    0.0000
     23 H7         0.7249    2.7149   11.9089 H         1 RES1    0.0000
     24 H8         1.4547    3.9182   11.1582 H         1 RES1    0.0000
     25 H9         1.7356    0.3202   11.6684 H         1 RES1    0.0000
     26 H10        2.9264    0.1437   10.6278 H         1 RES1    0.0000
     27 H11        3.7607    0.1283   12.8632 H         1 RES1    0.0000
     28 H12        4.2899    1.4263   12.0492 H         1 RES1    0.0000
     29 H13        2.8629    2.4256   10.1469 H         1 RES1    0.0000
     30 H14        1.3575    1.8248   10.0127 H         1 RES1    0.0000
@<TRIPOS>BOND
     1    1    8 2
     2    2    8 2
     3    3    4 1
     4    4    7 ar
     5    5    8 1
     6    6    7 1
     7    7    9 ar
     8    9    5 ar
     9   10    4 ar
    10   11    5 ar
    11   12    3 1
    12   13    3 1
    13   14   15 1
    14   15   12 1
    15   16   13 1
    16   17    6 1
    17   18    6 1
    18   19    9 1
    19   20   10 1
    20   21   11 1
    21   22   12 1
    22   23   13 1
    23   24   13 1
    24   25   14 1
    25   26   14 1
    26   27   15 1
    27   28   15 1
    28   29   16 1
    29   30   16 1
    30    6   12 1
    31   10   11 ar
    32   14   16 1
@<TRIPOS>SUBSTRUCTURE
     1 RES1 1

@<TRIPOS>CRYSIN
   8.3327    8.6077   15.6537  90.0000  99.9960  90.0000 231 1

