# MOL2 file generated by ConQuest
# Please check atom types

@<TRIPOS>MOLECULE
GUWQAR
    44    47     1
SMALL
NO_CHARGES
****
Generated from CSD

@<TRIPOS>ATOM
      1 C1        -0.4081    3.5369    2.5010 C.ar      1 RES1    0.0000
      2 C2        -1.7076    3.8150    2.8681 C.ar      1 RES1    0.0000
      3 H1        -2.2736    3.1369    3.1604 H         1 RES1    0.0000
      4 C3        -2.1524    5.1161    2.7933 C.ar      1 RES1    0.0000
      5 H2        -3.0298    5.3228    3.0217 H         1 RES1    0.0000
      6 C4        -1.2998    6.1027    2.3829 C.ar      1 RES1    0.0000
      7 H3        -1.5990    6.9821    2.3425 H         1 RES1    0.0000
      8 C5         0.0063    5.8054    2.0266 C.ar      1 RES1    0.0000
      9 H4         0.5727    6.4907    1.7549 H         1 RES1    0.0000
     10 C6         0.4800    4.5091    2.0695 C.ar      1 RES1    0.0000
     11 C7         1.9006    4.1573    1.6630 C.3       1 RES1    0.0000
     12 H5         1.8435    3.5356    0.9075 H         1 RES1    0.0000
     13 C8         3.1948    6.0977    2.1696 C.ar      1 RES1    0.0000
     14 C9         3.7103    7.3191    1.7539 C.ar      1 RES1    0.0000
     15 H6         3.6320    7.5829    0.8652 H         1 RES1    0.0000
     16 C10        4.3374    8.1358    2.6673 C.ar      1 RES1    0.0000
     17 H7         4.6795    8.9565    2.3947 H         1 RES1    0.0000
     18 C11        4.4604    7.7446    3.9833 C.ar      1 RES1    0.0000
     19 H8         4.8919    8.2934    4.5965 H         1 RES1    0.0000
     20 C12        3.9367    6.5292    4.3819 C.ar      1 RES1    0.0000
     21 H9         4.0109    6.2754    5.2736 H         1 RES1    0.0000
     22 C13        3.3060    5.6814    3.4892 C.ar      1 RES1    0.0000
     23 C14        2.7498    4.3427    3.8942 C.3       1 RES1    0.0000
     24 H10        3.3563    3.9176    4.5207 H         1 RES1    0.0000
     25 H11        1.8979    4.4696    4.3405 H         1 RES1    0.0000
     26 C15        3.6341    2.6006    2.3751 C.ar      1 RES1    0.0000
     27 C16        4.3230    2.6896    1.1781 C.ar      1 RES1    0.0000
     28 H12        4.1434    3.3865    0.5896 H         1 RES1    0.0000
     29 C17        5.2789    1.7410    0.8573 C.ar      1 RES1    0.0000
     30 H13        5.7086    1.7972    0.0344 H         1 RES1    0.0000
     31 C18        5.6140    0.7172    1.7116 C.ar      1 RES1    0.0000
     32 C19        6.6588   -0.3106    1.3356 C.3       1 RES1    0.0000
     33 H14        6.2503   -1.0073    0.8169 H         1 RES1    0.0000
     34 H15        7.0389   -0.6868    2.1329 H         1 RES1    0.0000
     35 H16        7.3497    0.1093    0.8189 H         1 RES1    0.0000
     36 C20        4.9445    0.6671    2.9222 C.ar      1 RES1    0.0000
     37 H17        5.1612   -0.0021    3.5305 H         1 RES1    0.0000
     38 C21        3.9705    1.5775    3.2529 C.ar      1 RES1    0.0000
     39 H18        3.5322    1.5084    4.0709 H         1 RES1    0.0000
     40 N1        -0.0031    2.1221    2.5423 N.pl3     1 RES1    0.0000
     41 N2         2.5647    3.4746    2.7310 N.3       1 RES1    0.0000
     42 O1         0.5183    1.6423    1.5525 O.2       1 RES1    0.0000
     43 O2        -0.2481    1.5015    3.5512 O.2       1 RES1    0.0000
     44 O3         2.5862    5.3372    1.1992 O.3       1 RES1    0.0000
@<TRIPOS>BOND
     1    1    2 ar
     2    2    3 1
     3    4    2 ar
     4    5    4 1
     5    6    4 ar
     6    7    6 1
     7    8    6 ar
     8    9    8 1
     9   10    1 ar
    10   11   10 1
    11   12   11 1
    12   13   14 ar
    13   14   15 1
    14   16   14 ar
    15   17   16 1
    16   18   16 ar
    17   19   18 1
    18   20   18 ar
    19   21   20 1
    20   22   13 ar
    21   23   22 1
    22   24   23 1
    23   25   23 1
    24   26   27 ar
    25   27   28 1
    26   29   27 ar
    27   30   29 1
    28   31   29 ar
    29   32   31 1
    30   33   32 1
    31   34   32 1
    32   35   32 1
    33   36   31 ar
    34   37   36 1
    35   38   26 ar
    36   39   38 1
    37   40    1 1
    38   41   11 1
    39   42   40 2
    40   43   40 2
    41   44   11 1
    42    8   10 ar
    43   13   44 1
    44   20   22 ar
    45   23   41 1
    46   26   41 1
    47   36   38 ar
@<TRIPOS>SUBSTRUCTURE
     1 RES1 1

@<TRIPOS>CRYSIN
   9.0481   10.2521   10.7292  66.6750  81.2790  73.5250   2 1

