# MOL2 file generated by ConQuest
# Please check atom types

@<TRIPOS>MOLECULE
GUWXON
    42    42     2
SMALL
NO_CHARGES
****
Generated from CSD

@<TRIPOS>ATOM
      1 C1         3.5281    5.6073    5.5863 C.ar      1 RES1    0.0000
      2 H1         3.9453    6.2782    5.0952 H         1 RES1    0.0000
      3 C2         3.4639    4.3221    5.0929 C.ar      1 RES1    0.0000
      4 N1         4.0175    4.0528    3.7709 N.pl3     1 RES1    0.0000
      5 O1         4.4457    5.0115    3.1071 O.2       1 RES1    0.0000
      6 O2         4.0107    2.8831    3.3291 O.2       1 RES1    0.0000
      7 C3         2.8718    3.2657    5.8240 C.ar      1 RES1    0.0000
      8 O3         2.8023    1.9795    5.4282 O.3       1 RES1    0.0000
      9 H2         3.2241    1.8086    4.7431 H         1 RES1    0.0000
     10 C4         2.2833    3.5904    7.0608 C.ar      1 RES1    0.0000
     11 H3         1.8684    2.9232    7.5586 H         1 RES1    0.0000
     12 C5         2.3113    4.8639    7.5418 C.ar      1 RES1    0.0000
     13 H4         1.8967    5.0581    8.3514 H         1 RES1    0.0000
     14 C6         2.9600    5.8930    6.8298 C.ar      1 RES1    0.0000
     15 C7         2.9192    7.2677    7.3557 C.2       1 RES1    0.0000
     16 O4         2.2607    7.6114    8.3334 O.2       1 RES1    0.0000
     17 O5         3.6972    8.1184    6.6627 O.3       1 RES1    0.0000
     18 C8         3.6651    9.5212    7.0787 C.3       1 RES1    0.0000
     19 H5         2.7751    9.8655    6.9744 H         1 RES1    0.0000
     20 H6         4.2704   10.0298    6.5360 H         1 RES1    0.0000
     21 H7         3.9271    9.5874    7.9993 H         1 RES1    0.0000
     22 C9         4.2176    0.9838    9.8203 C.ar      2 RES2    0.0000
     23 H8         4.3174    0.2487    9.2596 H         2 RES2    0.0000
     24 C10        4.6410    2.2466    9.4054 C.ar      2 RES2    0.0000
     25 N2         5.2730    2.3464    8.0856 N.pl3     2 RES2    0.0000
     26 O6         5.4932    1.3133    7.4600 O.2       2 RES2    0.0000
     27 O7         5.5890    3.4702    7.6775 O.2       2 RES2    0.0000
     28 C11        4.4868    3.3825   10.2015 C.ar      2 RES2    0.0000
     29 O8         4.8453    4.6189    9.8696 O.3       2 RES2    0.0000
     30 H9         5.2313    4.6573    9.1385 H         2 RES2    0.0000
     31 C12        3.9238    3.2020   11.4832 C.ar      2 RES2    0.0000
     32 H10        3.8219    3.9305   12.0505 H         2 RES2    0.0000
     33 C13        3.5242    1.9566   11.8947 C.ar      2 RES2    0.0000
     34 H11        3.1612    1.8577   12.7446 H         2 RES2    0.0000
     35 C14        3.6474    0.8319   11.0750 C.ar      2 RES2    0.0000
     36 C15        3.2202   -0.4850   11.5886 C.2       2 RES2    0.0000
     37 O9         2.9189   -0.6988   12.7513 O.2       2 RES2    0.0000
     38 O10        3.2597   -1.4366   10.6601 O.3       2 RES2    0.0000
     39 C16        2.9416   -2.7850   11.0851 C.3       2 RES2    0.0000
     40 H12        3.5682   -3.0645   11.7567 H         2 RES2    0.0000
     41 H13        2.9932   -3.3781   10.3316 H         2 RES2    0.0000
     42 H14        2.0534   -2.8044   11.4484 H         2 RES2    0.0000
@<TRIPOS>BOND
     1    1    2 1
     2    3    1 ar
     3    4    3 1
     4    5    4 2
     5    6    4 2
     6    7    3 ar
     7    8    7 1
     8    9    8 1
     9   10    7 ar
    10   11   10 1
    11   12   10 ar
    12   13   12 1
    13   14    1 ar
    14   15   14 1
    15   16   15 2
    16   17   15 1
    17   18   17 1
    18   19   18 1
    19   20   18 1
    20   21   18 1
    21   22   23 1
    22   24   22 ar
    23   25   24 1
    24   26   25 2
    25   27   25 2
    26   28   24 ar
    27   29   28 1
    28   30   29 1
    29   31   28 ar
    30   32   31 1
    31   33   31 ar
    32   34   33 1
    33   35   22 ar
    34   36   35 1
    35   37   36 2
    36   38   36 1
    37   39   38 1
    38   40   39 1
    39   41   39 1
    40   42   39 1
    41   12   14 ar
    42   33   35 ar
@<TRIPOS>SUBSTRUCTURE
     1 RES1 1
     2 RES2 22

@<TRIPOS>CRYSIN
   7.2831   10.5220   11.4100  83.3800  80.8300  82.0200   2 1

