# MOL2 file generated by ConQuest
# Please check atom types

@<TRIPOS>MOLECULE
GUXMUJ
    46    47     1
SMALL
NO_CHARGES
****
Generated from CSD

@<TRIPOS>ATOM
      1 C1        -1.9139    1.9520   10.5286 C.3       1 RES1    0.0000
      2 H1        -1.9729    1.9320   11.5061 H         1 RES1    0.0000
      3 H2        -2.3301    1.1452   10.1590 H         1 RES1    0.0000
      4 H3        -2.3800    2.7441   10.1896 H         1 RES1    0.0000
      5 C2        -0.4690    2.0043   10.1148 C.2       1 RES1    0.0000
      6 C3         1.2262    1.8706    8.4096 C.3       1 RES1    0.0000
      7 H4         1.6295    2.6585    8.8552 H         1 RES1    0.0000
      8 H5         1.2741    2.0176    7.4319 H         1 RES1    0.0000
      9 C4         2.0368    0.6223    8.7691 C.2       1 RES1    0.0000
     10 C5         4.1877   -0.4919    8.7927 C.3       1 RES1    0.0000
     11 H6         3.7269   -1.0770    9.4447 H         1 RES1    0.0000
     12 H7         5.0550   -0.2221    9.1864 H         1 RES1    0.0000
     13 C6         4.4433   -1.2774    7.5080 C.2       1 RES1    0.0000
     14 C7         4.0633    1.9138    8.1943 C.ar      1 RES1    0.0000
     15 C8         4.9355    2.4907    9.1230 C.ar      1 RES1    0.0000
     16 H8         5.0728    2.0827    9.9706 H         1 RES1    0.0000
     17 C9         5.5975    3.6644    8.7927 C.ar      1 RES1    0.0000
     18 H9         6.1936    4.0607    9.4171 H         1 RES1    0.0000
     19 C10        5.3950    4.2647    7.5534 C.ar      1 RES1    0.0000
     20 H10        5.8414    5.0743    7.3346 H         1 RES1    0.0000
     21 C11        4.5402    3.6743    6.6468 C.ar      1 RES1    0.0000
     22 H11        4.3991    4.0845    5.8012 H         1 RES1    0.0000
     23 C12        3.8824    2.4916    6.9504 C.ar      1 RES1    0.0000
     24 H12        3.3129    2.0811    6.3102 H         1 RES1    0.0000
     25 C13       -1.1017    1.2223    7.8580 C.ar      1 RES1    0.0000
     26 C14       -1.0419   -0.1131    7.5335 C.ar      1 RES1    0.0000
     27 H13       -0.4012   -0.6725    7.9579 H         1 RES1    0.0000
     28 C15       -1.9086   -0.6519    6.5917 C.ar      1 RES1    0.0000
     29 C16       -2.8690    0.1450    5.9328 C.ar      1 RES1    0.0000
     30 C17       -2.9180    1.4969    6.2954 C.ar      1 RES1    0.0000
     31 H14       -3.5688    2.0589    5.8911 H         1 RES1    0.0000
     32 C18       -2.0506    2.0370    7.2197 C.ar      1 RES1    0.0000
     33 H15       -2.0945    2.9630    7.4256 H         1 RES1    0.0000
     34 N1        -0.1725    1.7612    8.8076 N.am      1 RES1    0.0000
     35 N2         3.3772    0.6981    8.5600 N.am      1 RES1    0.0000
     36 N3         5.4469   -2.1461    7.5813 N.am      1 RES1    0.0000
     37 H16        5.6507   -2.6426    6.8838 H         1 RES1    0.0000
     38 H17        5.9082   -2.2239    8.3272 H         1 RES1    0.0000
     39 N4        -1.7804   -2.0868    6.3401 N.pl3     1 RES1    0.0000
     40 O1         0.4185    2.2905   10.9037 O.2       1 RES1    0.0000
     41 O2         1.5021   -0.3962    9.1948 O.2       1 RES1    0.0000
     42 O3         3.7672   -1.1302    6.4870 O.2       1 RES1    0.0000
     43 O4        -2.4733   -2.6223    5.4911 O.2       1 RES1    0.0000
     44 O5        -0.9743   -2.7148    7.0072 O.2       1 RES1    0.0000
     45 O6        -3.6792   -0.3705    5.0103 O.3       1 RES1    0.0000
     46 H18       -4.2165    0.2189    4.7483 H         1 RES1    0.0000
@<TRIPOS>BOND
     1    1    2 1
     2    3    1 1
     3    4    1 1
     4    5    1 1
     5    6    7 1
     6    8    6 1
     7    9    6 1
     8   10   11 1
     9   12   10 1
    10   13   10 1
    11   14   15 ar
    12   15   16 1
    13   17   15 ar
    14   18   17 1
    15   19   17 ar
    16   20   19 1
    17   21   19 ar
    18   22   21 1
    19   23   14 ar
    20   24   23 1
    21   25   26 ar
    22   26   27 1
    23   28   26 ar
    24   29   28 ar
    25   30   29 ar
    26   31   30 1
    27   32   25 ar
    28   33   32 1
    29   34    5 1
    30   35    9 1
    31   36   13 1
    32   37   36 1
    33   38   36 1
    34   39   28 1
    35   40    5 2
    36   41    9 2
    37   42   13 2
    38   43   39 2
    39   44   39 2
    40   45   29 1
    41   46   45 1
    42    6   34 1
    43   10   35 1
    44   14   35 1
    45   21   23 ar
    46   25   34 1
    47   30   32 ar
@<TRIPOS>SUBSTRUCTURE
     1 RES1 1

@<TRIPOS>CRYSIN
  10.3748   15.8620   10.7396  90.0000  99.8200  90.0000  14 1

