# MOL2 file generated by ConQuest
# Please check atom types

@<TRIPOS>MOLECULE
GUXNAP
   112   116     2
SMALL
NO_CHARGES
****
Generated from CSD

@<TRIPOS>ATOM
      1 O1         3.6505    2.4213   13.6005 O.3       1 RES1    0.0000
      2 C1         4.7379    3.1580   14.1787 C.3       1 RES1    0.0000
      3 H1         4.8061    2.9825   15.1505 H         1 RES1    0.0000
      4 H2         4.6219    4.1303   14.0345 H         1 RES1    0.0000
      5 O2         5.4661    1.4526   12.7675 O.3       1 RES1    0.0000
      6 C2         5.9430    2.6557   13.4634 C.3       1 RES1    0.0000
      7 H3         6.6496    2.4052   14.1259 H         1 RES1    0.0000
      8 O3         5.5251    3.9594   11.5021 O.3       1 RES1    0.0000
      9 C3         6.5430    3.5356   12.3826 C.3       1 RES1    0.0000
     10 H4         7.2588    3.0460   11.8853 H         1 RES1    0.0000
     11 C4         7.0606    4.7861   12.9362 C.1       1 RES1    0.0000
     12 C5         7.6317    5.7295   13.4968 C.1       1 RES1    0.0000
     13 C6         7.9221    7.1786   13.8588 C.3       1 RES1    0.0000
     14 H5         8.8102    7.2467   14.2911 H         1 RES1    0.0000
     15 H6         7.9318    7.7351   13.0399 H         1 RES1    0.0000
     16 O4         6.9042    7.6462   14.7568 O.3       1 RES1    0.0000
     17 C7         7.1194    8.8563   15.2384 C.3       1 RES1    0.0000
     18 H7         7.0790    9.5110   14.4967 H         1 RES1    0.0000
     19 H8         8.0308    8.8921   15.6250 H         1 RES1    0.0000
     20 C8         6.0911    9.2639   16.3315 C.ar      1 RES1    0.0000
     21 C9         4.8659    8.6127   16.4105 C.ar      1 RES1    0.0000
     22 H9         4.6936    7.8552   15.8640 H         1 RES1    0.0000
     23 C10        3.8938    9.0688   17.2928 C.ar      1 RES1    0.0000
     24 H10        3.0562    8.6242   17.3490 H         1 RES1    0.0000
     25 C11        4.1460   10.1761   18.0941 C.ar      1 RES1    0.0000
     26 H11        3.4818   10.4879   18.6969 H         1 RES1    0.0000
     27 C12        5.3714   10.8273   18.0133 C.ar      1 RES1    0.0000
     28 H12        5.5446   11.5836   18.5616 H         1 RES1    0.0000
     29 C13        6.3446   10.3712   17.1311 C.ar      1 RES1    0.0000
     30 H13        7.1821   10.8158   17.0766 H         1 RES1    0.0000
     31 C14        4.2123    1.1027   13.1822 C.3       1 RES1    0.0000
     32 C15        4.3425    0.3349   14.4018 C.3       1 RES1    0.0000
     33 H14        4.8609    0.8475   15.0573 H         1 RES1    0.0000
     34 H15        4.8024   -0.5081   14.2103 H         1 RES1    0.0000
     35 H16        3.4524    0.1466   14.7656 H         1 RES1    0.0000
     36 C16        3.3669    0.6339   12.0645 C.3       1 RES1    0.0000
     37 H17        3.3694    1.3048   11.3492 H         1 RES1    0.0000
     38 H18        2.4500    0.4988   12.3826 H         1 RES1    0.0000
     39 H19        3.7209   -0.2125   11.7201 H         1 RES1    0.0000
     40 O5         6.1877    2.5426    9.8449 O.2       1 RES1    0.0000
     41 C17        5.4173    3.3924   10.2895 C.2       1 RES1    0.0000
     42 C18        4.2792    4.0413    9.4776 C.ar      1 RES1    0.0000
     43 C19        4.1538    3.4328    8.1859 C.ar      1 RES1    0.0000
     44 H20        4.7402    2.7504    7.8819 H         1 RES1    0.0000
     45 N1         2.9675    3.4513    6.0191 N.pl3     1 RES1    0.0000
     46 O6         3.7822    2.6823    5.6149 O.2       1 RES1    0.0000
     47 O7         1.9131    3.8901    5.4286 O.2       1 RES1    0.0000
     48 C20        3.1135    3.9155    7.4215 C.ar      1 RES1    0.0000
     49 C21        2.2192    4.9455    7.8450 C.ar      1 RES1    0.0000
     50 H21        1.5164    5.2572    7.2862 H         1 RES1    0.0000
     51 N2         1.5604    6.4823    9.7131 N.pl3     1 RES1    0.0000
     52 O8         0.4616    6.5701    9.1754 O.2       1 RES1    0.0000
     53 O9         1.9323    7.1855   10.5567 O.2       1 RES1    0.0000
     54 C22        2.4287    5.4651    9.1086 C.ar      1 RES1    0.0000
     55 C23        3.4178    4.9512    9.9574 C.ar      1 RES1    0.0000
     56 H22        3.4771    5.2434   10.8607 H         1 RES1    0.0000
     57 O10       10.5106   -3.3509    3.9366 O.3       2 RES2    0.0000
     58 C24        9.4354   -2.6165    3.3742 C.3       2 RES2    0.0000
     59 H23        9.3616   -2.7862    2.4024 H         2 RES2    0.0000
     60 H24        9.5551   -1.6443    3.5236 H         2 RES2    0.0000
     61 O11        8.6308   -4.3427    4.7590 O.3       2 RES2    0.0000
     62 C25        8.1482   -3.1580    4.1492 C.3       2 RES2    0.0000
     63 H25        7.4333   -3.3901    3.4902 H         2 RES2    0.0000
     64 O12        8.6677   -1.7736    6.0771 O.3       2 RES2    0.0000
     65 C26        7.5811   -2.1523    5.1949 C.3       2 RES2    0.0000
     66 H26        6.8655   -2.6026    5.7291 H         2 RES2    0.0000
     67 C27        7.0265   -0.9653    4.5587 C.1       2 RES2    0.0000
     68 C28        6.6422    0.0612    4.0385 C.1       2 RES2    0.0000
     69 C29        5.7864    1.0404    3.3601 C.3       2 RES2    0.0000
     70 H27        4.9625    0.6270    2.9999 H         2 RES2    0.0000
     71 H28        5.5493    1.8001    3.9506 H         2 RES2    0.0000
     72 O13        6.6779    1.4237    2.3356 O.3       2 RES2    0.0000
     73 C30        7.6438    2.1893    2.6080 C.3       2 RES2    0.0000
     74 H29        8.1541    1.8186    3.3724 H         2 RES2    0.0000
     75 H30        7.2968    3.0772    2.8733 H         2 RES2    0.0000
     76 C31        8.5118    2.3313    1.4762 C.ar      2 RES2    0.0000
     77 C32        9.3925    1.3521    1.0316 C.ar      2 RES2    0.0000
     78 H31        9.3906    0.4919    1.4358 H         2 RES2    0.0000
     79 C33       10.2757    1.6304   -0.0053 C.ar      2 RES2    0.0000
     80 H32       10.8785    0.9618   -0.3075 H         2 RES2    0.0000
     81 C34       10.2782    2.8878   -0.5975 C.ar      2 RES2    0.0000
     82 H33       10.8820    3.0784   -1.3057 H         2 RES2    0.0000
     83 C35        9.3974    3.8670   -0.1529 C.ar      2 RES2    0.0000
     84 H34        9.3993    4.7272   -0.5571 H         2 RES2    0.0000
     85 C36        8.5143    3.5887    0.8840 C.ar      2 RES2    0.0000
     86 H35        7.9112    4.2573    1.1880 H         2 RES2    0.0000
     87 C37        9.9489   -4.5563    4.3390 C.3       2 RES2    0.0000
     88 C38       10.0272   -5.6798    3.1633 C.3       2 RES2    0.0000
     89 H36        9.4987   -5.3842    2.3936 H         2 RES2    0.0000
     90 H37        9.6700   -6.5285    3.4990 H         2 RES2    0.0000
     91 H38       10.9608   -5.8022    2.8909 H         2 RES2    0.0000
     92 C39       10.8276   -5.2122    5.4883 C.3       2 RES2    0.0000
     93 H39       10.8736   -4.6014    6.2528 H         2 RES2    0.0000
     94 H40       11.7314   -5.3819    5.1527 H         2 RES2    0.0000
     95 H41       10.4193   -6.0574    5.7695 H         2 RES2    0.0000
     96 O14        7.9714   -3.1811    7.6904 O.2       2 RES2    0.0000
     97 C40        8.7120   -2.3682    7.3213 C.2       2 RES2    0.0000
     98 C41        9.8723   -1.8556    8.1262 C.ar      2 RES2    0.0000
     99 C42       10.0927   -2.2920    9.3915 C.ar      2 RES2    0.0000
    100 H42        9.5617   -2.9929    9.7518 H         2 RES2    0.0000
    101 N3        11.2714   -2.2516   11.5267 N.pl3     2 RES2    0.0000
    102 O15       10.4559   -3.0784   11.9749 O.2       2 RES2    0.0000
    103 O16       12.1622   -1.8867   12.1858 O.2       2 RES2    0.0000
    104 C43       11.0931   -1.7158   10.1630 C.ar      2 RES2    0.0000
    105 C44       11.9260   -0.8452    9.6868 C.ar      2 RES2    0.0000
    106 H43       12.6710   -0.5554   10.1999 H         2 RES2    0.0000
    107 N4        12.6198    0.6605    7.9223 N.pl3     2 RES2    0.0000
    108 O17       13.7500    0.7436    8.4126 O.2       2 RES2    0.0000
    109 O18       12.1903    1.3902    6.9927 O.2       2 RES2    0.0000
    110 C45       11.7121   -0.3626    8.4531 C.ar      2 RES2    0.0000
    111 C46       10.7032   -0.7979    7.5796 C.ar      2 RES2    0.0000
    112 H44       10.5765   -0.4342    6.7115 H         2 RES2    0.0000
@<TRIPOS>BOND
     1    1    2 1
     2    2    3 1
     3    4    2 1
     4    5    6 1
     5    6    2 1
     6    7    6 1
     7    8    9 1
     8    9    6 1
     9   10    9 1
    10   11    9 1
    11   12   11 3
    12   13   12 1
    13   14   13 1
    14   15   13 1
    15   16   13 1
    16   17   16 1
    17   18   17 1
    18   19   17 1
    19   20   17 1
    20   21   20 ar
    21   22   21 1
    22   23   21 ar
    23   24   23 1
    24   25   23 ar
    25   26   25 1
    26   27   25 ar
    27   28   27 1
    28   29   20 ar
    29   30   29 1
    30   31    1 1
    31   32   31 1
    32   33   32 1
    33   34   32 1
    34   35   32 1
    35   36   31 1
    36   37   36 1
    37   38   36 1
    38   39   36 1
    39   40   41 2
    40   41    8 1
    41   42   41 1
    42   43   42 ar
    43   44   43 1
    44   45   46 2
    45   47   45 2
    46   48   43 ar
    47   49   48 ar
    48   50   49 1
    49   51   52 2
    50   53   51 2
    51   54   49 ar
    52   55   42 ar
    53   56   55 1
    54   57   58 1
    55   58   59 1
    56   60   58 1
    57   61   62 1
    58   62   58 1
    59   63   62 1
    60   64   65 1
    61   65   62 1
    62   66   65 1
    63   67   65 1
    64   68   67 3
    65   69   68 1
    66   70   69 1
    67   71   69 1
    68   72   69 1
    69   73   72 1
    70   74   73 1
    71   75   73 1
    72   76   73 1
    73   77   76 ar
    74   78   77 1
    75   79   77 ar
    76   80   79 1
    77   81   79 ar
    78   82   81 1
    79   83   81 ar
    80   84   83 1
    81   85   76 ar
    82   86   85 1
    83   87   57 1
    84   88   87 1
    85   89   88 1
    86   90   88 1
    87   91   88 1
    88   92   87 1
    89   93   92 1
    90   94   92 1
    91   95   92 1
    92   96   97 2
    93   97   64 1
    94   98   97 1
    95   99   98 ar
    96  100   99 1
    97  101  102 2
    98  103  101 2
    99  104   99 ar
   100  105  104 ar
   101  106  105 1
   102  107  108 2
   103  109  107 2
   104  110  105 ar
   105  111   98 ar
   106  112  111 1
   107    5   31 1
   108   27   29 ar
   109   45   48 1
   110   51   54 1
   111   54   55 ar
   112   61   87 1
   113   83   85 ar
   114  101  104 1
   115  107  110 1
   116  110  111 ar
@<TRIPOS>SUBSTRUCTURE
     1 RES1 1
     2 RES2 57

@<TRIPOS>CRYSIN
  11.1345   11.5467   17.7582  90.0000  98.2610  90.0000   4 1

