# MOL2 file generated by ConQuest
# Please check atom types

@<TRIPOS>MOLECULE
GUYPAR
    80    84     2
SMALL
NO_CHARGES
****
Generated from CSD

@<TRIPOS>ATOM
      1 N1         3.1280    4.1872    6.8910 N.3       1 RES1    0.0000
      2 C1         4.3190    3.6347    6.8293 C.2       1 RES1    0.0000
      3 C2         5.5279    4.3792    6.7220 C.2       1 RES1    0.0000
      4 C3         5.6782    5.7075    6.2556 C.2       1 RES1    0.0000
      5 N2         7.0080    5.9983    6.3663 N.am      1 RES1    0.0000
      6 N3         7.7322    4.9171    6.8728 N.2       1 RES1    0.0000
      7 C4         6.8580    3.9601    7.0757 C.2       1 RES1    0.0000
      8 O1         4.8007    6.5125    5.7741 O.2       1 RES1    0.0000
      9 C5         7.3412    2.6742    7.6543 C.3       1 RES1    0.0000
     10 C6         4.3832    2.1513    6.9164 C.ar      1 RES1    0.0000
     11 C7         4.9184    1.4050    5.8756 C.ar      1 RES1    0.0000
     12 C8         5.0577    0.0352    6.0170 C.ar      1 RES1    0.0000
     13 C9         4.6952   -0.5780    7.2005 C.ar      1 RES1    0.0000
     14 C10        4.1708    0.1632    8.2336 C.ar      1 RES1    0.0000
     15 C11        3.9958    1.5234    8.0938 C.ar      1 RES1    0.0000
     16 C12        7.7138    7.1738    5.9920 C.ar      1 RES1    0.0000
     17 C13        9.0637    7.0720    5.6885 C.ar      1 RES1    0.0000
     18 C14        9.7661    8.1981    5.3126 C.ar      1 RES1    0.0000
     19 C15        9.1394    9.4207    5.2320 C.ar      1 RES1    0.0000
     20 C16        7.7994    9.5223    5.5399 C.ar      1 RES1    0.0000
     21 C17        7.0835    8.4024    5.9347 C.ar      1 RES1    0.0000
     22 O2         2.9582    5.5426    7.0372 O.3       1 RES1    0.0000
     23 C18        1.8384    3.4979    6.8226 C.3       1 RES1    0.0000
     24 H1         8.2588    2.8107    8.0137 H         1 RES1    0.0000
     25 H2         7.3486    1.9607    6.9659 H         1 RES1    0.0000
     26 H3         6.7430    2.3667    8.3855 H         1 RES1    0.0000
     27 H4         5.1851    1.8124    5.0876 H         1 RES1    0.0000
     28 H5         5.4341   -0.4890    5.2648 H         1 RES1    0.0000
     29 H6         4.7857   -1.5357    7.2943 H         1 RES1    0.0000
     30 H7         3.9061   -0.2454    9.0354 H         1 RES1    0.0000
     31 H8         3.6410    2.0728    8.8199 H         1 RES1    0.0000
     32 H9         9.5095    6.2112    5.7496 H         1 RES1    0.0000
     33 H10       10.7146    8.1222    5.0998 H         1 RES1    0.0000
     34 H11        9.6447   10.1637    4.9747 H         1 RES1    0.0000
     35 H12        7.3161   10.4201    5.5011 H         1 RES1    0.0000
     36 H13        6.1793    8.4503    6.1649 H         1 RES1    0.0000
     37 H14        3.7910    6.0484    6.3786 H         1 RES1    0.0000
     38 H15        1.2907    3.9271    6.0954 H         1 RES1    0.0000
     39 H16        1.4134    3.5942    7.6644 H         1 RES1    0.0000
     40 H17        1.9719    2.4885    6.6445 H         1 RES1    0.0000
     41 N4         4.4531    9.5174    1.8361 N.3       2 RES2    0.0000
     42 C19        5.6418    8.9565    1.8375 C.2       2 RES2    0.0000
     43 C20        6.8494    9.6995    1.9817 C.2       2 RES2    0.0000
     44 C21        7.0004   10.9877    2.5407 C.2       2 RES2    0.0000
     45 N5         8.3257   11.2929    2.4475 N.am      2 RES2    0.0000
     46 N6         9.0550   10.2481    1.8728 N.2       2 RES2    0.0000
     47 C22        8.1800    9.3013    1.6099 C.2       2 RES2    0.0000
     48 O3         6.1230   11.7564    3.0870 O.2       2 RES2    0.0000
     49 C23        8.6648    8.0523    0.9628 C.3       2 RES2    0.0000
     50 C24        5.7009    7.4839    1.6780 C.ar      2 RES2    0.0000
     51 C25        6.1752    6.6966    2.7195 C.ar      2 RES2    0.0000
     52 C26        6.2977    5.3330    2.5553 C.ar      2 RES2    0.0000
     53 C27        5.9737    4.7532    1.3423 C.ar      2 RES2    0.0000
     54 C28        5.5051    5.5332    0.3075 C.ar      2 RES2    0.0000
     55 C29        5.3526    6.8933    0.4711 C.ar      2 RES2    0.0000
     56 C30        9.0136   12.4723    2.8355 C.ar      2 RES2    0.0000
     57 C31        8.3579   13.6913    2.8741 C.ar      2 RES2    0.0000
     58 C32        9.0562   14.8375    3.2122 C.ar      2 RES2    0.0000
     59 C33       10.4013   14.7811    3.4988 C.ar      2 RES2    0.0000
     60 C34       11.0493   13.5690    3.4477 C.ar      2 RES2    0.0000
     61 C35       10.3714   12.4080    3.1202 C.ar      2 RES2    0.0000
     62 O4         4.2779   10.8782    1.7850 O.3       2 RES2    0.0000
     63 C36        3.1631    8.8170    1.8304 C.3       2 RES2    0.0000
     64 H18        8.6661    7.2579    1.6020 H         2 RES2    0.0000
     65 H19        8.0949    7.8146    0.2241 H         2 RES2    0.0000
     66 H20        9.5721    8.1641    0.6533 H         2 RES2    0.0000
     67 H21        6.4114    7.1135    3.5551 H         2 RES2    0.0000
     68 H22        6.6195    4.7435    3.2996 H         2 RES2    0.0000
     69 H23        6.0544    3.8310    1.2441 H         2 RES2    0.0000
     70 H24        5.2905    5.1110   -0.5352 H         2 RES2    0.0000
     71 H25        4.9978    7.4439   -0.2485 H         2 RES2    0.0000
     72 H26        7.4379   13.7063    2.6689 H         2 RES2    0.0000
     73 H27        8.6019   15.7140    3.1902 H         2 RES2    0.0000
     74 H28       10.8931   15.6003    3.7149 H         2 RES2    0.0000
     75 H29       12.0033   13.4796    3.6350 H         2 RES2    0.0000
     76 H30       10.8453   11.5646    3.0755 H         2 RES2    0.0000
     77 H31        5.1273   11.3855    2.4673 H         2 RES2    0.0000
     78 H32        3.3010    7.8457    2.0138 H         2 RES2    0.0000
     79 H33        2.8070    8.8397    0.9557 H         2 RES2    0.0000
     80 H34        2.5774    9.2782    2.4656 H         2 RES2    0.0000
@<TRIPOS>BOND
     1    1    2 1
     2    2    3 2
     3    3    4 1
     4    4    5 1
     5    5    6 1
     6    6    7 2
     7    7    3 1
     8    8    4 2
     9    9    7 1
    10   10    2 1
    11   11   10 ar
    12   12   11 ar
    13   13   12 ar
    14   14   13 ar
    15   15   10 ar
    16   16    5 1
    17   17   16 ar
    18   18   17 ar
    19   19   18 ar
    20   20   19 ar
    21   21   16 ar
    22   22    1 1
    23   23    1 1
    24   24    9 1
    25   25    9 1
    26   26    9 1
    27   27   11 1
    28   28   12 1
    29   29   13 1
    30   30   14 1
    31   31   15 1
    32   32   17 1
    33   33   18 1
    34   34   19 1
    35   35   20 1
    36   36   21 1
    37   37   22 1
    38   38   23 1
    39   39   23 1
    40   40   23 1
    41   41   42 1
    42   42   43 2
    43   43   44 1
    44   44   45 1
    45   45   46 1
    46   46   47 2
    47   47   43 1
    48   48   44 2
    49   49   47 1
    50   50   42 1
    51   51   50 ar
    52   52   51 ar
    53   53   52 ar
    54   54   53 ar
    55   55   50 ar
    56   56   45 1
    57   57   56 ar
    58   58   57 ar
    59   59   58 ar
    60   60   59 ar
    61   61   56 ar
    62   62   41 1
    63   63   41 1
    64   64   49 1
    65   65   49 1
    66   66   49 1
    67   67   51 1
    68   68   52 1
    69   69   53 1
    70   70   54 1
    71   71   55 1
    72   72   57 1
    73   73   58 1
    74   74   59 1
    75   75   60 1
    76   76   61 1
    77   77   62 1
    78   78   63 1
    79   79   63 1
    80   80   63 1
    81   14   15 ar
    82   20   21 ar
    83   54   55 ar
    84   60   61 ar
@<TRIPOS>SUBSTRUCTURE
     1 RES1 1
     2 RES2 41

@<TRIPOS>CRYSIN
   9.1230    9.9330   17.8450  91.4000 102.7900  97.5100   2 1

