# MOL2 file generated by ConQuest
# Please check atom types

@<TRIPOS>MOLECULE
GUZVED
    36    29     2
SMALL
NO_CHARGES
****
Generated from CSD

@<TRIPOS>ATOM
      1 C1         3.4706    5.4426    1.0523 C.2       1 RES1    0.0000
      2 O1         4.2289    4.6340    1.6240 O.2       1 RES1    0.0000
      3 N1         3.5735    5.6780   -0.2816 N.am      1 RES1    0.0000
      4 H1         4.1880    5.2293   -0.7233 H         1 RES1    0.0000
      5 C2         2.7901    6.5686   -1.0076 C.2       1 RES1    0.0000
      6 H2         2.9590    6.6687   -1.9375 H         1 RES1    0.0000
      7 C3         1.8040    7.2946   -0.4505 C.2       1 RES1    0.0000
      8 H3         1.2738    7.8960   -0.9594 H         1 RES1    0.0000
      9 C4         1.5996    7.1076    0.9566 C.2       1 RES1    0.0000
     10 N2         0.6914    7.6873    1.7163 N.2       1 RES1    0.0000
     11 O2         0.9245    7.1324    3.0141 O.3       1 RES1    0.0000
     12 C5         1.9474    6.2566    2.9692 C.2       1 RES1    0.0000
     13 C6         2.4145    6.1972    1.6909 C.2       1 RES1    0.0000
     14 C7         2.3092    5.5843    4.2423 C.3       1 RES1    0.0000
     15 H4         2.4593    6.2751    4.9343 H         1 RES1    0.0000
     16 H5         3.1628    5.0997    4.1136 H         1 RES1    0.0000
     17 C8         1.2462    4.5856    4.7594 C.3       1 RES1    0.0000
     18 H6         0.4546    5.0965    5.0955 H         1 RES1    0.0000
     19 O3         0.8154    3.6513    3.7851 O.3       1 RES1    0.0000
     20 H7         0.3019    4.1634    3.1130 H         1 RES1    0.0000
     21 C9         1.8686    3.8201    5.9162 C.2       1 RES1    0.0000
     22 H8         2.7180    3.4059    5.8212 H         1 RES1    0.0000
     23 C10        1.2139    3.7427    7.0392 C.2       1 RES1    0.0000
     24 H9         0.3545    4.1466    7.0667 H         1 RES1    0.0000
     25 C11        1.6882    3.0788    8.2829 C.3       1 RES1    0.0000
     26 H10        2.6119    2.7761    8.1597 H         1 RES1    0.0000
     27 H11        1.1156    2.3086    8.4808 H         1 RES1    0.0000
     28 H12        1.6491    3.7144    9.0279 H         1 RES1    0.0000
     29 C12        2.3092    5.5843    4.2423 Du        2 SUP2    0.0000
     30 C13        1.8313    4.2805    4.4184 Du        2 SUP2    0.0000
     31 C14        1.8686    3.8201    5.9162 Du        2 SUP2    0.0000
     32 H13        3.2967    5.5623    4.3097 Du        2 SUP2    0.0000
     33 H14        1.9747    6.1391    4.9905 Du        2 SUP2    0.0000
     34 H15        2.3125    3.6335    3.8263 Du        2 SUP2    0.0000
     35 H16        2.7251    3.4380    6.0673 Du        2 SUP2    0.0000
     36 O4         0.4017    4.1606    4.2747 Du        2 SUP2    0.0000
@<TRIPOS>BOND
     1    1    2 2
     2    3    1 1
     3    4    3 1
     4    5    3 1
     5    6    5 1
     6    7    5 2
     7    8    7 1
     8    9    7 1
     9   10    9 2
    10   11   10 1
    11   12   11 1
    12   13    1 1
    13   14   12 1
    14   15   14 1
    15   16   14 1
    16   17   14 1
    17   18   17 1
    18   19   17 1
    19   20   19 1
    20   21   17 1
    21   22   21 1
    22   23   21 2
    23   24   23 1
    24   25   23 1
    25   26   25 1
    26   27   25 1
    27   28   25 1
    28    9   13 1
    29   12   13 2
@<TRIPOS>SUBSTRUCTURE
     1 RES1 1
     2 SUP2 29

@<TRIPOS>CRYSIN
   4.8136    8.7111   13.0695  72.9110  89.2070  89.0230   2 1

