# MOL2 file generated by ConQuest
# Please check atom types

@<TRIPOS>MOLECULE
GUZWEE
    38    42     1
SMALL
NO_CHARGES
****
Generated from CSD

@<TRIPOS>ATOM
      1 C1        -2.0783    4.3173    4.6448 C.3       1 RES1    0.0000
      2 H1        -1.5915    4.1376    3.8245 H         1 RES1    0.0000
      3 H2        -1.8139    5.1920    4.9711 H         1 RES1    0.0000
      4 C2        -3.5866    4.2902    4.3769 C.3       1 RES1    0.0000
      5 H3        -3.8086    4.9692    3.7050 H         1 RES1    0.0000
      6 C3        -4.3599    4.5853    5.6698 C.3       1 RES1    0.0000
      7 H4        -4.1008    5.4696    6.0023 H         1 RES1    0.0000
      8 C4        -5.5288    2.8913    3.5886 C.3       1 RES1    0.0000
      9 H5        -5.7555    3.5612    2.9245 H         1 RES1    0.0000
     10 H6        -5.7955    2.0224    3.2502 H         1 RES1    0.0000
     11 C5        -5.8695    4.5730    5.4041 C.3       1 RES1    0.0000
     12 H7        -6.3530    4.7708    6.2212 H         1 RES1    0.0000
     13 H8        -6.0966    5.2455    4.7426 H         1 RES1    0.0000
     14 C6        -4.0193    2.9106    3.8640 C.3       1 RES1    0.0000
     15 H9        -3.5407    2.7168    3.0302 H         1 RES1    0.0000
     16 C7        -1.7554    3.2552    5.6840 C.3       1 RES1    0.0000
     17 N1        -0.2415    3.2503    5.9047 N.pl3     1 RES1    0.0000
     18 O1         0.4647    3.2185    4.9147 O.2       1 RES1    0.0000
     19 O2         0.1933    3.2578    7.0405 O.2       1 RES1    0.0000
     20 C1D       -5.9272    2.1236    5.9320 C.3       1 RES1    0.0000
     21 H1D       -6.4140    2.3033    6.7522 H         1 RES1    0.0000
     22 H2D       -6.1916    1.2489    5.6057 H         1 RES1    0.0000
     23 C2D       -4.4189    2.1507    6.1999 C.3       1 RES1    0.0000
     24 H3D       -4.1969    1.4717    6.8717 H         1 RES1    0.0000
     25 C3D       -3.6455    1.8556    4.9070 C.3       1 RES1    0.0000
     26 H4D       -3.9047    0.9713    4.5744 H         1 RES1    0.0000
     27 C4D       -2.4767    3.5496    6.9881 C.3       1 RES1    0.0000
     28 H5D       -2.2500    2.8797    7.6523 H         1 RES1    0.0000
     29 H6D       -2.2100    4.4185    7.3265 H         1 RES1    0.0000
     30 C5D       -2.1360    1.8679    5.1726 C.3       1 RES1    0.0000
     31 H7D       -1.6525    1.6701    4.3555 H         1 RES1    0.0000
     32 H8D       -1.9089    1.1954    5.8341 H         1 RES1    0.0000
     33 C6D       -3.9862    3.5303    6.7127 C.3       1 RES1    0.0000
     34 H9D       -4.4648    3.7241    7.5465 H         1 RES1    0.0000
     35 C7D       -6.2501    3.1857    4.8927 C.3       1 RES1    0.0000
     36 N1D       -7.7640    3.1906    4.6721 N.pl3     1 RES1    0.0000
     37 O1D       -8.4702    3.2224    5.6620 O.2       1 RES1    0.0000
     38 O2D       -8.1988    3.1831    3.5362 O.2       1 RES1    0.0000
@<TRIPOS>BOND
     1    1    2 1
     2    3    1 1
     3    4    1 1
     4    5    4 1
     5    6    4 1
     6    7    6 1
     7    8    9 1
     8   10    8 1
     9   11    6 1
    10   12   11 1
    11   13   11 1
    12   14    4 1
    13   15   14 1
    14   16    1 1
    15   17   16 1
    16   18   17 2
    17   19   17 2
    18   20   21 1
    19   22   20 1
    20   23   20 1
    21   24   23 1
    22   25   14 1
    23   26   25 1
    24   27   16 1
    25   28   27 1
    26   29   27 1
    27   30   16 1
    28   31   30 1
    29   32   30 1
    30   33    6 1
    31   34   33 1
    32   35    8 1
    33   36   35 1
    34   37   36 2
    35   38   36 2
    36    8   14 1
    37   11   35 1
    38   20   35 1
    39   23   25 1
    40   23   33 1
    41   25   30 1
    42   27   33 1
@<TRIPOS>SUBSTRUCTURE
     1 RES1 1

@<TRIPOS>CRYSIN
  18.1270    6.4409   13.2648  90.0000 127.1220  90.0000  15 1

