# MOL2 file generated by ConQuest
# Please check atom types

@<TRIPOS>MOLECULE
HABCIX
    30    33     1
SMALL
NO_CHARGES
****
Generated from CSD

@<TRIPOS>ATOM
      1 O1        15.4475   -0.4495    8.5788 O.3       1 RES1    0.0000
      2 N1        15.7105    0.1835    7.3819 N.2       1 RES1    0.0000
      3 C1        14.6371    0.7330    6.8101 C.ar      1 RES1    0.0000
      4 C2        14.9634    1.5343    5.6295 C.ar      1 RES1    0.0000
      5 C3        13.9846    2.3120    5.1108 C.ar      1 RES1    0.0000
      6 C4        12.6407    2.3273    5.5698 C.ar      1 RES1    0.0000
      7 C5        11.6600    3.1380    4.9622 C.ar      1 RES1    0.0000
      8 C6        10.3522    3.0839    5.3224 C.ar      1 RES1    0.0000
      9 C7         9.9190    2.1685    6.3207 C.ar      1 RES1    0.0000
     10 C8         8.5668    2.0390    6.6755 C.ar      1 RES1    0.0000
     11 C9         8.1203    1.1095    7.5968 C.ar      1 RES1    0.0000
     12 C10        9.0735    0.2859    8.1968 C.ar      1 RES1    0.0000
     13 C11       10.4438    0.3906    7.8974 C.ar      1 RES1    0.0000
     14 C12       11.4328   -0.4236    8.5159 C.ar      1 RES1    0.0000
     15 C13       12.7571   -0.3024    8.2066 C.ar      1 RES1    0.0000
     16 C14       13.2378    0.6177    7.2420 C.ar      1 RES1    0.0000
     17 C15       12.2632    1.4331    6.5963 C.ar      1 RES1    0.0000
     18 C16       10.8797    1.3319    6.9446 C.ar      1 RES1    0.0000
     19 C17       16.3570    1.4849    4.9643 C.3       1 RES1    0.0000
     20 C18       16.7232    0.0482    4.6138 C.3       1 RES1    0.0000
     21 C19       17.4195    2.1179    5.8650 C.3       1 RES1    0.0000
     22 C20       16.3631    2.2673    3.6438 C.3       1 RES1    0.0000
     23 C21        6.6393    0.9554    7.9592 C.3       1 RES1    0.0000
     24 C22        6.4460    1.3037    9.4360 C.3       1 RES1    0.0000
     25 C23        6.1962   -0.4753    7.6901 C.3       1 RES1    0.0000
     26 C24        5.7430    1.8849    7.1345 C.3       1 RES1    0.0000
     27 C25       16.6328   -1.1413    9.0888 C.3       1 RES1    0.0000
     28 C26       16.1781   -1.6731   10.3887 C.3       1 RES1    0.0000
     29 C27       17.0032   -2.2638    8.1350 C.3       1 RES1    0.0000
     30 C28       17.8053   -0.1953    9.1799 C.3       1 RES1    0.0000
@<TRIPOS>BOND
     1    1    2 1
     2    2    3 1
     3    3    4 ar
     4    4    5 ar
     5    5    6 ar
     6    6    7 ar
     7    7    8 ar
     8    8    9 ar
     9    9   10 ar
    10   10   11 ar
    11   11   12 ar
    12   12   13 ar
    13   13   14 ar
    14   14   15 ar
    15   15   16 ar
    16   16    3 ar
    17   17    6 ar
    18   18    9 ar
    19   19    4 1
    20   20   19 1
    21   21   19 1
    22   22   19 1
    23   23   11 1
    24   24   23 1
    25   25   23 1
    26   26   23 1
    27   27    1 1
    28   28   27 1
    29   29   27 1
    30   30   27 1
    31   13   18 ar
    32   16   17 ar
    33   17   18 ar
@<TRIPOS>SUBSTRUCTURE
     1 RES1 1

@<TRIPOS>CRYSIN
  37.6760   11.7660   10.8510  90.0000  90.0000  90.0000  61 1

