# MOL2 file generated by ConQuest
# Please check atom types

@<TRIPOS>MOLECULE
HABCOD
    26    29     1
SMALL
NO_CHARGES
****
Generated from CSD

@<TRIPOS>ATOM
      1 O1       -11.1319   -0.4291  -10.2569 O.3       1 RES1    0.0000
      2 N1       -11.0763    0.8246  -10.8615 N.2       1 RES1    0.0000
      3 C1       -12.2460    1.4142  -10.9900 C.ar      1 RES1    0.0000
      4 C2       -12.1753    2.7036  -11.7073 C.ar      1 RES1    0.0000
      5 C3       -13.3309    3.2219  -12.1895 C.ar      1 RES1    0.0000
      6 C4       -14.6178    2.6402  -11.9835 C.ar      1 RES1    0.0000
      7 C5       -15.7750    3.2081  -12.5615 C.ar      1 RES1    0.0000
      8 C6       -17.0128    2.6967  -12.3083 C.ar      1 RES1    0.0000
      9 C7       -17.1826    1.6085  -11.4189 C.ar      1 RES1    0.0000
     10 C8       -18.4487    1.0763  -11.1051 C.ar      1 RES1    0.0000
     11 C9       -18.5812    0.0198  -10.2351 C.ar      1 RES1    0.0000
     12 C10      -17.4770   -0.5659   -9.6595 C.ar      1 RES1    0.0000
     13 C11      -16.1873   -0.0823   -9.9443 C.ar      1 RES1    0.0000
     14 C12      -15.0121   -0.6452   -9.3809 C.ar      1 RES1    0.0000
     15 C13      -13.7655   -0.1774   -9.6874 C.ar      1 RES1    0.0000
     16 C14      -13.5681    0.9009  -10.5865 C.ar      1 RES1    0.0000
     17 C15      -14.7324    1.5173  -11.1281 C.ar      1 RES1    0.0000
     18 C16      -16.0336    1.0158  -10.8264 C.ar      1 RES1    0.0000
     19 C17      -10.8378    3.4172  -11.9642 C.3       1 RES1    0.0000
     20 C18      -10.0473    3.5886  -10.6604 C.3       1 RES1    0.0000
     21 C19      -11.0624    4.8265  -12.5203 C.3       1 RES1    0.0000
     22 C20      -10.0110    2.6471  -12.9965 C.3       1 RES1    0.0000
     23 C21       -9.8379   -1.1070  -10.3732 C.3       1 RES1    0.0000
     24 C22      -10.0788   -2.3746   -9.5687 C.3       1 RES1    0.0000
     25 C23       -8.7323   -0.2606   -9.7795 C.3       1 RES1    0.0000
     26 C24       -9.5708   -1.4261  -11.8236 C.3       1 RES1    0.0000
@<TRIPOS>BOND
     1    1    2 1
     2    2    3 1
     3    3    4 ar
     4    4    5 ar
     5    5    6 ar
     6    6    7 ar
     7    7    8 ar
     8    8    9 ar
     9    9   10 ar
    10   10   11 ar
    11   11   12 ar
    12   12   13 ar
    13   13   14 ar
    14   14   15 ar
    15   15   16 ar
    16   16    3 ar
    17   17    6 ar
    18   18    9 ar
    19   19    4 1
    20   20   19 1
    21   21   19 1
    22   22   19 1
    23   23    1 1
    24   24   23 1
    25   25   23 1
    26   26   23 1
    27   13   18 ar
    28   16   17 ar
    29   17   18 ar
@<TRIPOS>SUBSTRUCTURE
     1 RES1 1

@<TRIPOS>CRYSIN
  16.0862    9.9106   12.1183  90.0000  90.8910  90.0000  14 1

