# MOL2 file generated by ConQuest
# Please check atom types

@<TRIPOS>MOLECULE
HABFAS
    24    26     1
SMALL
NO_CHARGES
****
Generated from CSD

@<TRIPOS>ATOM
      1 N1        -1.6559    0.5179   10.3067 N.ar      1 RES1    0.0000
      2 C1        -2.4850   -0.5128   10.1185 C.ar      1 RES1    0.0000
      3 C2        -2.6374   -1.1743    8.9291 C.ar      1 RES1    0.0000
      4 C3        -1.8835   -0.7513    7.8724 C.ar      1 RES1    0.0000
      5 C4        -1.0255    0.3051    8.0231 C.ar      1 RES1    0.0000
      6 C5        -0.9343    0.9359    9.2548 C.ar      1 RES1    0.0000
      7 C6        -0.0367    2.0666    9.4997 C.2       1 RES1    0.0000
      8 N2        -1.0372    3.6845   10.9581 N.ar      1 RES1    0.0000
      9 C7        -1.1088    4.3255   12.1294 C.ar      1 RES1    0.0000
     10 C8        -0.2869    4.0691   13.1922 C.ar      1 RES1    0.0000
     11 C9         0.6738    3.1255   13.0486 C.ar      1 RES1    0.0000
     12 C10        0.7870    2.4486   11.8423 C.ar      1 RES1    0.0000
     13 C11       -0.0841    2.7640   10.8326 C.ar      1 RES1    0.0000
     14 N3         0.7184    2.4230    8.5117 N.2       1 RES1    0.0000
     15 N4         1.5898    3.4358    8.6902 N.pl3     1 RES1    0.0000
     16 C12        2.3169    3.9178    7.6106 C.ar      1 RES1    0.0000
     17 C13        2.0984    3.4383    6.3186 C.ar      1 RES1    0.0000
     18 C14        2.8114    3.9768    5.2631 C.ar      1 RES1    0.0000
     19 C15        3.7260    4.9613    5.4947 C.ar      1 RES1    0.0000
     20 C16        3.9743    5.4280    6.7770 C.ar      1 RES1    0.0000
     21 C17        3.2604    4.8998    7.8265 C.ar      1 RES1    0.0000
     22 N5         4.4355    5.5639    4.3729 N.pl3     1 RES1    0.0000
     23 O1         5.1982    6.4844    4.5888 O.2       1 RES1    0.0000
     24 O2         4.2474    5.1152    3.2558 O.2       1 RES1    0.0000
@<TRIPOS>BOND
     1    1    2 ar
     2    2    3 ar
     3    3    4 ar
     4    4    5 ar
     5    5    6 ar
     6    6    1 ar
     7    7    6 1
     8    8    9 ar
     9    9   10 ar
    10   10   11 ar
    11   11   12 ar
    12   12   13 ar
    13   13    7 1
    14   14    7 2
    15   15   14 1
    16   16   15 1
    17   17   16 ar
    18   18   17 ar
    19   19   18 ar
    20   20   19 ar
    21   21   16 ar
    22   22   19 1
    23   23   22 2
    24   24   22 2
    25    8   13 ar
    26   20   21 ar
@<TRIPOS>SUBSTRUCTURE
     1 RES1 1

@<TRIPOS>CRYSIN
   4.8340   25.6400   12.2560  90.0000 100.1800  90.0000 231 1

