# MOL2 file generated by ConQuest
# Please check atom types

@<TRIPOS>MOLECULE
HABFAS02
    74    78     2
SMALL
NO_CHARGES
****
Generated from CSD

@<TRIPOS>ATOM
      1 O1        -4.9584  -14.6234   -0.4510 O.2       1 RES1    0.0000
      2 O2        -3.3228  -16.0457   -0.4446 O.2       1 RES1    0.0000
      3 N1        -0.2798  -11.0096    1.7012 N.pl3     1 RES1    0.0000
      4 H1         0.7820  -11.2971    1.8120 H         1 RES1    0.0000
      5 N2        -0.7690   -9.8497    2.2119 N.2       1 RES1    0.0000
      6 N3        -3.7636  -14.9063   -0.2607 N.pl3     1 RES1    0.0000
      7 N4        -0.2844   -7.4893    4.6365 N.ar      1 RES1    0.0000
      8 N5         2.0800  -10.3106    2.6326 N.ar      1 RES1    0.0000
      9 C1        -1.1641  -11.9344    1.1705 C.ar      1 RES1    0.0000
     10 C2        -0.6689  -13.1887    0.8066 C.ar      1 RES1    0.0000
     11 H2         0.2590  -13.3709    0.8969 H         1 RES1    0.0000
     12 C3        -1.5081  -14.1603    0.3206 C.ar      1 RES1    0.0000
     13 H3        -1.1692  -15.0132    0.0714 H         1 RES1    0.0000
     14 C4        -2.8620  -13.8736    0.2002 C.ar      1 RES1    0.0000
     15 C5        -3.3727  -12.6301    0.5168 C.ar      1 RES1    0.0000
     16 H4        -4.2987  -12.4490    0.4074 H         1 RES1    0.0000
     17 C6        -2.5194  -11.6536    0.9957 C.ar      1 RES1    0.0000
     18 H5        -2.8559  -10.7913    1.2055 H         1 RES1    0.0000
     19 C7         0.0362   -9.0127    2.7934 C.2       1 RES1    0.0000
     20 C8        -0.6701   -7.8451    3.3944 C.ar      1 RES1    0.0000
     21 C9        -0.9322   -6.4669    5.2079 C.ar      1 RES1    0.0000
     22 H6        -0.6645   -6.1993    6.0790 H         1 RES1    0.0000
     23 C10       -1.9726   -5.7736    4.5999 C.ar      1 RES1    0.0000
     24 H7        -2.4125   -5.0606    5.0499 H         1 RES1    0.0000
     25 C11       -2.3503   -6.1498    3.3260 C.ar      1 RES1    0.0000
     26 H8        -3.0481   -5.6913    2.8730 H         1 RES1    0.0000
     27 C12       -1.6931   -7.2066    2.7165 C.ar      1 RES1    0.0000
     28 H9        -1.9429   -7.4891    1.8454 H         1 RES1    0.0000
     29 C13        1.5183   -9.1189    2.9194 C.ar      1 RES1    0.0000
     30 C14        3.4097  -10.4164    2.7317 C.ar      1 RES1    0.0000
     31 H10        3.8084  -11.2555    2.5340 H         1 RES1    0.0000
     32 C15        4.2370   -9.3756    3.1041 C.ar      1 RES1    0.0000
     33 H11        5.1776   -9.4949    3.1649 H         1 RES1    0.0000
     34 C16        3.6530   -8.1524    3.3853 C.ar      1 RES1    0.0000
     35 H12        4.1901   -7.4102    3.6392 H         1 RES1    0.0000
     36 C17        2.2910   -8.0225    3.2941 C.ar      1 RES1    0.0000
     37 H13        1.8773   -7.1891    3.4856 H         1 RES1    0.0000
     38 O3         5.3667   -5.3536    7.7783 O.2       2 RES2    0.0000
     39 O4         6.8070   -6.9099    8.2119 O.2       2 RES2    0.0000
     40 N6         2.0023  -10.3428    6.0613 N.pl3     2 RES2    0.0000
     41 H14        1.0996  -10.0205    5.8297 H         2 RES2    0.0000
     42 N7         2.4603  -11.5251    5.5790 N.2       2 RES2    0.0000
     43 N8         5.6886   -6.5464    7.8483 N.pl3     2 RES2    0.0000
     44 N9         2.0172  -13.8005    3.1085 N.ar      2 RES2    0.0000
     45 N10       -0.3873  -11.0372    5.1514 N.ar      2 RES2    0.0000
     46 C18        2.9105   -9.4367    6.5715 C.ar      2 RES2    0.0000
     47 C19        2.4909   -8.1276    6.8229 C.ar      2 RES2    0.0000
     48 H15        1.5807   -7.8876    6.6961 H         2 RES2    0.0000
     49 C20        3.3962   -7.1832    7.2542 C.ar      2 RES2    0.0000
     50 H16        3.1187   -6.2891    7.4197 H         2 RES2    0.0000
     51 C21        4.7186   -7.5535    7.4441 C.ar      2 RES2    0.0000
     52 C22        5.1435   -8.8540    7.2539 C.ar      2 RES2    0.0000
     53 H17        6.0456   -9.0942    7.4288 H         2 RES2    0.0000
     54 C23        4.2457   -9.7997    6.8086 C.ar      2 RES2    0.0000
     55 H18        4.5286  -10.6949    6.6642 H         2 RES2    0.0000
     56 C24        1.6432  -12.3546    4.9956 C.2       2 RES2    0.0000
     57 C25        2.3444  -13.5198    4.3856 C.ar      2 RES2    0.0000
     58 C26        2.6930  -14.7925    2.5128 C.ar      2 RES2    0.0000
     59 H19        2.4753  -15.0044    1.6129 H         2 RES2    0.0000
     60 C27        3.6890  -15.5280    3.1299 C.ar      2 RES2    0.0000
     61 H20        4.1477  -16.2132    2.6587 H         2 RES2    0.0000
     62 C28        3.9989  -15.2486    4.4342 C.ar      2 RES2    0.0000
     63 H21        4.6606  -15.7533    4.8933 H         2 RES2    0.0000
     64 C29        3.3326  -14.2179    5.0711 C.ar      2 RES2    0.0000
     65 H22        3.5477  -13.9884    5.9680 H         2 RES2    0.0000
     66 C30        0.1686  -12.2273    4.8472 C.ar      2 RES2    0.0000
     67 C31       -1.7218  -10.9338    5.0453 C.ar      2 RES2    0.0000
     68 H23       -2.1204  -10.0927    5.2399 H         2 RES2    0.0000
     69 C32       -2.5518  -11.9725    4.6729 C.ar      2 RES2    0.0000
     70 H24       -3.4940  -11.8577    4.6303 H         2 RES2    0.0000
     71 C33       -1.9684  -13.1814    4.3643 C.ar      2 RES2    0.0000
     72 H25       -2.5059  -13.9139    4.0876 H         2 RES2    0.0000
     73 C34       -0.6008  -13.3211    4.4600 C.ar      2 RES2    0.0000
     74 H26       -0.1877  -14.1548    4.2624 H         2 RES2    0.0000
@<TRIPOS>BOND
     1    1    6 2
     2    2    6 2
     3    3    4 1
     4    5    3 1
     5    6   14 1
     6    7   20 ar
     7    8   29 ar
     8    9    3 1
     9   10    9 ar
    10   11   10 1
    11   12   10 ar
    12   13   12 1
    13   14   12 ar
    14   15   14 ar
    15   16   15 1
    16   17    9 ar
    17   18   17 1
    18   19    5 2
    19   20   19 1
    20   21    7 ar
    21   22   21 1
    22   23   21 ar
    23   24   23 1
    24   25   23 ar
    25   26   25 1
    26   27   20 ar
    27   28   27 1
    28   29   19 1
    29   30    8 ar
    30   31   30 1
    31   32   30 ar
    32   33   32 1
    33   34   32 ar
    34   35   34 1
    35   36   29 ar
    36   37   36 1
    37   38   43 2
    38   39   43 2
    39   40   41 1
    40   42   40 1
    41   43   51 1
    42   44   57 ar
    43   45   66 ar
    44   46   40 1
    45   47   46 ar
    46   48   47 1
    47   49   47 ar
    48   50   49 1
    49   51   49 ar
    50   52   51 ar
    51   53   52 1
    52   54   46 ar
    53   55   54 1
    54   56   42 2
    55   57   56 1
    56   58   44 ar
    57   59   58 1
    58   60   58 ar
    59   61   60 1
    60   62   60 ar
    61   63   62 1
    62   64   57 ar
    63   65   64 1
    64   66   56 1
    65   67   45 ar
    66   68   67 1
    67   69   67 ar
    68   70   69 1
    69   71   69 ar
    70   72   71 1
    71   73   66 ar
    72   74   73 1
    73   15   17 ar
    74   25   27 ar
    75   34   36 ar
    76   52   54 ar
    77   62   64 ar
    78   71   73 ar
@<TRIPOS>SUBSTRUCTURE
     1 RES1 1
     2 RES2 38

@<TRIPOS>CRYSIN
   8.9739   21.8979   16.0438  90.0000 108.6510  90.0000  14 1

