# MOL2 file generated by ConQuest
# Please check atom types

@<TRIPOS>MOLECULE
HABMED
    19    19     1
SMALL
NO_CHARGES
****
Generated from CSD

@<TRIPOS>ATOM
      1 O1         3.5773    0.7423    2.9850 O.2       1 RES1    0.0000
      2 O2         1.4282   -1.9785    3.2858 O.2       1 RES1    0.0000
      3 O3         0.7243   -0.3320    2.0638 O.2       1 RES1    0.0000
      4 N1         2.7381    1.7081    3.2921 N.pl3     1 RES1    0.0000
      5 N2         1.3268    0.0359    4.1682 N.3       1 RES1    0.0000
      6 N3         1.1681   -0.8030    3.0907 N.pl3     1 RES1    0.0000
      7 C1         1.5296    1.3944    3.8512 C.ar      1 RES1    0.0000
      8 C2         0.5954    2.3712    4.1375 C.ar      1 RES1    0.0000
      9 C3         0.9451    3.6930    3.8702 C.ar      1 RES1    0.0000
     10 C4         2.1723    3.9910    3.3237 C.ar      1 RES1    0.0000
     11 C5         3.0610    2.9894    3.0347 C.ar      1 RES1    0.0000
     12 C6        -0.7417    2.0088    4.6894 C.3       1 RES1    0.0000
     13 H1         1.9316   -0.3311    4.7779 H         1 RES1    0.0000
     14 H2         3.9626    3.1181    2.6644 H         1 RES1    0.0000
     15 H3         2.4176    4.9393    3.1431 H         1 RES1    0.0000
     16 H4         0.2869    4.3966    4.0824 H         1 RES1    0.0000
     17 H5        -1.2955    1.7292    3.9469 H         1 RES1    0.0000
     18 H6        -0.7411    1.2601    5.2475 H         1 RES1    0.0000
     19 H7        -1.1125    2.7134    5.1211 H         1 RES1    0.0000
@<TRIPOS>BOND
     1    1    4 1
     2    2    6 2
     3    3    6 2
     4    4    7 ar
     5    5    6 1
     6    7    5 1
     7    8    7 ar
     8    9    8 ar
     9   10    9 ar
    10   11    4 ar
    11   12    8 1
    12   13    5 1
    13   14   11 1
    14   15   10 1
    15   16    9 1
    16   17   12 1
    17   18   12 1
    18   19   12 1
    19   10   11 ar
@<TRIPOS>SUBSTRUCTURE
     1 RES1 1

@<TRIPOS>CRYSIN
   9.2640    9.1980    9.3940  90.0000 105.9600  90.0000  14 1

