# MOL2 file generated by ConQuest
# Please check atom types

@<TRIPOS>MOLECULE
HABMAZ
    38    38     2
SMALL
USER_CHARGES
****
Generated from CSD

@<TRIPOS>ATOM
      1 O1         3.0330    2.7456    9.0521 O.3       1 RES1    0.0000
      2 O2         2.0342   -0.1828    5.7480 O.2       1 RES1    0.0000
      3 O3         4.1370   -0.5203    5.8373 O.2       1 RES1    0.0000
      4 O4         0.7323    1.8589    7.6421 O.3       2 RES2    0.0000
      5 O5         1.3501   -0.6202   11.6582 O.2       2 RES2    0.0000
      6 O6         2.9819    0.7582   11.4020 O.2       2 RES2    0.0000
      7 N1         4.1977    2.0191    8.9346 N.pl3     1 RES1    1.0000
      8 N2         3.1599    0.9261    7.2403 N.2       1 RES1   -1.0000
      9 N3         3.1378    0.0276    6.2486 N.pl3     1 RES1    0.0000
     10 N4        -0.0452    0.8573    8.1661 N.pl3     2 RES2    1.0000
     11 N5         1.3889    0.8424    9.9192 N.2       2 RES2   -1.0000
     12 N6         1.8978    0.2941   11.0401 N.pl3     2 RES2    0.0000
     13 C1         4.3195    1.0953    7.9429 C.ar      1 RES1    0.0000
     14 C2         5.5779    0.4868    7.8418 C.ar      1 RES1    0.0000
     15 C3         6.5880    0.7637    8.7348 C.ar      1 RES1    0.0000
     16 C4         6.3552    1.6811    9.7571 C.ar      1 RES1    0.0000
     17 C5         5.1688    2.2977    9.8229 C.ar      1 RES1    0.0000
     18 C6         7.9126    0.0973    8.6009 C.3       1 RES1    0.0000
     19 C7         0.2409    0.3456    9.3928 C.ar      2 RES2    0.0000
     20 C8        -0.7036   -0.5727    9.9051 C.ar      2 RES2    0.0000
     21 C9        -1.8272   -0.9206    9.2001 C.ar      2 RES2    0.0000
     22 C10       -2.0294   -0.3755    7.9311 C.ar      2 RES2    0.0000
     23 C11       -1.1370    0.5180    7.4494 C.ar      2 RES2    0.0000
     24 C12       -2.8254   -1.8675    9.7947 C.3       2 RES2    0.0000
     25 H1         2.5277    1.9996    9.1884 H         1 RES1    0.0000
     26 H2         1.8099    1.4974    7.5199 H         2 RES2    0.0000
     27 H3         5.6823   -0.0995    7.1674 H         1 RES1    0.0000
     28 H4         7.0518    1.8186   10.3869 H         1 RES1    0.0000
     29 H5         4.9450    2.9632   10.4574 H         1 RES1    0.0000
     30 H6         7.9993   -0.6786    7.9664 H         1 RES1    0.0000
     31 H7         8.2147   -0.1402    9.3999 H         1 RES1    0.0000
     32 H8         8.3872    0.5881    8.0369 H         1 RES1    0.0000
     33 H9        -0.5279   -0.9274   10.7864 H         2 RES2    0.0000
     34 H10       -2.8417   -0.6243    7.3554 H         2 RES2    0.0000
     35 H11       -1.1352    1.0767    6.6034 H         2 RES2    0.0000
     36 H12       -3.3929   -1.4477   10.3869 H         2 RES2    0.0000
     37 H13       -3.3219   -2.1715    9.1649 H         2 RES2    0.0000
     38 H14       -2.4262   -2.4294   10.4339 H         2 RES2    0.0000
@<TRIPOS>BOND
     1    1    7 1
     2    2    9 2
     3    3    9 2
     4    4   10 1
     5    5   12 2
     6    6   12 2
     7    7   13 ar
     8    8    9 1
     9   10   19 ar
    10   11   12 1
    11   13    8 1
    12   14   13 ar
    13   15   14 ar
    14   16   15 ar
    15   17    7 ar
    16   18   15 1
    17   19   11 1
    18   20   19 ar
    19   21   20 ar
    20   22   21 ar
    21   23   10 ar
    22   24   21 1
    23   25    1 1
    24   26    4 1
    25   27   14 1
    26   28   16 1
    27   29   17 1
    28   30   18 1
    29   31   18 1
    30   32   18 1
    31   33   20 1
    32   34   22 1
    33   35   23 1
    34   36   24 1
    35   37   24 1
    36   38   24 1
    37   16   17 ar
    38   22   23 ar
@<TRIPOS>SUBSTRUCTURE
     1 RES1 1
     2 RES2 4

@<TRIPOS>CRYSIN
  13.7070    4.5240   23.7180  90.0000  97.7800  90.0000  14 1

