# MOL2 file generated by ConQuest
# Please check atom types

@<TRIPOS>MOLECULE
HABNIH
    52    55     1
SMALL
NO_CHARGES
****
Generated from CSD

@<TRIPOS>ATOM
      1 C1        -0.5874   -0.5849   11.4803 C.3       1 RES1    0.0000
      2 C2         0.1421    0.7197   11.9039 C.3       1 RES1    0.0000
      3 N1         0.7047    1.4297   10.7200 N.pl3     1 RES1    0.0000
      4 C3         0.1452    1.3797    9.3505 C.3       1 RES1    0.0000
      5 C4        -0.5581    0.0250    9.0711 C.3       1 RES1    0.0000
      6 C5         0.3603   -1.1666    8.7551 C.3       1 RES1    0.0000
      7 C6         1.1853   -1.6036    9.9596 C.3       1 RES1    0.0000
      8 C7         0.3144   -1.7971   11.1986 C.3       1 RES1    0.0000
      9 C8        -1.3989   -0.3675   10.2459 C.2       1 RES1    0.0000
     10 O1        -2.5842   -0.6164   10.1589 O.2       1 RES1    0.0000
     11 C9         1.1545    0.4686   12.9963 C.ar      1 RES1    0.0000
     12 C10        0.7438    0.5675   14.2948 C.ar      1 RES1    0.0000
     13 C11        1.5802    0.3436   15.3528 C.ar      1 RES1    0.0000
     14 C12        2.8986    0.0098   15.1124 C.ar      1 RES1    0.0000
     15 C13        3.3499   -0.0696   13.8276 C.ar      1 RES1    0.0000
     16 C14        2.4834    0.1794   12.7559 C.ar      1 RES1    0.0000
     17 O2         3.6823   -0.1653   16.2231 O.3       1 RES1    0.0000
     18 C15        4.9842   -0.6730   16.0605 C.3       1 RES1    0.0000
     19 C16        1.1778    1.7308    8.2993 C.ar      1 RES1    0.0000
     20 C17        2.5210    1.4177    8.4138 C.ar      1 RES1    0.0000
     21 C18        3.3754    1.7471    7.3810 C.ar      1 RES1    0.0000
     22 C19        2.9242    2.3679    6.2382 C.ar      1 RES1    0.0000
     23 C20        1.6065    2.6876    6.1306 C.ar      1 RES1    0.0000
     24 C21        0.7544    2.3777    7.1726 C.ar      1 RES1    0.0000
     25 O3         3.8718    2.6332    5.2901 O.3       1 RES1    0.0000
     26 C22        3.4378    3.2551    4.0695 C.3       1 RES1    0.0000
     27 N2         1.2184    2.6810   10.8963 N.2       1 RES1    0.0000
     28 O4         1.2846    3.0018   12.0894 O.2       1 RES1    0.0000
     29 H1        -1.1898   -0.8165   12.3459 H         1 RES1    0.0000
     30 H2        -0.5866    1.3873   12.3368 H         1 RES1    0.0000
     31 H3        -0.6160    2.1440    9.2864 H         1 RES1    0.0000
     32 H4        -1.1327    0.2174    8.1779 H         1 RES1    0.0000
     33 H5         1.0326   -0.8839    7.9581 H         1 RES1    0.0000
     34 H6        -0.2497   -1.9972    8.4321 H         1 RES1    0.0000
     35 H7         1.6764   -2.5375    9.7283 H         1 RES1    0.0000
     36 H8         1.9284   -0.8480   10.1703 H         1 RES1    0.0000
     37 H9        -0.3106   -2.6658   11.0497 H         1 RES1    0.0000
     38 H10        0.9559   -1.9570   12.0528 H         1 RES1    0.0000
     39 H11        2.8542    0.1435   11.7436 H         1 RES1    0.0000
     40 H12        4.3810   -0.3251   13.6353 H         1 RES1    0.0000
     41 H13        1.2139    0.4273   16.3651 H         1 RES1    0.0000
     42 H14       -0.2843    0.8328   14.4940 H         1 RES1    0.0000
     43 H15        5.4347   -0.6980   17.0292 H         1 RES1    0.0000
     44 H16        5.5513   -0.0348   15.3986 H         1 RES1    0.0000
     45 H17        4.9443   -1.6721   15.6528 H         1 RES1    0.0000
     46 H18        2.8956    0.9230    9.2978 H         1 RES1    0.0000
     47 H19        4.4254    1.5112    7.4703 H         1 RES1    0.0000
     48 H20        1.2319    3.1757    5.2443 H         1 RES1    0.0000
     49 H21       -0.2858    2.6582    7.0924 H         1 RES1    0.0000
     50 H22        2.8392    2.5147    3.4924 H         1 RES1    0.0000
     51 H23        4.2967    3.5595    3.4901 H         1 RES1    0.0000
     52 H24        2.8324    4.1205    4.2962 H         1 RES1    0.0000
@<TRIPOS>BOND
     1    1    2 1
     2    2    3 1
     3    3    4 1
     4    4    5 1
     5    5    6 1
     6    6    7 1
     7    7    8 1
     8    8    1 1
     9    9    1 1
    10   10    9 2
    11   11    2 1
    12   12   11 ar
    13   13   12 ar
    14   14   13 ar
    15   15   14 ar
    16   16   11 ar
    17   17   14 1
    18   18   17 1
    19   19    4 1
    20   20   19 ar
    21   21   20 ar
    22   22   21 ar
    23   23   22 ar
    24   24   19 ar
    25   25   22 1
    26   26   25 1
    27   27    3 1
    28   28   27 2
    29   29    1 1
    30   30    2 1
    31   31    4 1
    32   32    5 1
    33   33    6 1
    34   34    6 1
    35   35    7 1
    36   36    7 1
    37   37    8 1
    38   38    8 1
    39   39   16 1
    40   40   15 1
    41   41   13 1
    42   42   12 1
    43   43   18 1
    44   44   18 1
    45   45   18 1
    46   46   20 1
    47   47   21 1
    48   48   23 1
    49   49   24 1
    50   50   26 1
    51   51   26 1
    52   52   26 1
    53    5    9 1
    54   15   16 ar
    55   23   24 ar
@<TRIPOS>SUBSTRUCTURE
     1 RES1 1

@<TRIPOS>CRYSIN
   7.5210   10.8720   22.9010  90.0000  90.0000  90.0000  19 1

