# MOL2 file generated by ConQuest
# Please check atom types

@<TRIPOS>MOLECULE
HABPIJ
    49    50     1
SMALL
NO_CHARGES
****
Generated from CSD

@<TRIPOS>ATOM
      1 N1         5.5922    9.1071   -0.0991 N.3       1 RES1    0.0000
      2 C1         6.7968    9.6961    0.2196 C.2       1 RES1    0.0000
      3 C2         6.9069   11.0421    0.2127 C.2       1 RES1    0.0000
      4 C3         5.7453   11.9273   -0.2104 C.3       1 RES1    0.0000
      5 C4         4.4295   11.1490   -0.2058 C.2       1 RES1    0.0000
      6 C5         4.4008    9.8015   -0.2104 C.2       1 RES1    0.0000
      7 C6         5.9918   12.5454   -1.5812 C.ar      1 RES1    0.0000
      8 C7         6.0013   13.9173   -1.7573 C.ar      1 RES1    0.0000
      9 C8         6.2310   14.4317   -3.0191 C.ar      1 RES1    0.0000
     10 C9         6.4403   13.6358   -4.1307 C.ar      1 RES1    0.0000
     11 C10        6.4284   12.2720   -3.9416 C.ar      1 RES1    0.0000
     12 C11        6.2178   11.7344   -2.6882 C.ar      1 RES1    0.0000
     13 N2         6.2765   15.8896   -3.1823 N.pl3     1 RES1    0.0000
     14 O1         6.7394   16.3521   -4.2206 O.2       1 RES1    0.0000
     15 O2         5.8506   16.5884   -2.2834 O.2       1 RES1    0.0000
     16 C12        8.1653   11.6995    0.5535 C.2       1 RES1    0.0000
     17 O3         9.2227   11.1919    0.8127 O.2       1 RES1    0.0000
     18 O4         8.0145   13.0365    0.5680 O.3       1 RES1    0.0000
     19 C13        9.1749   13.8178    0.8928 C.3       1 RES1    0.0000
     20 C14        8.8375   15.2422    0.5748 C.3       1 RES1    0.0000
     21 O5         8.6246   15.4422   -0.8303 O.3       1 RES1    0.0000
     22 N3         9.7765   15.6497   -1.5675 N.pl3     1 RES1    0.0000
     23 O6        10.8412   15.5853   -1.0033 O.2       1 RES1    0.0000
     24 O7         9.5624   15.8760   -2.7225 O.2       1 RES1    0.0000
     25 C15        3.2596   12.0356   -0.1944 C.2       1 RES1    0.0000
     26 O8         3.3565   13.2212   -0.0457 O.2       1 RES1    0.0000
     27 O9         2.0646   11.4596   -0.3644 O.3       1 RES1    0.0000
     28 C16        0.9438   12.3661   -0.3560 C.3       1 RES1    0.0000
     29 C17        3.2034    8.9002   -0.3011 C.3       1 RES1    0.0000
     30 C18        7.8686    8.7203    0.5848 C.3       1 RES1    0.0000
     31 H1         5.4822    8.3099   -0.0724 H         1 RES1    0.0000
     32 H2         5.7101   12.5418    0.4565 H         1 RES1    0.0000
     33 H3         5.8669   14.5233   -1.0276 H         1 RES1    0.0000
     34 H4         6.5970   13.9366   -5.0290 H         1 RES1    0.0000
     35 H5         6.5262   11.7505   -4.6442 H         1 RES1    0.0000
     36 H6         6.2750   10.8348   -2.5216 H         1 RES1    0.0000
     37 H7        10.0147   13.5302    0.3929 H         1 RES1    0.0000
     38 H8         9.4769   13.6678    1.8641 H         1 RES1    0.0000
     39 H9         7.8593   15.5106    0.9178 H         1 RES1    0.0000
     40 H10        9.5319   15.8986    0.9492 H         1 RES1    0.0000
     41 H11        0.7834   12.7098    0.4823 H         1 RES1    0.0000
     42 H12        0.2270   11.8104   -0.5608 H         1 RES1    0.0000
     43 H13        1.1199   13.1122   -1.0283 H         1 RES1    0.0000
     44 H14        2.4373    9.2359   -0.9592 H         1 RES1    0.0000
     45 H15        2.8421    8.7517    0.5391 H         1 RES1    0.0000
     46 H16        3.4928    8.0005   -0.5821 H         1 RES1    0.0000
     47 H17        8.5813    8.8694    0.0208 H         1 RES1    0.0000
     48 H18        7.5819    7.7981    0.3396 H         1 RES1    0.0000
     49 H19        8.1898    8.8673    1.5292 H         1 RES1    0.0000
@<TRIPOS>BOND
     1    1    2 1
     2    2    3 2
     3    3    4 1
     4    4    5 1
     5    5    6 2
     6    6    1 1
     7    7    4 1
     8    8    7 ar
     9    9    8 ar
    10   10    9 ar
    11   11   10 ar
    12   12    7 ar
    13   13    9 1
    14   14   13 2
    15   15   13 2
    16   16    3 1
    17   17   16 2
    18   18   16 1
    19   19   18 1
    20   20   19 1
    21   21   20 1
    22   22   21 1
    23   23   22 2
    24   24   22 2
    25   25    5 1
    26   26   25 2
    27   27   25 1
    28   28   27 1
    29   29    6 1
    30   30    2 1
    31   31    1 1
    32   32    4 1
    33   33    8 1
    34   34   10 1
    35   35   11 1
    36   36   12 1
    37   37   19 1
    38   38   19 1
    39   39   20 1
    40   40   20 1
    41   41   28 1
    42   42   28 1
    43   43   28 1
    44   44   29 1
    45   45   29 1
    46   46   29 1
    47   47   30 1
    48   48   30 1
    49   49   30 1
    50   11   12 ar
@<TRIPOS>SUBSTRUCTURE
     1 RES1 1

@<TRIPOS>CRYSIN
  11.9620   20.9170    7.6240  90.0000  90.0000  90.0000  19 1

