# MOL2 file generated by ConQuest
# Please check atom types

@<TRIPOS>MOLECULE
HABTEJ
    12    11     1
SMALL
NO_CHARGES
****
Generated from CSD

@<TRIPOS>ATOM
      1 O1         1.4711    0.5148    8.1448 O.3       1 RES1    0.0000
      2 O2        -0.9674    0.7881    5.6524 O.2       1 RES1    0.0000
      3 N1         0.2050    0.8256    7.5810 N.am      1 RES1    0.0000
      4 N2         1.3089    0.8412    5.5398 N.am      1 RES1    0.0000
      5 C1         0.1590    0.7973    6.2083 C.2       1 RES1    0.0000
      6 C2         1.3584    0.8398    4.0874 C.3       1 RES1    0.0000
      7 H1        -0.4075    0.3611    7.9755 H         1 RES1    0.0000
      8 H2         2.0100    0.7577    5.9888 H         1 RES1    0.0000
      9 H3         1.7316    1.2109    8.5134 H         1 RES1    0.0000
     10 H4         2.1574    0.9134    3.8300 H         1 RES1    0.0000
     11 H5         0.9724    0.1558    3.6865 H         1 RES1    0.0000
     12 H6         0.9531    1.6215    3.7009 H         1 RES1    0.0000
@<TRIPOS>BOND
     1    1    3 1
     2    2    5 2
     3    3    5 1
     4    4    5 1
     5    6    4 1
     6    7    3 1
     7    8    4 1
     8    9    1 1
     9   10    6 1
    10   11    6 1
    11   12    6 1
@<TRIPOS>SUBSTRUCTURE
     1 RES1 1

@<TRIPOS>CRYSIN
   8.2020    7.0810    7.3160  90.0000 101.3780  90.0000 231 1

