# MOL2 file generated by ConQuest
# Please check atom types

@<TRIPOS>MOLECULE
HABXOZ
    88    94     2
SMALL
NO_CHARGES
****
Generated from CSD

@<TRIPOS>ATOM
      1 O1         3.6864    8.1026    6.1745 O.2       1 RES1    0.0000
      2 O2         5.0808    9.7326    6.2030 O.2       1 RES1    0.0000
      3 O3         8.7124    8.4978   15.9670 O.2       1 RES1    0.0000
      4 O4         5.4335   13.0788   15.2774 O.2       2 RES2    0.0000
      5 O5         6.4977   11.2884   14.8529 O.2       2 RES2    0.0000
      6 O6         6.1391   12.1259    4.2392 O.2       2 RES2    0.0000
      7 N1         6.6389    5.3413   11.7202 N.pl3     1 RES1    0.0000
      8 H1         6.8217    4.7943   11.0360 H         1 RES1    0.0000
      9 N2         4.5937    8.7273    6.6963 N.pl3     1 RES1    0.0000
     10 N3         6.7309    7.7129   15.1680 N.am      1 RES1    0.0000
     11 N4         5.8347   15.0648    8.7599 N.pl3     2 RES2    0.0000
     12 H2         6.4523   15.5894    9.2267 H         2 RES2    0.0000
     13 N5         5.9438   12.3087   14.5090 N.pl3     2 RES2    0.0000
     14 N6         4.3856   12.6056    5.6195 N.am      2 RES2    0.0000
     15 C1         6.9712    6.7356   11.5038 C.3       1 RES1    0.0000
     16 H3         7.9539    6.8224   11.4201 H         1 RES1    0.0000
     17 C2         6.5058    7.5368   12.7168 C.3       1 RES1    0.0000
     18 H4         5.5405    7.4237   12.8370 H         1 RES1    0.0000
     19 H5         6.6876    8.4895   12.5736 H         1 RES1    0.0000
     20 C3         7.2393    7.0562   13.9668 C.3       1 RES1    0.0000
     21 H6         8.1927    7.3050   13.8699 H         1 RES1    0.0000
     22 C4         7.1673    5.5459   14.0858 C.ar      1 RES1    0.0000
     23 C5         6.8784    4.7646   12.9604 C.ar      1 RES1    0.0000
     24 C6         7.4004    4.9011   15.2911 C.ar      1 RES1    0.0000
     25 H7         7.6023    5.4157   16.0507 H         1 RES1    0.0000
     26 C7         7.3457    3.5302   15.4083 C.ar      1 RES1    0.0000
     27 H8         7.5163    3.1163   16.2351 H         1 RES1    0.0000
     28 C8         7.0377    2.7736   14.3008 C.ar      1 RES1    0.0000
     29 H9         6.9853    1.8377   14.3718 H         1 RES1    0.0000
     30 C9         6.8054    3.3820   13.0942 C.ar      1 RES1    0.0000
     31 H10        6.5932    2.8554   12.3448 H         1 RES1    0.0000
     32 C10        6.3248    7.2437   10.2376 C.ar      1 RES1    0.0000
     33 C11        5.1478    6.6995    9.7544 C.ar      1 RES1    0.0000
     34 H11        4.7389    5.9917   10.2194 H         1 RES1    0.0000
     35 C12        4.5631    7.1839    8.5941 C.ar      1 RES1    0.0000
     36 H12        3.7654    6.8117    8.2659 H         1 RES1    0.0000
     37 C13        5.1774    8.2193    7.9359 C.ar      1 RES1    0.0000
     38 C14        6.3340    8.8039    8.4018 C.ar      1 RES1    0.0000
     39 H13        6.7239    9.5268    7.9443 H         1 RES1    0.0000
     40 C15        6.9105    8.3089    9.5541 C.ar      1 RES1    0.0000
     41 H14        7.7038    8.6933    9.8811 H         1 RES1    0.0000
     42 C16        7.4977    8.3708   16.0466 C.2       1 RES1    0.0000
     43 C17        6.6028    8.9085   17.1363 C.3       1 RES1    0.0000
     44 H15        6.4408    9.8679   17.0143 H         1 RES1    0.0000
     45 H16        7.0011    8.7620   18.0195 H         1 RES1    0.0000
     46 C18        5.3174    8.1185   16.9835 C.3       1 RES1    0.0000
     47 H17        5.3100    7.3429   17.5814 H         1 RES1    0.0000
     48 H18        4.5379    8.6792   17.1793 H         1 RES1    0.0000
     49 C19        5.3224    7.6833   15.5342 C.3       1 RES1    0.0000
     50 H19        4.9519    6.7814   15.4366 H         1 RES1    0.0000
     51 H20        4.8024    8.3027   14.9804 H         1 RES1    0.0000
     52 C20        5.9718   13.6245    8.9189 C.3       2 RES2    0.0000
     53 H21        6.8678   13.3641    8.5876 H         2 RES2    0.0000
     54 C21        4.9221   12.9145    8.0535 C.3       2 RES2    0.0000
     55 H22        5.0080   11.9430    8.1453 H         2 RES2    0.0000
     56 H23        4.0201   13.1749    8.3325 H         2 RES2    0.0000
     57 C22        5.1723   13.3356    6.6029 C.3       2 RES2    0.0000
     58 H24        6.1195   13.1218    6.4123 H         2 RES2    0.0000
     59 C23        5.0426   14.8359    6.4672 C.ar      2 RES2    0.0000
     60 C24        5.4756   15.6282    7.5407 C.ar      2 RES2    0.0000
     61 C25        4.5895   15.4613    5.3150 C.ar      2 RES2    0.0000
     62 H25        4.2772   14.9351    4.6016 H         2 RES2    0.0000
     63 C26        4.5859   16.8402    5.1891 C.ar      2 RES2    0.0000
     64 H26        4.2568   17.2449    4.4075 H         2 RES2    0.0000
     65 C27        5.0712   17.6135    6.2270 C.ar      2 RES2    0.0000
     66 H27        5.0974   18.5494    6.1405 H         2 RES2    0.0000
     67 C28        5.5185   17.0204    7.3887 C.ar      2 RES2    0.0000
     68 H28        5.8555   17.5551    8.0857 H         2 RES2    0.0000
     69 C29        5.8948   13.2621   10.3937 C.ar      2 RES2    0.0000
     70 C30        5.1101   13.9752   11.2811 C.ar      2 RES2    0.0000
     71 H29        4.5678   14.6749   10.9667 H         2 RES2    0.0000
     72 C31        5.1179   13.6626   12.6389 C.ar      2 RES2    0.0000
     73 H30        4.5883   14.1439   13.2474 H         2 RES2    0.0000
     74 C32        5.9209   12.6309   13.0649 C.ar      2 RES2    0.0000
     75 C33        6.6834   11.8904   12.2117 C.ar      2 RES2    0.0000
     76 H31        7.2052   11.1768   12.5292 H         2 RES2    0.0000
     77 C34        6.6704   12.2150   10.8746 C.ar      2 RES2    0.0000
     78 H32        7.1962   11.7175   10.2749 H         2 RES2    0.0000
     79 C35        4.9420   12.0473    4.5352 C.2       2 RES2    0.0000
     80 C36        3.8736   11.3350    3.7507 C.3       2 RES2    0.0000
     81 H33        4.0449   10.3705    3.7281 H         2 RES2    0.0000
     82 H34        3.8361   11.6713    2.8311 H         2 RES2    0.0000
     83 C37        2.5902   11.6322    4.4796 C.3       2 RES2    0.0000
     84 H35        1.9972   12.1716    3.9167 H         2 RES2    0.0000
     85 H36        2.1297   10.7988    4.7097 H         2 RES2    0.0000
     86 C38        2.9509   12.3885    5.7275 C.3       2 RES2    0.0000
     87 H37        2.4714   13.2410    5.7690 H         2 RES2    0.0000
     88 H38        2.7369   11.8636    6.5273 H         2 RES2    0.0000
@<TRIPOS>BOND
     1    1    9 2
     2    2    9 2
     3    3   42 2
     4    4   13 2
     5    5   13 2
     6    6   79 2
     7    7    8 1
     8    9   37 1
     9   10   20 1
    10   11   12 1
    11   13   74 1
    12   14   57 1
    13   15    7 1
    14   16   15 1
    15   17   15 1
    16   18   17 1
    17   19   17 1
    18   20   17 1
    19   21   20 1
    20   22   20 1
    21   23    7 1
    22   24   22 ar
    23   25   24 1
    24   26   24 ar
    25   27   26 1
    26   28   26 ar
    27   29   28 1
    28   30   23 ar
    29   31   30 1
    30   32   15 1
    31   33   32 ar
    32   34   33 1
    33   35   33 ar
    34   36   35 1
    35   37   35 ar
    36   38   37 ar
    37   39   38 1
    38   40   32 ar
    39   41   40 1
    40   42   10 1
    41   43   42 1
    42   44   43 1
    43   45   43 1
    44   46   43 1
    45   47   46 1
    46   48   46 1
    47   49   10 1
    48   50   49 1
    49   51   49 1
    50   52   11 1
    51   53   52 1
    52   54   52 1
    53   55   54 1
    54   56   54 1
    55   57   54 1
    56   58   57 1
    57   59   57 1
    58   60   11 1
    59   61   59 ar
    60   62   61 1
    61   63   61 ar
    62   64   63 1
    63   65   63 ar
    64   66   65 1
    65   67   60 ar
    66   68   67 1
    67   69   52 1
    68   70   69 ar
    69   71   70 1
    70   72   70 ar
    71   73   72 1
    72   74   72 ar
    73   75   74 ar
    74   76   75 1
    75   77   69 ar
    76   78   77 1
    77   79   14 1
    78   80   79 1
    79   81   80 1
    80   82   80 1
    81   83   80 1
    82   84   83 1
    83   85   83 1
    84   86   14 1
    85   87   86 1
    86   88   86 1
    87   22   23 ar
    88   28   30 ar
    89   38   40 ar
    90   46   49 1
    91   59   60 ar
    92   65   67 ar
    93   75   77 ar
    94   83   86 1
@<TRIPOS>SUBSTRUCTURE
     1 RES1 1
     2 RES2 4

@<TRIPOS>CRYSIN
   9.0504   13.3070   14.6319  80.1350  73.9150  87.4960   2 1

