# MOL2 file generated by ConQuest
# Please check atom types

@<TRIPOS>MOLECULE
HABXOX
    46    47     1
SMALL
USER_CHARGES
****
Generated from CSD

@<TRIPOS>ATOM
      1 N1        -0.1168    1.8004    3.0193 N.pl3     1 RES1    1.0000
      2 O1         0.4161    0.6723    2.6446 O.2       1 RES1   -1.0000
      3 C1        -1.0136    2.4917    2.3748 C.2       1 RES1    0.0000
      4 C2        -1.4008    3.7271    3.1146 C.3       1 RES1    0.0000
      5 C3        -0.2633    3.8675    4.1356 C.3       1 RES1    0.0000
      6 C4         0.3166    2.4557    4.3075 C.3       1 RES1    0.0000
      7 C5        -0.3314    1.6771    5.4922 C.2       1 RES1    0.0000
      8 O2        -0.9633    2.2906    6.3201 O.2       1 RES1    0.0000
      9 C6        -0.1362    0.1775    5.5832 C.3       1 RES1    0.0000
     10 C7        -0.3356   -0.3778    6.9992 C.3       1 RES1    0.0000
     11 C8         0.7207    0.0922    8.0012 C.3       1 RES1    0.0000
     12 C9         2.1185   -0.4675    7.7413 C.3       1 RES1    0.0000
     13 C10        3.2270    0.2454    8.5212 C.3       1 RES1    0.0000
     14 C11        3.5130    1.6672    8.0218 C.3       1 RES1    0.0000
     15 C12        4.0991    1.7112    6.6022 C.3       1 RES1    0.0000
     16 C13        3.8489    3.0246    5.8594 C.3       1 RES1    0.0000
     17 C14        2.3749    3.2916    5.5408 C.3       1 RES1    0.0000
     18 C15        1.8434    2.4144    4.4009 C.3       1 RES1    0.0000
     19 C16       -1.4635    2.1057    1.0114 C.2       1 RES1    0.0000
     20 O3        -0.9993    0.9467    0.5535 O.3       1 RES1    0.0000
     21 O4        -2.1760    2.8344    0.3686 O.2       1 RES1    0.0000
     22 H1        -1.4481    4.4950    2.4858 H         1 RES1    0.0000
     23 H2        -2.2727    3.6186    3.5207 H         1 RES1    0.0000
     24 H3        -0.5508    4.2571    4.9717 H         1 RES1    0.0000
     25 H4         0.4385    4.4450    3.7661 H         1 RES1    0.0000
     26 H5         0.7307   -0.0626    5.2171 H         1 RES1    0.0000
     27 H6        -0.7670   -0.2254    4.9823 H         1 RES1    0.0000
     28 H7        -0.3018   -1.3898    6.9241 H         1 RES1    0.0000
     29 H8        -1.2280   -0.1377    7.3082 H         1 RES1    0.0000
     30 H9         0.7268    1.1269    7.9910 H         1 RES1    0.0000
     31 H10        0.4114   -0.1628    8.9191 H         1 RES1    0.0000
     32 H11        2.1390   -1.4524    7.9483 H         1 RES1    0.0000
     33 H12        2.3200   -0.4132    6.7534 H         1 RES1    0.0000
     34 H13        4.0422   -0.2880    8.4711 H         1 RES1    0.0000
     35 H14        2.9800    0.2880    9.4846 H         1 RES1    0.0000
     36 H15        2.6796    2.2024    8.0550 H         1 RES1    0.0000
     37 H16        4.1416    2.1286    8.6524 H         1 RES1    0.0000
     38 H17        3.7159    0.9516    6.0706 H         1 RES1    0.0000
     39 H18        5.0358    1.5401    6.6894 H         1 RES1    0.0000
     40 H19        4.1947    3.7813    6.4013 H         1 RES1    0.0000
     41 H20        4.3770    3.0301    5.0250 H         1 RES1    0.0000
     42 H21        1.8238    3.1240    6.3800 H         1 RES1    0.0000
     43 H22        2.2319    4.2446    5.3237 H         1 RES1    0.0000
     44 H23        2.1315    1.4900    4.4916 H         1 RES1    0.0000
     45 H24        2.1940    2.7171    3.5527 H         1 RES1    0.0000
     46 H25       -0.4237    0.6636    1.2162 H         1 RES1    0.0000
@<TRIPOS>BOND
     1    1    2 1
     2    3    1 2
     3    4    3 1
     4    5    4 1
     5    6    1 1
     6    7    6 1
     7    8    7 2
     8    9    7 1
     9   10    9 1
    10   11   10 1
    11   12   11 1
    12   13   12 1
    13   14   13 1
    14   15   14 1
    15   16   15 1
    16   17   16 1
    17   18    6 1
    18   19    3 1
    19   20   19 1
    20   21   19 2
    21   22    4 1
    22   23    4 1
    23   24    5 1
    24   25    5 1
    25   26    9 1
    26   27    9 1
    27   28   10 1
    28   29   10 1
    29   30   11 1
    30   31   11 1
    31   32   12 1
    32   33   12 1
    33   34   13 1
    34   35   13 1
    35   36   14 1
    36   37   14 1
    37   38   15 1
    38   39   15 1
    39   40   16 1
    40   41   16 1
    41   42   17 1
    42   43   17 1
    43   44   18 1
    44   45   18 1
    45   46   20 1
    46    5    6 1
    47   17   18 1
@<TRIPOS>SUBSTRUCTURE
     1 RES1 1

@<TRIPOS>CRYSIN
  11.1689   12.5210   11.3976  90.0000 110.6000  90.0000  14 1

