# MOL2 file generated by ConQuest
# Please check atom types

@<TRIPOS>MOLECULE
HABXUD
    35    36     1
SMALL
NO_CHARGES
****
Generated from CSD

@<TRIPOS>ATOM
      1 C1         2.1653    7.5150    3.1729 C.3       1 RES1    0.0000
      2 O1         1.3108    8.6470    3.1943 O.3       1 RES1    0.0000
      3 C2         2.0237    6.9186    4.6108 C.3       1 RES1    0.0000
      4 N1         0.5816    6.5197    4.8408 N.pl3     1 RES1    0.0000
      5 O2        -0.1553    7.2942    5.4470 O.2       1 RES1    0.0000
      6 O3         0.2236    5.4251    4.4179 O.2       1 RES1    0.0000
      7 C3         2.4322    7.8946    5.7074 C.3       1 RES1    0.0000
      8 C4         3.9037    8.2401    5.4989 C.3       1 RES1    0.0000
      9 N2         4.3164    9.1784    6.6098 N.pl3     1 RES1    0.0000
     10 O4         4.5243    8.6687    7.7131 O.2       1 RES1    0.0000
     11 O5         4.3960   10.3763    6.3852 O.2       1 RES1    0.0000
     12 C5         4.1449    8.8745    4.1425 C.3       1 RES1    0.0000
     13 C6         3.6803    7.9077    3.0394 C.3       1 RES1    0.0000
     14 N3         3.9195    8.7104    1.7315 N.pl3     1 RES1    0.0000
     15 O6         2.9784    9.0616    1.0361 O.2       1 RES1    0.0000
     16 O7         5.0829    8.9674    1.4689 O.2       1 RES1    0.0000
     17 C7         4.5812    6.6678    2.9266 C.3       1 RES1    0.0000
     18 C8         4.1495    5.7390    1.7902 C.3       1 RES1    0.0000
     19 C9         2.6899    5.3159    1.9472 C.3       1 RES1    0.0000
     20 C10        1.7584    6.5219    2.0696 C.3       1 RES1    0.0000
     21 H1         1.2387    8.9358    2.4141 H         1 RES1    0.0000
     22 H2         2.4798    6.0810    4.6816 H         1 RES1    0.0000
     23 H3         1.9044    8.7054    5.6552 H         1 RES1    0.0000
     24 H4         2.3003    7.4892    6.6022 H         1 RES1    0.0000
     25 H5         4.4767    7.5148    5.6552 H         1 RES1    0.0000
     26 H6         5.0789    9.0510    4.0414 H         1 RES1    0.0000
     27 H7         3.6751    9.6783    4.0814 H         1 RES1    0.0000
     28 H8         4.5600    6.1834    3.7746 H         1 RES1    0.0000
     29 H9         5.5000    7.0027    2.8276 H         1 RES1    0.0000
     30 H10        4.3103    6.1962    0.9336 H         1 RES1    0.0000
     31 H11        4.7381    4.9288    1.7473 H         1 RES1    0.0000
     32 H12        2.3989    4.7495    1.2004 H         1 RES1    0.0000
     33 H13        2.6633    4.7367    2.7209 H         1 RES1    0.0000
     34 H14        0.8165    6.2346    2.2007 H         1 RES1    0.0000
     35 H15        1.7565    7.0283    1.2538 H         1 RES1    0.0000
@<TRIPOS>BOND
     1    1    2 1
     2    2   21 1
     3    3    1 1
     4    4    3 1
     5    5    4 2
     6    6    4 2
     7    7    3 1
     8    8    7 1
     9    9    8 1
    10   10    9 2
    11   11    9 2
    12   12    8 1
    13   13    1 1
    14   14   13 1
    15   15   14 2
    16   16   14 2
    17   17   13 1
    18   18   17 1
    19   19   18 1
    20   20    1 1
    21   22    3 1
    22   23    7 1
    23   24    7 1
    24   25    8 1
    25   26   12 1
    26   27   12 1
    27   28   17 1
    28   29   17 1
    29   30   18 1
    30   31   18 1
    31   32   19 1
    32   33   19 1
    33   34   20 1
    34   35   20 1
    35   12   13 1
    36   19   20 1
@<TRIPOS>SUBSTRUCTURE
     1 RES1 1

@<TRIPOS>CRYSIN
   7.1060   12.8020   14.6390  90.0000 114.3400  90.0000  14 1

