# MOL2 file generated by ConQuest
# Please check atom types

@<TRIPOS>MOLECULE
HABYIS
    64    65     1
SMALL
NO_CHARGES
****
Generated from CSD

@<TRIPOS>ATOM
      1 C1         3.5136    6.4626   13.3234 C.2       1 RES1    0.0000
      2 O1         2.4210    6.8542   13.6367 O.2       1 RES1    0.0000
      3 C2         4.4330    7.3577   12.4416 C.3       1 RES1    0.0000
      4 C3         5.4804    7.9884   13.4057 C.3       1 RES1    0.0000
      5 C4         4.9232    9.0045   14.4070 C.3       1 RES1    0.0000
      6 C5         6.0055    9.5246   15.3614 C.3       1 RES1    0.0000
      7 C6         6.5501    8.4684   16.3318 C.3       1 RES1    0.0000
      8 C7         5.5437    7.9991   17.3833 C.3       1 RES1    0.0000
      9 C8         5.6829    6.5210   17.7802 C.3       1 RES1    0.0000
     10 C9         5.3099    5.5408   16.6617 C.3       1 RES1    0.0000
     11 C10        3.8382    5.5470   16.2965 C.3       1 RES1    0.0000
     12 C11        3.4738    4.6493   15.1162 C.3       1 RES1    0.0000
     13 C12        4.0762    5.1325   13.7930 C.3       1 RES1    0.0000
     14 C13        5.1570    6.4734   11.4970 C.1       1 RES1    0.0000
     15 N1         5.7076    5.8113   10.7445 N.1       1 RES1    0.0000
     16 C14        3.6343    8.4016   11.6081 C.3       1 RES1    0.0000
     17 C15        4.6164    9.3670   10.9382 C.3       1 RES1    0.0000
     18 C16        3.9811   10.4075   10.0715 C.2       1 RES1    0.0000
     19 N2         4.6256   10.7972    9.0422 N.2       1 RES1    0.0000
     20 N3         4.0665   11.8400    8.3266 N.3       1 RES1    0.0000
     21 C17        4.7092   12.2642    7.2120 C.ar      1 RES1    0.0000
     22 C18        4.2587   13.3249    6.3787 C.ar      1 RES1    0.0000
     23 N4         3.0688   14.0832    6.6834 N.pl3     1 RES1    0.0000
     24 O2         2.4451   13.8118    7.7259 O.2       1 RES1    0.0000
     25 O3         2.7034   14.9748    5.9143 O.2       1 RES1    0.0000
     26 C19        4.9711   13.7335    5.2503 C.ar      1 RES1    0.0000
     27 C20        6.1491   13.1046    4.9445 C.ar      1 RES1    0.0000
     28 N5         6.9453   13.5766    3.8147 N.pl3     1 RES1    0.0000
     29 O4         6.5842   14.5972    3.2364 O.2       1 RES1    0.0000
     30 O5         7.9591   12.9429    3.5220 O.2       1 RES1    0.0000
     31 C21        6.6238   12.0397    5.7226 C.ar      1 RES1    0.0000
     32 C22        5.9220   11.6312    6.8233 C.ar      1 RES1    0.0000
     33 C23        2.7248    7.7340   10.5732 C.3       1 RES1    0.0000
     34 H1         5.9431    7.2935   13.8495 H         1 RES1    0.0000
     35 H2         6.1526    8.4115   12.8615 H         1 RES1    0.0000
     36 H3         4.1588    8.5766   14.9257 H         1 RES1    0.0000
     37 H4         4.4944    9.7462   13.9200 H         1 RES1    0.0000
     38 H5         6.7519    9.8924   14.8198 H         1 RES1    0.0000
     39 H6         5.6109   10.2592   15.8960 H         1 RES1    0.0000
     40 H7         6.9369    7.6947   15.8254 H         1 RES1    0.0000
     41 H8         7.3600    8.8689   16.7252 H         1 RES1    0.0000
     42 H9         4.5918    8.1620   17.0428 H         1 RES1    0.0000
     43 H10        5.6168    8.5441   18.1366 H         1 RES1    0.0000
     44 H11        5.0511    6.3426   18.5600 H         1 RES1    0.0000
     45 H12        6.6391    6.3554   18.0484 H         1 RES1    0.0000
     46 H13        5.8967    5.7588   15.8607 H         1 RES1    0.0000
     47 H14        5.5609    4.6701   16.9722 H         1 RES1    0.0000
     48 H15        3.5194    6.4319   16.1077 H         1 RES1    0.0000
     49 H16        3.3086    5.2637   17.0251 H         1 RES1    0.0000
     50 H17        2.4898    4.6278   15.0492 H         1 RES1    0.0000
     51 H18        3.7564    3.7436   15.2785 H         1 RES1    0.0000
     52 H19        5.0357    5.2040   13.8495 H         1 RES1    0.0000
     53 H20        3.8310    4.5130   13.0555 H         1 RES1    0.0000
     54 H21        3.0948    8.8657   12.2793 H         1 RES1    0.0000
     55 H22        5.1201    9.8731   11.6265 H         1 RES1    0.0000
     56 H23        5.2576    8.8849   10.4268 H         1 RES1    0.0000
     57 H24        3.1572   10.7664   10.3033 H         1 RES1    0.0000
     58 H25        3.3107   12.2144    8.5390 H         1 RES1    0.0000
     59 H26        4.6169   14.4023    4.7106 H         1 RES1    0.0000
     60 H27        7.4318   11.6363    5.4869 H         1 RES1    0.0000
     61 H28        6.2548   10.8950    7.3570 H         1 RES1    0.0000
     62 H29        3.2295    7.2844    9.8975 H         1 RES1    0.0000
     63 H30        2.1742    8.3962   10.1092 H         1 RES1    0.0000
     64 H31        2.0941    7.1009   11.0090 H         1 RES1    0.0000
@<TRIPOS>BOND
     1    1    2 2
     2    3    1 1
     3    4    3 1
     4    5    4 1
     5    6    5 1
     6    7    6 1
     7    8    7 1
     8    9    8 1
     9   10    9 1
    10   11   10 1
    11   12   11 1
    12   13    1 1
    13   14    3 1
    14   15   14 3
    15   16    3 1
    16   17   16 1
    17   18   17 1
    18   19   18 2
    19   20   19 1
    20   21   20 1
    21   22   21 ar
    22   23   22 1
    23   24   23 2
    24   25   23 2
    25   26   22 ar
    26   27   26 ar
    27   28   27 1
    28   29   28 2
    29   30   28 2
    30   31   27 ar
    31   32   21 ar
    32   33   16 1
    33   34    4 1
    34   35    4 1
    35   36    5 1
    36   37    5 1
    37   38    6 1
    38   39    6 1
    39   40    7 1
    40   41    7 1
    41   42    8 1
    42   43    8 1
    43   44    9 1
    44   45    9 1
    45   46   10 1
    46   47   10 1
    47   48   11 1
    48   49   11 1
    49   50   12 1
    50   51   12 1
    51   52   13 1
    52   53   13 1
    53   54   16 1
    54   55   17 1
    55   56   17 1
    56   57   18 1
    57   58   20 1
    58   59   26 1
    59   60   31 1
    60   61   32 1
    61   62   33 1
    62   63   33 1
    63   64   33 1
    64   12   13 1
    65   31   32 ar
@<TRIPOS>SUBSTRUCTURE
     1 RES1 1

@<TRIPOS>CRYSIN
   5.9444   11.2850   18.1420  76.5260  88.0270  81.9620   2 1

