# MOL2 file generated by ConQuest
# Please check atom types

@<TRIPOS>MOLECULE
HABYUE
    39    39     1
SMALL
NO_CHARGES
****
Generated from CSD

@<TRIPOS>ATOM
      1 C1         1.1816    1.1474    5.3759 C.2       1 RES1    0.0000
      2 O1         1.5023    0.9413    6.5135 O.2       1 RES1    0.0000
      3 C2        -0.0752    1.9726    5.0502 C.3       1 RES1    0.0000
      4 N1        -0.9044    2.0131    6.3108 N.pl3     1 RES1    0.0000
      5 O2        -0.7299    2.9265    7.1010 O.2       1 RES1    0.0000
      6 O3        -1.6992    1.1141    6.5055 O.2       1 RES1    0.0000
      7 C3         0.2533    3.3845    4.5264 C.3       1 RES1    0.0000
      8 C4         1.2197    4.2448    5.3565 C.3       1 RES1    0.0000
      9 C5         1.7578    5.4525    4.5731 C.3       1 RES1    0.0000
     10 C6         2.8178    5.0340    3.5619 C.3       1 RES1    0.0000
     11 N2         2.9193    6.1067    2.4699 N.pl3     1 RES1    0.0000
     12 O4         4.0157    6.4793    2.0987 O.2       1 RES1    0.0000
     13 O5         1.8754    6.5054    1.9734 O.2       1 RES1    0.0000
     14 C7         4.1784    4.7578    4.1802 C.3       1 RES1    0.0000
     15 C8         5.0501    3.7517    3.4207 C.3       1 RES1    0.0000
     16 C9         4.4553    2.3424    3.3091 C.3       1 RES1    0.0000
     17 C10        4.2684    1.5982    4.6300 C.3       1 RES1    0.0000
     18 C11        3.4227    0.3267    4.4865 C.3       1 RES1    0.0000
     19 C12        1.9459    0.6137    4.1871 C.3       1 RES1    0.0000
     20 H1        -0.5762    1.4758    4.4296 H         1 RES1    0.0000
     21 H2        -0.5926    3.8426    4.3841 H         1 RES1    0.0000
     22 H3         0.5931    3.2486    3.6667 H         1 RES1    0.0000
     23 H4         0.7475    4.6255    6.1377 H         1 RES1    0.0000
     24 H5         1.9774    3.7166    5.7050 H         1 RES1    0.0000
     25 H6         0.9743    5.8763    4.0880 H         1 RES1    0.0000
     26 H7         2.1518    6.1193    5.1926 H         1 RES1    0.0000
     27 H8         2.5147    4.2835    2.9948 H         1 RES1    0.0000
     28 H9         4.6173    5.5434    4.3613 H         1 RES1    0.0000
     29 H10        4.0234    4.3825    5.1242 H         1 RES1    0.0000
     30 H11        5.2093    4.1035    2.5621 H         1 RES1    0.0000
     31 H12        5.9149    3.6806    3.9172 H         1 RES1    0.0000
     32 H13        3.6350    2.4207    2.8923 H         1 RES1    0.0000
     33 H14        5.0470    1.8088    2.7101 H         1 RES1    0.0000
     34 H15        3.8383    2.1598    5.3178 H         1 RES1    0.0000
     35 H16        5.1355    1.3678    4.9990 H         1 RES1    0.0000
     36 H17        3.5032   -0.1980    5.2950 H         1 RES1    0.0000
     37 H18        3.7851   -0.2160    3.7236 H         1 RES1    0.0000
     38 H19        1.8496    1.1789    3.4162 H         1 RES1    0.0000
     39 H20        1.4553   -0.2160    3.9172 H         1 RES1    0.0000
@<TRIPOS>BOND
     1    1    2 2
     2    3    1 1
     3    4    3 1
     4    5    4 2
     5    6    4 2
     6    7    3 1
     7    8    7 1
     8    9    8 1
     9   10    9 1
    10   11   10 1
    11   12   11 2
    12   13   11 2
    13   14   10 1
    14   15   14 1
    15   16   15 1
    16   17   16 1
    17   18   17 1
    18   19    1 1
    19   20    3 1
    20   21    7 1
    21   22    7 1
    22   23    8 1
    23   24    8 1
    24   25    9 1
    25   26    9 1
    26   27   10 1
    27   28   14 1
    28   29   14 1
    29   30   15 1
    30   31   15 1
    31   32   16 1
    32   33   16 1
    33   34   17 1
    34   35   17 1
    35   36   18 1
    36   37   18 1
    37   38   19 1
    38   39   19 1
    39   18   19 1
@<TRIPOS>SUBSTRUCTURE
     1 RES1 1

@<TRIPOS>CRYSIN
  13.0780    8.9990   11.6420  90.0000 102.0100  90.0000  14 1

