# MOL2 file generated by ConQuest
# Please check atom types

@<TRIPOS>MOLECULE
HABYAK
    31    32     1
SMALL
USER_CHARGES
****
Generated from CSD

@<TRIPOS>ATOM
      1 N1         2.7504    3.8237    2.7465 N.pl3     1 RES1    1.0000
      2 O1         2.4980    4.8619    3.4893 O.2       1 RES1   -1.0000
      3 C1         2.1759    3.5195    1.6129 C.2       1 RES1    0.0000
      4 C2         2.7189    2.2620    1.0395 C.3       1 RES1    0.0000
      5 C3         4.0031    2.0529    1.8607 C.3       1 RES1    0.0000
      6 C4         3.7538    2.8033    3.1908 C.3       1 RES1    0.0000
      7 C5         3.0361    1.8526    4.1586 C.2       1 RES1    0.0000
      8 O2         1.8241    1.7937    4.1910 O.2       1 RES1    0.0000
      9 C6         3.8958    0.9868    5.0340 C.3       1 RES1    0.0000
     10 C7         4.1987    1.7062    6.3630 C.3       1 RES1    0.0000
     11 C8         5.2632    2.7875    6.2527 C.3       1 RES1    0.0000
     12 C9         4.9590    3.8928    5.2431 C.3       1 RES1    0.0000
     13 C10        5.0071    3.4656    3.7648 C.3       1 RES1    0.0000
     14 C11        1.1052    4.3726    1.0418 C.2       1 RES1    0.0000
     15 O3         0.8479    5.4912    1.7064 O.3       1 RES1    0.0000
     16 O4         0.5103    4.0329    0.0385 O.2       1 RES1    0.0000
     17 H1         2.0920    1.5275    1.2171 H         1 RES1    0.0000
     18 H2         2.9374    2.3894    0.0307 H         1 RES1    0.0000
     19 H3         4.1654    1.1408    2.0461 H         1 RES1    0.0000
     20 H4         4.7023    2.5225    1.3957 H         1 RES1    0.0000
     21 H5         3.4434    0.1901    5.1166 H         1 RES1    0.0000
     22 H6         4.7825    0.7225    4.5611 H         1 RES1    0.0000
     23 H7         3.3447    2.1232    6.6742 H         1 RES1    0.0000
     24 H8         4.4987    1.0458    6.9701 H         1 RES1    0.0000
     25 H9         6.1772    2.3260    6.0155 H         1 RES1    0.0000
     26 H10        5.4181    3.1627    7.1348 H         1 RES1    0.0000
     27 H11        5.6403    4.5824    5.3623 H         1 RES1    0.0000
     28 H12        4.0790    4.2211    5.4600 H         1 RES1    0.0000
     29 H13        5.7390    2.8331    3.6791 H         1 RES1    0.0000
     30 H14        5.1836    4.2465    3.2883 H         1 RES1    0.0000
     31 H15        1.4255    5.5014    2.4871 H         1 RES1    0.0000
@<TRIPOS>BOND
     1    1    2 1
     2    3    1 2
     3    4    3 1
     4    5    4 1
     5    6    1 1
     6    7    6 1
     7    8    7 2
     8    9    7 1
     9   10    9 1
    10   11   10 1
    11   12   11 1
    12   13    6 1
    13   14    3 1
    14   15   14 1
    15   16   14 2
    16   17    4 1
    17   18    4 1
    18   19    5 1
    19   20    5 1
    20   21    9 1
    21   22    9 1
    22   23   10 1
    23   24   10 1
    24   25   11 1
    25   26   11 1
    26   27   12 1
    27   28   12 1
    28   29   13 1
    29   30   13 1
    30   31   15 1
    31    5    6 1
    32   12   13 1
@<TRIPOS>SUBSTRUCTURE
     1 RES1 1

@<TRIPOS>CRYSIN
   6.1710    6.3380   27.9140  90.0000  90.0000  90.0000  19 1

