# MOL2 file generated by ConQuest
# Please check atom types

@<TRIPOS>MOLECULE
HABZUF
    48    48     1
SMALL
NO_CHARGES
****
Generated from CSD

@<TRIPOS>ATOM
      1 C1         6.2370    3.0695    4.7956 C.3       1 RES1    0.0000
      2 C2         5.2179    3.4480    5.9031 C.2       1 RES1    0.0000
      3 C3         5.6927    4.2369    7.0963 C.3       1 RES1    0.0000
      4 C4         4.8179    4.0753    8.3288 C.3       1 RES1    0.0000
      5 C5         4.8665    2.6886    8.9471 C.3       1 RES1    0.0000
      6 C6         6.1750    2.3608    9.6510 C.3       1 RES1    0.0000
      7 C7         6.3704    0.8832    9.9840 C.3       1 RES1    0.0000
      8 C8         6.4803   -0.0236    8.7732 C.3       1 RES1    0.0000
      9 C9         7.7168    0.1934    7.9102 C.3       1 RES1    0.0000
     10 C10        7.5205   -0.2323    6.4508 C.3       1 RES1    0.0000
     11 C11        6.6180    0.6910    5.6463 C.3       1 RES1    0.0000
     12 C12        7.2413    2.0436    5.3229 C.3       1 RES1    0.0000
     13 C13        5.5123    2.6438    3.5223 C.3       1 RES1    0.0000
     14 C14        6.4102    2.3207    2.3441 C.3       1 RES1    0.0000
     15 C15        5.6662    1.9563    1.1048 C.2       1 RES1    0.0000
     16 C16        6.4468    1.6096   -0.1074 C.3       1 RES1    0.0000
     17 N1         6.9681    4.3748    4.4613 N.pl3     1 RES1    0.0000
     18 O1         4.0735    3.0942    5.7876 O.2       1 RES1    0.0000
     19 O2         8.1727    4.4338    4.5320 O.2       1 RES1    0.0000
     20 O3         6.2717    5.3088    4.1039 O.2       1 RES1    0.0000
     21 O4         4.4596    1.9233    1.0926 O.2       1 RES1    0.0000
     22 H1         6.5817    3.9468    7.3150 H         1 RES1    0.0000
     23 H2         5.7101    5.1661    6.8571 H         1 RES1    0.0000
     24 H3         3.9097    4.2628    8.0815 H         1 RES1    0.0000
     25 H4         5.1073    4.7097    8.9892 H         1 RES1    0.0000
     26 H5         4.1554    2.6202    9.5885 H         1 RES1    0.0000
     27 H6         4.7303    2.0436    8.2486 H         1 RES1    0.0000
     28 H7         6.8974    2.6367    9.0830 H         1 RES1    0.0000
     29 H8         6.2063    2.8584   10.4718 H         1 RES1    0.0000
     30 H9         5.6209    0.5920   10.5085 H         1 RES1    0.0000
     31 H10        7.1755    0.7948   10.4990 H         1 RES1    0.0000
     32 H11        6.4898   -0.9327    9.0816 H         1 RES1    0.0000
     33 H12        5.7060    0.1203    8.2228 H         1 RES1    0.0000
     34 H13        7.9412    1.1261    7.9279 H         1 RES1    0.0000
     35 H14        8.4397   -0.3172    8.2812 H         1 RES1    0.0000
     36 H15        7.1361   -1.1108    6.4426 H         1 RES1    0.0000
     37 H16        8.3815   -0.2547    6.0254 H         1 RES1    0.0000
     38 H17        6.4003    0.2547    4.8201 H         1 RES1    0.0000
     39 H18        5.8149    0.8408    6.1505 H         1 RES1    0.0000
     40 H19        7.6399    2.3938    6.1233 H         1 RES1    0.0000
     41 H20        7.9206    1.9138    4.6584 H         1 RES1    0.0000
     42 H21        4.9268    3.3584    3.2614 H         1 RES1    0.0000
     43 H22        4.9940    1.8608    3.7234 H         1 RES1    0.0000
     44 H23        6.9747    1.5825    2.5874 H         1 RES1    0.0000
     45 H24        6.9521    3.0907    2.1566 H         1 RES1    0.0000
     46 H25        7.1619    2.1308   -0.2188 H         1 RES1    0.0000
     47 H26        5.9498    1.7582   -0.8738 H         1 RES1    0.0000
     48 H27        6.5691    0.8384   -0.0598 H         1 RES1    0.0000
@<TRIPOS>BOND
     1    1    2 1
     2    2    3 1
     3    3    4 1
     4    4    5 1
     5    5    6 1
     6    6    7 1
     7    7    8 1
     8    8    9 1
     9    9   10 1
    10   10   11 1
    11   11   12 1
    12   12    1 1
    13   13    1 1
    14   14   13 1
    15   15   14 1
    16   16   15 1
    17   17    1 1
    18   18    2 2
    19   19   17 2
    20   20   17 2
    21   21   15 2
    22   22    3 1
    23   23    3 1
    24   24    4 1
    25   25    4 1
    26   26    5 1
    27   27    5 1
    28   28    6 1
    29   29    6 1
    30   30    7 1
    31   31    7 1
    32   32    8 1
    33   33    8 1
    34   34    9 1
    35   35    9 1
    36   36   10 1
    37   37   10 1
    38   38   11 1
    39   39   11 1
    40   40   12 1
    41   41   12 1
    42   42   13 1
    43   43   13 1
    44   44   14 1
    45   45   14 1
    46   46   16 1
    47   47   16 1
    48   48   16 1
@<TRIPOS>SUBSTRUCTURE
     1 RES1 1

@<TRIPOS>CRYSIN
  10.2690   11.7920   13.6390  90.0000  94.9000  90.0000 231 1

