# MOL2 file generated by ConQuest
# Please check atom types

@<TRIPOS>MOLECULE
HABZOZ
    99    99     3
SMALL
NO_CHARGES
****
Generated from CSD

@<TRIPOS>ATOM
      1 C1        10.6060    0.6949    5.6903 C.3       1 RES1    0.0000
      2 C2        10.9182    2.0988    5.2812 C.2       1 RES1    0.0000
      3 C3        12.2566    2.6299    5.6673 C.3       1 RES1    0.0000
      4 C4        13.2935    2.4000    4.5297 C.3       1 RES1    0.0000
      5 C5        13.6387    0.9868    4.2529 C.3       1 RES1    0.0000
      6 C6        12.4777    0.0619    3.9737 C.3       1 RES1    0.0000
      7 C7        11.6589   -0.2828    5.2096 C.3       1 RES1    0.0000
      8 C8        10.3219    0.6182    7.1958 C.3       1 RES1    0.0000
      9 C9         9.9668   -0.7684    7.6936 C.3       1 RES1    0.0000
     10 C10        9.9050   -0.8895    9.1881 C.2       1 RES1    0.0000
     11 C11        9.4708   -2.2059    9.7223 C.3       1 RES1    0.0000
     12 N1         9.2741    0.3786    4.9316 N.pl3     1 RES1    0.0000
     13 O1        10.1370    2.7771    4.6038 O.2       1 RES1    0.0000
     14 O2        10.1763    0.0053    9.8886 O.2       1 RES1    0.0000
     15 O3         9.3611   -0.0626    3.8073 O.2       1 RES1    0.0000
     16 O4         8.2230    0.6479    5.4949 O.2       1 RES1    0.0000
     17 C12        4.0391    7.7255    3.0801 C.3       2 RES2    0.0000
     18 C13        3.3783    8.4040    4.2541 C.2       2 RES2    0.0000
     19 C14        1.9284    8.7477    4.1011 C.3       2 RES2    0.0000
     20 C15        1.0516    7.6739    4.6924 C.3       2 RES2    0.0000
     21 C16        1.0774    6.3611    3.9688 C.3       2 RES2    0.0000
     22 C17        2.4369    5.7722    3.6738 C.3       2 RES2    0.0000
     23 C18        3.2766    6.4829    2.6637 C.3       2 RES2    0.0000
     24 C19        4.2973    8.7199    1.9194 C.3       2 RES2    0.0000
     25 C20        5.0239    8.1728    0.7673 C.3       2 RES2    0.0000
     26 C21        5.2399    9.1507   -0.3691 C.2       2 RES2    0.0000
     27 C22        5.7112   10.5231   -0.0886 C.3       2 RES2    0.0000
     28 N2         5.4339    7.3256    3.6204 N.pl3     2 RES2    0.0000
     29 O5         3.9874    8.5954    5.3043 O.2       2 RES2    0.0000
     30 O6         5.0563    8.8035   -1.4909 O.2       2 RES2    0.0000
     31 O7         5.5517    6.2115    4.0902 O.2       2 RES2    0.0000
     32 O8         6.3188    8.1326    3.6167 O.2       2 RES2    0.0000
     33 C23        6.8477    2.5537    1.5152 C.3       3 RES3    0.0000
     34 C24        5.9889    1.3285    1.2784 C.2       3 RES3    0.0000
     35 C25        6.0259    0.2487    2.3322 C.3       3 RES3    0.0000
     36 C26        4.8723    0.4439    3.3108 C.3       3 RES3    0.0000
     37 C27        4.9873    1.6222    4.1970 C.3       3 RES3    0.0000
     38 C28        5.1891    2.9548    3.4832 C.3       3 RES3    0.0000
     39 C29        6.5843    3.1502    2.8919 C.3       3 RES3    0.0000
     40 C30        8.3213    2.2513    1.2481 C.3       3 RES3    0.0000
     41 C31        9.2150    3.4732    1.3695 C.3       3 RES3    0.0000
     42 C32       10.7037    3.1967    1.2189 C.2       3 RES3    0.0000
     43 C33       11.5959    4.3630    1.2286 C.3       3 RES3    0.0000
     44 N3         6.3827    3.5515    0.4164 N.pl3     3 RES3    0.0000
     45 O9         5.2508    1.2083    0.3387 O.2       3 RES3    0.0000
     46 O10       11.0904    2.0694    1.0805 O.2       3 RES3    0.0000
     47 O11        5.6049    4.4243    0.7224 O.2       3 RES3    0.0000
     48 O12        6.8170    3.3819   -0.6920 O.2       3 RES3    0.0000
     49 H1        12.1840    3.5709    5.8409 H         1 RES1    0.0000
     50 H2        12.5580    2.1805    6.4601 H         1 RES1    0.0000
     51 H3        14.1012    2.8624    4.7664 H         1 RES1    0.0000
     52 H4        12.9337    2.7759    3.7236 H         1 RES1    0.0000
     53 H5        14.2202    0.9687    3.4892 H         1 RES1    0.0000
     54 H6        14.1070    0.6452    5.0190 H         1 RES1    0.0000
     55 H7        11.9003    0.4883    3.3363 H         1 RES1    0.0000
     56 H8        12.8210   -0.7530    3.5997 H         1 RES1    0.0000
     57 H9        12.2784   -0.4093    5.9319 H         1 RES1    0.0000
     58 H10       11.2099   -1.1107    5.0250 H         1 RES1    0.0000
     59 H11        9.5896    1.2066    7.3949 H         1 RES1    0.0000
     60 H12       11.1068    0.9131    7.6644 H         1 RES1    0.0000
     61 H13       10.6284   -1.3836    7.3682 H         1 RES1    0.0000
     62 H14        9.1068   -1.0031    7.3366 H         1 RES1    0.0000
     63 H15        9.2903   -2.8055    8.9950 H         1 RES1    0.0000
     64 H16        8.6750   -2.0903   10.2468 H         1 RES1    0.0000
     65 H17       10.1664   -2.5724   10.2747 H         1 RES1    0.0000
     66 H18        1.7532    9.5781    4.5503 H         2 RES2    0.0000
     67 H19        1.7248    8.8392    3.1675 H         2 RES2    0.0000
     68 H20        0.1478    7.9940    4.6936 H         2 RES2    0.0000
     69 H21        1.3376    7.5209    5.5969 H         2 RES2    0.0000
     70 H22        0.5955    5.7245    4.5018 H         2 RES2    0.0000
     71 H23        0.6277    6.4807    3.1287 H         2 RES2    0.0000
     72 H24        2.3091    4.8715    3.3654 H         2 RES2    0.0000
     73 H25        2.9300    5.7591    4.4993 H         2 RES2    0.0000
     74 H26        3.9215    5.8516    2.3383 H         2 RES2    0.0000
     75 H27        2.6900    6.7402    1.9474 H         2 RES2    0.0000
     76 H28        4.8075    9.4544    2.2679 H         2 RES2    0.0000
     77 H29        3.4464    9.0388    1.6086 H         2 RES2    0.0000
     78 H30        5.8827    7.8706    1.0708 H         2 RES2    0.0000
     79 H31        4.5234    7.4273    0.4261 H         2 RES2    0.0000
     80 H32        5.8151   10.6393    0.8583 H         2 RES2    0.0000
     81 H33        5.0683   11.1545   -0.4201 H         2 RES2    0.0000
     82 H34        6.5555   10.6685   -0.5233 H         2 RES2    0.0000
     83 H35        5.9453   -0.6111    1.9109 H         3 RES3    0.0000
     84 H36        6.8590    0.2943    2.8081 H         3 RES3    0.0000
     85 H37        4.8152   -0.3392    3.8632 H         3 RES3    0.0000
     86 H38        4.0634    0.5340    2.8021 H         3 RES3    0.0000
     87 H39        4.1809    1.6834    4.7154 H         3 RES3    0.0000
     88 H40        5.7345    1.4819    4.7834 H         3 RES3    0.0000
     89 H41        5.0304    3.6620    4.1133 H         3 RES3    0.0000
     90 H42        4.5500    3.0144    2.7693 H         3 RES3    0.0000
     91 H43        7.2136    2.7567    3.5014 H         3 RES3    0.0000
     92 H44        6.7431    4.0949    2.8324 H         3 RES3    0.0000
     93 H45        8.4058    1.8969    0.3594 H         3 RES3    0.0000
     94 H46        8.6170    1.5943    1.8830 H         3 RES3    0.0000
     95 H47        8.9584    4.0979    0.6872 H         3 RES3    0.0000
     96 H48        9.0692    3.8665    2.2327 H         3 RES3    0.0000
     97 H49       11.0834    5.1623    1.3683 H         3 RES3    0.0000
     98 H50       12.0563    4.4213    0.3885 H         3 RES3    0.0000
     99 H51       12.2366    4.2660    1.9377 H         3 RES3    0.0000
@<TRIPOS>BOND
     1    1    2 1
     2    2    3 1
     3    3    4 1
     4    4    5 1
     5    5    6 1
     6    6    7 1
     7    7    1 1
     8    8    1 1
     9    9    8 1
    10   10    9 1
    11   11   10 1
    12   12    1 1
    13   13    2 2
    14   14   10 2
    15   15   12 2
    16   16   12 2
    17   17   18 1
    18   18   19 1
    19   19   20 1
    20   20   21 1
    21   21   22 1
    22   22   23 1
    23   23   17 1
    24   24   17 1
    25   25   24 1
    26   26   25 1
    27   27   26 1
    28   28   17 1
    29   29   18 2
    30   30   26 2
    31   31   28 2
    32   32   28 2
    33   33   34 1
    34   34   35 1
    35   35   36 1
    36   36   37 1
    37   37   38 1
    38   38   39 1
    39   39   33 1
    40   40   33 1
    41   41   40 1
    42   42   41 1
    43   43   42 1
    44   44   33 1
    45   45   34 2
    46   46   42 2
    47   47   44 2
    48   48   44 2
    49   49    3 1
    50   50    3 1
    51   51    4 1
    52   52    4 1
    53   53    5 1
    54   54    5 1
    55   55    6 1
    56   56    6 1
    57   57    7 1
    58   58    7 1
    59   59    8 1
    60   60    8 1
    61   61    9 1
    62   62    9 1
    63   63   11 1
    64   64   11 1
    65   65   11 1
    66   66   19 1
    67   67   19 1
    68   68   20 1
    69   69   20 1
    70   70   21 1
    71   71   21 1
    72   72   22 1
    73   73   22 1
    74   74   23 1
    75   75   23 1
    76   76   24 1
    77   77   24 1
    78   78   25 1
    79   79   25 1
    80   80   27 1
    81   81   27 1
    82   82   27 1
    83   83   35 1
    84   84   35 1
    85   85   36 1
    86   86   36 1
    87   87   37 1
    88   88   37 1
    89   89   38 1
    90   90   38 1
    91   91   39 1
    92   92   39 1
    93   93   40 1
    94   94   40 1
    95   95   41 1
    96   96   41 1
    97   97   43 1
    98   98   43 1
    99   99   43 1
@<TRIPOS>SUBSTRUCTURE
     1 RES1 1
     2 RES2 17
     3 RES3 33

@<TRIPOS>CRYSIN
  12.6390   12.7080   13.0570 108.3700  92.4600 114.3900   2 1

