# MOL2 file generated by ConQuest
# Please check atom types

@<TRIPOS>MOLECULE
HACLEE
    60    64     2
SMALL
NO_CHARGES
****
Generated from CSD

@<TRIPOS>ATOM
      1 N1         2.4806    1.2376   11.7030 N.am      1 RES1    0.0000
      2 N2         0.5260   -0.6198   13.5393 N.3       1 RES1    0.0000
      3 N3         6.1270    1.3896   11.0055 N.pl3     1 RES1    0.0000
      4 O1         3.5821    0.6938    9.7927 O.2       1 RES1    0.0000
      5 O2         7.1347    1.5402   11.6881 O.2       1 RES1    0.0000
      6 O3         6.1845    1.2571    9.8000 O.2       1 RES1    0.0000
      7 C1         1.1235    1.8017   13.6775 C.3       1 RES1    0.0000
      8 C2         0.7482    0.5069   14.4171 C.3       1 RES1    0.0000
      9 H1         1.4581    0.2844   15.0398 H         1 RES1    0.0000
     10 H2        -0.0585    0.6649   14.9344 H         1 RES1    0.0000
     11 C3        -0.3577   -0.2924   12.4406 C.3       1 RES1    0.0000
     12 H3        -1.2634   -0.2279   12.7840 H         1 RES1    0.0000
     13 H4        -0.3397   -1.0245   11.8036 H         1 RES1    0.0000
     14 C4        -0.0301    0.9963   11.7010 C.3       1 RES1    0.0000
     15 H5        -0.7613    1.1765   11.0739 H         1 RES1    0.0000
     16 C5         0.0262    2.1425   12.6885 C.3       1 RES1    0.0000
     17 H6        -0.8234    2.2387   13.1445 H         1 RES1    0.0000
     18 H7         0.2294    2.9735   12.2311 H         1 RES1    0.0000
     19 C6         1.2560    0.9506   10.9101 C.3       1 RES1    0.0000
     20 H8         1.3439    0.0706   10.5125 H         1 RES1    0.0000
     21 H9         1.1984    1.5946   10.1861 H         1 RES1    0.0000
     22 C7         3.6690    1.0756   10.9542 C.2       1 RES1    0.0000
     23 C8         4.8597    1.3943   11.6824 C.2       1 RES1    0.0000
     24 C9         4.8212    1.7062   13.0034 C.2       1 RES1    0.0000
     25 H10        5.6164    1.8387   13.4666 H         1 RES1    0.0000
     26 C10        3.6199    1.8306   13.6689 C.2       1 RES1    0.0000
     27 C11        2.4487    1.6242   12.9949 C.2       1 RES1    0.0000
     28 N4         3.1384    1.2961    4.7003 N.am      2 RES2    0.0000
     29 N5         0.8049   -0.7751    5.7073 N.3       2 RES2    0.0000
     30 N6         6.6495    1.0669    3.4928 N.pl3     2 RES2    0.0000
     31 O4         3.9296    1.6968    2.6278 O.2       2 RES2    0.0000
     32 O5         7.7301    0.8054    4.0086 O.2       2 RES2    0.0000
     33 O6         6.5641    1.4017    2.3257 O.2       2 RES2    0.0000
     34 C12        2.1136    0.9755    6.9171 C.3       2 RES2    0.0000
     35 C13        1.4373   -0.3940    6.9385 C.3       2 RES2    0.0000
     36 H11        2.1015   -1.0629    7.1651 H         2 RES2    0.0000
     37 H12        0.7687   -0.3966    7.6425 H         2 RES2    0.0000
     38 C14       -0.0077    0.2770    5.1486 C.3       2 RES2    0.0000
     39 H13       -0.8213    0.3503    5.6702 H         2 RES2    0.0000
     40 H14       -0.2593    0.0262    4.2452 H         2 RES2    0.0000
     41 C15        0.6629    1.6370    5.1030 C.3       2 RES2    0.0000
     42 H15       -0.0069    2.2891    4.8095 H         2 RES2    0.0000
     43 C16        1.1106    2.0329    6.4896 C.3       2 RES2    0.0000
     44 H16        0.3562    2.0531    7.0995 H         2 RES2    0.0000
     45 H17        1.5248    2.9096    6.4768 H         2 RES2    0.0000
     46 C17        1.8309    1.7055    4.1326 C.3       2 RES2    0.0000
     47 H18        1.6331    1.1368    3.3716 H         2 RES2    0.0000
     48 H19        1.9078    2.6151    3.8063 H         2 RES2    0.0000
     49 C18        4.1985    1.3573    3.7649 C.2       2 RES2    0.0000
     50 C19        5.4715    0.9835    4.3022 C.2       2 RES2    0.0000
     51 C20        5.6124    0.6232    5.6175 C.2       2 RES2    0.0000
     52 H20        6.4496    0.3684    5.9338 H         2 RES2    0.0000
     53 C21        4.5412    0.6319    6.4754 C.2       2 RES2    0.0000
     54 C22        3.3001    0.9741    6.0136 C.2       2 RES2    0.0000
     55 H21        1.2292    2.4538   14.3287 H         1 RES1    0.0000
     56 H22        2.4085    1.2235    7.7949 H         2 RES2    0.0000
     57 H23        1.2830   -0.8740   13.2386 H         1 RES1    0.0000
     58 H24        1.2986   -1.0084    5.1016 H         2 RES2    0.0000
     59 H25        3.5847    2.0437   14.5781 H         1 RES1    0.0000
     60 H26        4.6429    0.3899    7.3817 H         2 RES2    0.0000
@<TRIPOS>BOND
     1    1   19 1
     2    2    8 1
     3    3    5 2
     4    4   22 2
     5    6    3 2
     6    7    8 1
     7    8    9 1
     8   10    8 1
     9   11    2 1
    10   12   11 1
    11   13   11 1
    12   14   11 1
    13   15   14 1
    14   16    7 1
    15   17   16 1
    16   18   16 1
    17   19   14 1
    18   20   19 1
    19   21   19 1
    20   22    1 1
    21   23    3 1
    22   24   23 2
    23   25   24 1
    24   26   24 1
    25   27    1 1
    26   28   46 1
    27   29   35 1
    28   30   32 2
    29   31   49 2
    30   33   30 2
    31   34   35 1
    32   35   36 1
    33   37   35 1
    34   38   29 1
    35   39   38 1
    36   40   38 1
    37   41   38 1
    38   42   41 1
    39   43   34 1
    40   44   43 1
    41   45   43 1
    42   46   41 1
    43   47   46 1
    44   48   46 1
    45   49   28 1
    46   50   30 1
    47   51   50 2
    48   52   51 1
    49   53   51 1
    50   54   28 1
    51   55    7 1
    52   56   34 1
    53   57    2 1
    54   58   29 1
    55   59   26 1
    56   60   53 1
    57    7   27 1
    58   14   16 1
    59   22   23 1
    60   26   27 2
    61   34   54 1
    62   41   43 1
    63   49   50 1
    64   53   54 2
@<TRIPOS>SUBSTRUCTURE
     1 RES1 1
     2 RES2 28

@<TRIPOS>CRYSIN
  10.8460    6.7227   14.2950  90.0000  94.5300  90.0000   4 1

