# MOL2 file generated by ConQuest
# Please check atom types

@<TRIPOS>MOLECULE
HACNEH
    43    45     1
SMALL
NO_CHARGES
****
Generated from CSD

@<TRIPOS>ATOM
      1 C1         4.0968    8.6865    3.4645 C.ar      1 RES1    0.0000
      2 H1         4.3235    9.1289    4.2749 H         1 RES1    0.0000
      3 C2         2.7675    8.5107    3.0935 C.ar      1 RES1    0.0000
      4 C3         2.3814    7.8837    1.9240 C.ar      1 RES1    0.0000
      5 H2         1.4675    7.7896    1.6837 H         1 RES1    0.0000
      6 C4         3.4025    7.3987    1.1198 C.ar      1 RES1    0.0000
      7 C5         4.7439    7.5372    1.4335 C.ar      1 RES1    0.0000
      8 H3         5.4156    7.1910    0.8583 H         1 RES1    0.0000
      9 C6         5.0855    8.1977    2.6155 C.ar      1 RES1    0.0000
     10 C7         6.5370    8.3768    2.9217 C.2       1 RES1    0.0000
     11 C8         8.1156    9.4857    4.3415 C.3       1 RES1    0.0000
     12 H4         8.7133    8.7459    4.0328 H         1 RES1    0.0000
     13 C9         8.0884    9.5352    5.8646 C.3       1 RES1    0.0000
     14 H5         7.6682    8.6926    6.2001 H         1 RES1    0.0000
     15 C10        7.2429   10.7040    6.3203 C.2       1 RES1    0.0000
     16 C11        7.7523   12.0552    5.8304 C.3       1 RES1    0.0000
     17 C12        6.8639   13.2053    6.2866 C.3       1 RES1    0.0000
     18 H6         5.9429   13.0427    5.9935 H         1 RES1    0.0000
     19 H7         7.1880   14.0446    5.8951 H         1 RES1    0.0000
     20 H8         6.8896   13.2710    7.2639 H         1 RES1    0.0000
     21 C13        7.7771   11.9951    4.2724 C.3       1 RES1    0.0000
     22 H9         6.8436   11.9723    3.9432 H         1 RES1    0.0000
     23 H10        8.1934   12.8271    3.9313 H         1 RES1    0.0000
     24 C14        8.5294   10.7981    3.6904 C.3       1 RES1    0.0000
     25 H11        8.3550   10.7472    2.7170 H         1 RES1    0.0000
     26 H12        9.5016   10.9323    3.8180 H         1 RES1    0.0000
     27 C15        9.4955    9.6620    6.4908 C.3       1 RES1    0.0000
     28 H13        9.4385    9.4028    7.4444 H         1 RES1    0.0000
     29 H14       10.0974    9.0147    6.0433 H         1 RES1    0.0000
     30 C16       10.1328   11.0607    6.4037 C.3       1 RES1    0.0000
     31 H15       10.7167   11.1784    7.1942 H         1 RES1    0.0000
     32 H16       10.7157   11.0794    5.6032 H         1 RES1    0.0000
     33 C17        9.2008   12.2493    6.3308 C.2       1 RES1    0.0000
     34 N1         1.7156    9.0165    3.9986 N.pl3     1 RES1    0.0000
     35 N2         3.0447    6.6890   -0.1176 N.pl3     1 RES1    0.0000
     36 O1         2.0635    9.4840    5.0754 O.2       1 RES1    0.0000
     37 O2         0.5531    8.9290    3.6226 O.2       1 RES1    0.0000
     38 O3         1.8524    6.6000   -0.4164 O.2       1 RES1    0.0000
     39 O4         3.9585    6.2248   -0.7955 O.2       1 RES1    0.0000
     40 O5         7.4207    7.8370    2.2924 O.2       1 RES1    0.0000
     41 O6         6.7238    9.2060    3.9537 O.3       1 RES1    0.0000
     42 O7         6.2621   10.5894    7.0292 O.2       1 RES1    0.0000
     43 O8         9.5973   13.3668    6.5923 O.2       1 RES1    0.0000
@<TRIPOS>BOND
     1    1    2 1
     2    3    1 ar
     3    4    3 ar
     4    5    4 1
     5    6    4 ar
     6    7    6 ar
     7    8    7 1
     8    9    1 ar
     9   10    9 1
    10   11   12 1
    11   13   11 1
    12   14   13 1
    13   15   13 1
    14   16   15 1
    15   17   16 1
    16   18   17 1
    17   19   17 1
    18   20   17 1
    19   21   16 1
    20   22   21 1
    21   23   21 1
    22   24   11 1
    23   25   24 1
    24   26   24 1
    25   27   13 1
    26   28   27 1
    27   29   27 1
    28   30   27 1
    29   31   30 1
    30   32   30 1
    31   33   16 1
    32   34    3 1
    33   35    6 1
    34   36   34 2
    35   37   34 2
    36   38   35 2
    37   39   35 2
    38   40   10 2
    39   41   10 1
    40   42   15 2
    41   43   33 2
    42    7    9 ar
    43   11   41 1
    44   21   24 1
    45   30   33 1
@<TRIPOS>SUBSTRUCTURE
     1 RES1 1

@<TRIPOS>CRYSIN
  10.6964   25.3650    6.2244  90.0000  90.0000  90.0000  33 1

