# MOL2 file generated by ConQuest
# Please check atom types

@<TRIPOS>MOLECULE
HACPUY
    44    44     2
SMALL
NO_CHARGES
****
Generated from CSD

@<TRIPOS>ATOM
      1 O1         4.4538    4.4302    7.8005 O.2       1 RES1    0.0000
      2 O2         7.4445    3.0454   11.2982 O.3       1 RES1    0.0000
      3 O3         4.6283    7.4226    3.5603 O.2       2 RES2    0.0000
      4 O4         7.4061    5.7680    0.0038 O.3       2 RES2    0.0000
      5 N1         6.4697    2.8989    5.3379 N.ar      1 RES1    0.0000
      6 N2         6.4692    3.4108    7.9505 N.am      1 RES1    0.0000
      7 H1         7.1290    3.0475    7.4955 H         1 RES1    0.0000
      8 N3         7.5327    2.8598    9.8996 N.2       1 RES1    0.0000
      9 N4         7.0770    6.6433    5.9892 N.ar      2 RES2    0.0000
     10 N5         6.7591    6.6681    3.3249 N.am      2 RES2    0.0000
     11 H2         7.5187    6.5080    3.7387 H         2 RES2    0.0000
     12 N6         7.6892    5.9351    1.3803 N.2       2 RES2    0.0000
     13 C1         6.5122    2.6520    4.0306 C.ar      1 RES1    0.0000
     14 H3         7.2167    2.1078    3.7003 H         1 RES1    0.0000
     15 C2         5.5813    3.1490    3.1222 C.ar      1 RES1    0.0000
     16 H4         5.6493    2.9485    2.1958 H         1 RES1    0.0000
     17 C3         4.5524    3.9442    3.6052 C.ar      1 RES1    0.0000
     18 H5         3.9066    4.3101    3.0113 H         1 RES1    0.0000
     19 C4         4.4809    4.1969    4.9652 C.ar      1 RES1    0.0000
     20 H6         3.7784    4.7241    5.3268 H         1 RES1    0.0000
     21 C5         5.4597    3.6607    5.7854 C.ar      1 RES1    0.0000
     22 C6         5.3967    3.8840    7.2617 C.2       1 RES1    0.0000
     23 C7         6.5789    3.4686    9.3206 C.2       1 RES1    0.0000
     24 H7         5.9460    3.9599    9.8314 H         1 RES1    0.0000
     25 C8         8.6712    2.6360   11.8918 C.3       1 RES1    0.0000
     26 H8         8.6352    2.7952   12.8585 H         1 RES1    0.0000
     27 H9         9.4095    3.1493   11.5031 H         1 RES1    0.0000
     28 H10        8.8126    1.6812   11.7244 H         1 RES1    0.0000
     29 C9         7.2951    6.7135    7.3039 C.ar      2 RES2    0.0000
     30 H11        8.0516    6.2594    7.6559 H         2 RES2    0.0000
     31 C10        6.4841    7.4094    8.1877 C.ar      2 RES2    0.0000
     32 H12        6.6847    7.4357    9.1152 H         2 RES2    0.0000
     33 C11        5.3728    8.0651    7.6798 C.ar      2 RES2    0.0000
     34 H13        4.7986    8.5579    8.2545 H         2 RES2    0.0000
     35 C12        5.1137    7.9892    6.3253 C.ar      2 RES2    0.0000
     36 H14        4.3565    8.4240    5.9503 H         2 RES2    0.0000
     37 C13        5.9814    7.2676    5.5265 C.ar      2 RES2    0.0000
     38 C14        5.7038    7.1344    4.0570 C.2       2 RES2    0.0000
     39 C15        6.6909    6.4373    1.9726 C.2       2 RES2    0.0000
     40 H15        5.9030    6.6521    1.4887 H         2 RES2    0.0000
     41 C16        8.6244    5.4511   -0.6633 C.3       2 RES2    0.0000
     42 H16        8.4528    5.3395   -1.6220 H         2 RES2    0.0000
     43 H17        8.9899    4.6179   -0.2982 H         2 RES2    0.0000
     44 H18        9.2685    6.1772   -0.5286 H         2 RES2    0.0000
@<TRIPOS>BOND
     1    1   22 2
     2    2    8 1
     3    3   38 2
     4    4   12 1
     5    5   13 ar
     6    6    7 1
     7    8   23 2
     8    9   29 ar
     9   10   11 1
    10   12   39 2
    11   13   14 1
    12   15   13 ar
    13   16   15 1
    14   17   15 ar
    15   18   17 1
    16   19   17 ar
    17   20   19 1
    18   21    5 ar
    19   22    6 1
    20   23    6 1
    21   24   23 1
    22   25    2 1
    23   26   25 1
    24   27   25 1
    25   28   25 1
    26   29   30 1
    27   31   29 ar
    28   32   31 1
    29   33   31 ar
    30   34   33 1
    31   35   33 ar
    32   36   35 1
    33   37    9 ar
    34   38   10 1
    35   39   10 1
    36   40   39 1
    37   41    4 1
    38   42   41 1
    39   43   41 1
    40   44   41 1
    41   19   21 ar
    42   21   22 1
    43   35   37 ar
    44   37   38 1
@<TRIPOS>SUBSTRUCTURE
     1 RES1 1
     2 RES2 3

@<TRIPOS>CRYSIN
   5.1780    7.4431   22.6665  85.6807  87.5095  80.9880   2 1

