# MOL2 file generated by ConQuest
# Please check atom types

@<TRIPOS>MOLECULE
HACQIN
   112   118     2
SMALL
NO_CHARGES
****
Generated from CSD

@<TRIPOS>ATOM
      1 H1         4.8305    4.8982    7.8597 H         1 RES1    0.0000
      2 H2         7.2758    1.8142   13.8378 H         2 RES2    0.0000
      3 H3         5.9988    0.5275   15.4337 H         2 RES2    0.0000
      4 H4         3.4683    2.9732    6.7511 H         1 RES1    0.0000
      5 H5         9.1598    3.7448   17.0528 H         2 RES2    0.0000
      6 H6         4.4787    4.9277    5.4659 H         1 RES1    0.0000
      7 H7         7.2469   -0.7416   13.6950 H         2 RES2    0.0000
      8 H8         1.5826    1.8256    7.0135 H         1 RES1    0.0000
      9 H9         2.9398    8.5650    5.7765 H         1 RES1    0.0000
     10 H10        4.1938    3.7477   13.7950 H         2 RES2    0.0000
     11 H11       -0.3842    5.0630    8.2470 H         1 RES1    0.0000
     12 H12        8.0083    5.3312    5.8604 H         1 RES1    0.0000
     13 H13        3.3041    2.9019    9.9071 H         2 RES2    0.0000
     14 H14        2.8805   -0.5079   18.2398 H         2 RES2    0.0000
     15 H15       10.6799    3.9607   15.5319 H         2 RES2    0.0000
     16 H16        6.3160    5.9166    9.1681 H         1 RES1    0.0000
     17 H17        4.1723    0.9429   16.9403 H         2 RES2    0.0000
     18 H18        8.8679   -2.3499   13.3612 H         2 RES2    0.0000
     19 H19        7.9344    3.4761   12.6240 H         2 RES2    0.0000
     20 H20        9.0221    1.7201    3.9093 H         1 RES1    0.0000
     21 H21        1.6207    6.3321    8.0881 H         1 RES1    0.0000
     22 H22        5.6164    3.4266   15.6640 H         2 RES2    0.0000
     23 H23        5.2663    5.6036    3.4148 H         1 RES1    0.0000
     24 H24        6.9304    5.6912   11.4030 H         1 RES1    0.0000
     25 H25        4.8707    5.5644    1.0889 H         1 RES1    0.0000
     26 H26        6.3497    6.7574    6.3834 H         1 RES1    0.0000
     27 H27        7.5929   -0.1137   19.0913 H         2 RES2    0.0000
     28 H28        9.1268    0.3482   17.1938 H         2 RES2    0.0000
     29 H29        9.4469    4.3431   11.1317 H         2 RES2    0.0000
     30 H30        2.2252    8.2870    3.8736 H         1 RES1    0.0000
     31 H31       11.5630    5.0760   11.7814 H         2 RES2    0.0000
     32 H32        5.5461    6.4286   13.0310 H         1 RES1    0.0000
     33 H33        3.1230    6.7289    0.1607 H         1 RES1    0.0000
     34 H34       10.7619   -1.4045   16.7796 H         2 RES2    0.0000
     35 H35        2.6961    7.4529   10.1517 H         1 RES1    0.0000
     36 H36        3.3363    7.3816   12.5312 H         1 RES1    0.0000
     37 H37        1.7120    8.3678    1.6423 H         1 RES1    0.0000
     38 H38       12.1452    4.9952   14.0128 H         2 RES2    0.0000
     39 H39        4.9130    2.9433    9.7465 H         2 RES2    0.0000
     40 H40        3.8871   -1.7688   19.8321 H         2 RES2    0.0000
     41 H41        6.3234   -1.4966   20.4033 H         2 RES2    0.0000
     42 H42        7.4402    1.8711    3.5166 H         1 RES1    0.0000
     43 H43        4.0124    1.5886   10.1213 H         2 RES2    0.0000
     44 H44        7.9593    1.2637    4.9803 H         1 RES1    0.0000
     45 N1         4.1145    6.7270    8.1519 N.am      1 RES1    0.0000
     46 N2         6.7699    1.3598   17.0533 N.am      2 RES2    0.0000
     47 O1         8.0510    3.2115    4.8511 O.3       1 RES1    0.0000
     48 C1         2.7112    3.4193    7.0871 C.ar      1 RES1    0.0000
     49 O2         4.1157    2.9922   11.6233 O.3       2 RES2    0.0000
     50 C2         2.7489    4.7629    7.4493 C.ar      1 RES1    0.0000
     51 O3         3.4375    8.9004    8.2183 O.2       1 RES1    0.0000
     52 O4         6.1172    2.0476   11.9102 O.2       2 RES2    0.0000
     53 N3        -0.8131    2.5335    7.8272 N.pl3     1 RES1    0.0000
     54 C3         0.4163    3.3281    7.6558 C.ar      1 RES1    0.0000
     55 C4         3.8564    6.8690    5.3184 C.2       1 RES1    0.0000
     56 C5         1.5460    2.6923    7.1922 C.ar      1 RES1    0.0000
     57 C6         0.4143    4.6439    8.0182 C.ar      1 RES1    0.0000
     58 C7         6.9037    0.9341   15.6499 C.3       2 RES2    0.0000
     59 C8         7.0528    5.1025    5.6849 C.2       1 RES1    0.0000
     60 C9         4.5914    5.7018    5.9532 C.3       1 RES1    0.0000
     61 C10        7.1093    2.1551   14.7459 C.3       2 RES2    0.0000
     62 C11        4.0930    5.4652    7.3893 C.3       1 RES1    0.0000
     63 C12        5.8432    2.9722   14.7297 C.2       2 RES2    0.0000
     64 O5        -0.7913    1.3608    7.5119 O.2       1 RES1    0.0000
     65 C13        5.1790    2.6658   12.3482 C.2       2 RES2    0.0000
     66 C14        1.5860    5.3576    7.9039 C.ar      1 RES1    0.0000
     67 C15        4.4721    6.6689    9.5301 C.ar      1 RES1    0.0000
     68 C16        8.0037   -0.1030   15.4617 C.ar      2 RES2    0.0000
     69 C17        9.1697    3.6258   14.2745 C.ar      2 RES2    0.0000
     70 C18        3.4111    7.8171    6.1324 C.2       1 RES1    0.0000
     71 C19        3.6939    6.8960    3.8566 C.ar      1 RES1    0.0000
     72 O6         7.6106    2.6169   18.7462 O.2       2 RES2    0.0000
     73 C20        6.0761    5.9460    5.9966 C.2       1 RES1    0.0000
     74 C21        8.2864    2.9680   15.2457 C.2       2 RES2    0.0000
     75 C22        3.6416    7.8707    7.5612 C.2       1 RES1    0.0000
     76 C23        5.0293    3.1879   13.7161 C.2       2 RES2    0.0000
     77 C24        7.9637   -0.8744   14.3104 C.ar      2 RES2    0.0000
     78 O7         5.8318    3.1827    4.9164 O.2       1 RES1    0.0000
     79 C25        5.9849    0.5120   17.9019 C.ar      2 RES2    0.0000
     80 C26        9.0331   -0.2859   16.3618 C.ar      2 RES2    0.0000
     81 O8        -1.8052    3.1106    8.2608 O.2       1 RES1    0.0000
     82 C27        7.5885    2.3390   17.5428 C.2       2 RES2    0.0000
     83 C28        5.7160    6.1757    9.8777 C.ar      1 RES1    0.0000
     84 N4        10.9063   -3.1150   14.8214 N.pl3     2 RES2    0.0000
     85 C29        4.6461    0.3673   17.6461 C.ar      2 RES2    0.0000
     86 C30        9.9120   -2.0075   15.0213 C.ar      2 RES2    0.0000
     87 C31       10.0095   -1.2381   16.1334 C.ar      2 RES2    0.0000
     88 C32        8.4409    3.0478   16.5686 C.2       2 RES2    0.0000
     89 C33        4.1452    2.5601   10.2516 C.3       2 RES2    0.0000
     90 C34        6.8654    3.7556    5.1283 C.2       1 RES1    0.0000
     91 C35        6.5714   -0.1978   18.9299 C.ar      2 RES2    0.0000
     92 O9        10.6537   -3.9404   13.9896 O.2       2 RES2    0.0000
     93 C36       10.4245    4.1150   14.6340 C.ar      2 RES2    0.0000
     94 C37        4.4570    6.0804    3.0291 C.ar      1 RES1    0.0000
     95 C38        8.8144    3.7321   12.9342 C.ar      2 RES2    0.0000
     96 C39        5.1986    6.4763   12.1956 C.ar      1 RES1    0.0000
     97 C40        8.9220   -1.8578   14.1110 C.ar      2 RES2    0.0000
     98 C41        6.0907    6.0766   11.2049 C.ar      1 RES1    0.0000
     99 C42        4.5028   -1.2263   19.4358 C.ar      2 RES2    0.0000
    100 C43        8.0606    1.8853    4.2556 C.3       1 RES1    0.0000
    101 C44       10.8954    4.7492   12.3884 C.ar      2 RES2    0.0000
    102 C45       11.2625    4.6796   13.6754 C.ar      2 RES2    0.0000
    103 C46        3.5994    7.0621   10.5303 C.ar      1 RES1    0.0000
    104 O10       11.9286   -3.0463   15.5030 O.2       2 RES2    0.0000
    105 C47        4.2697    6.0681    1.6548 C.ar      1 RES1    0.0000
    106 C48        3.9735    6.9547   11.8546 C.ar      1 RES1    0.0000
    107 C49        3.8912   -0.5120   18.4201 C.ar      2 RES2    0.0000
    108 C50        9.6624    4.2898   12.0082 C.ar      2 RES2    0.0000
    109 C51        5.8207   -1.0508   19.6857 C.ar      2 RES2    0.0000
    110 C52        2.7434    7.7192    3.2506 C.ar      1 RES1    0.0000
    111 C53        3.2957    6.8663    1.1014 C.ar      1 RES1    0.0000
    112 C54        2.5385    7.6814    1.8743 C.ar      1 RES1    0.0000
@<TRIPOS>BOND
     1    1   62 1
     2    2   61 1
     3    3   58 1
     4    4   48 1
     5    5   88 1
     6    6   60 1
     7    7   77 1
     8    8   56 1
     9    9   70 1
    10   10   76 1
    11   11   57 1
    12   12   59 1
    13   13   89 1
    14   14  107 1
    15   15   93 1
    16   16   83 1
    17   17   85 1
    18   18   97 1
    19   19   95 1
    20   20  100 1
    21   21   66 1
    22   22   63 1
    23   23   94 1
    24   24   98 1
    25   25  105 1
    26   26   73 1
    27   27   91 1
    28   28   80 1
    29   29  108 1
    30   30  110 1
    31   31  101 1
    32   32   96 1
    33   33  111 1
    34   34   87 1
    35   35  103 1
    36   36  106 1
    37   37  112 1
    38   38  102 1
    39   39   89 1
    40   40   99 1
    41   41  109 1
    42   42  100 1
    43   43   89 1
    44   44  100 1
    45   45   62 1
    46   46   58 1
    47   47   90 1
    48   48   50 ar
    49   49   65 1
    50   50   62 1
    51   51   75 2
    52   52   65 2
    53   53   54 1
    54   54   56 ar
    55   55   60 1
    56   56   48 ar
    57   57   54 ar
    58   58   61 1
    59   59   73 2
    60   60   62 1
    61   61   63 1
    62   63   76 2
    63   64   53 2
    64   65   76 1
    65   66   50 ar
    66   67   45 1
    67   68   58 1
    68   69   74 1
    69   70   55 2
    70   71   55 1
    71   72   82 2
    72   73   60 1
    73   74   61 1
    74   75   45 1
    75   77   68 ar
    76   78   90 2
    77   79   46 1
    78   80   68 ar
    79   81   53 2
    80   82   46 1
    81   83   67 ar
    82   84   86 1
    83   85   79 ar
    84   86   87 ar
    85   87   80 ar
    86   88   74 2
    87   89   49 1
    88   90   59 1
    89   91   79 ar
    90   92   84 2
    91   93   69 ar
    92   94   71 ar
    93   95   69 ar
    94   96   98 ar
    95   97   77 ar
    96   98   83 ar
    97   99  107 ar
    98  100   47 1
    99  101  102 ar
   100  102   93 ar
   101  103   67 ar
   102  104   84 2
   103  105   94 ar
   104  106   96 ar
   105  107   85 ar
   106  108   95 ar
   107  109   91 ar
   108  110   71 ar
   109  111  105 ar
   110  112  110 ar
   111   57   66 ar
   112   70   75 1
   113   82   88 1
   114   86   97 ar
   115   99  109 ar
   116  101  108 ar
   117  103  106 ar
   118  111  112 ar
@<TRIPOS>SUBSTRUCTURE
     1 RES1 1
     2 RES2 2

@<TRIPOS>CRYSIN
   9.8640   13.4240   18.0592  81.3550  89.5020  79.4600   2 1

