# MOL2 file generated by ConQuest
# Please check atom types

@<TRIPOS>MOLECULE
HACQAF
    32    33     1
SMALL
NO_CHARGES
****
Generated from CSD

@<TRIPOS>ATOM
      1 N1         2.7007    4.2599   -0.2701 N.ar      1 RES1    0.0000
      2 N2         4.0741    2.3708    0.9738 N.am      1 RES1    0.0000
      3 H1         3.4930    2.2528    0.3228 H         1 RES1    0.0000
      4 O1         5.1350    3.9088    2.2705 O.2       1 RES1    0.0000
      5 C1         1.9999    5.1898   -0.9156 C.ar      1 RES1    0.0000
      6 H2         1.3920    4.9083   -1.5892 H         1 RES1    0.0000
      7 C2         2.1099    6.5422   -0.6571 C.ar      1 RES1    0.0000
      8 H3         1.5835    7.1691   -1.1392 H         1 RES1    0.0000
      9 C3         2.9878    6.9670    0.3029 C.ar      1 RES1    0.0000
     10 H4         3.0794    7.8929    0.4978 H         1 RES1    0.0000
     11 C4         3.7413    6.0272    0.9854 C.ar      1 RES1    0.0000
     12 H5         4.3649    6.2904    1.6521 H         1 RES1    0.0000
     13 C5         3.5566    4.6926    0.6654 C.ar      1 RES1    0.0000
     14 C6         4.3415    3.6440    1.3820 C.2       1 RES1    0.0000
     15 C7         4.6679    1.2630    1.5290 C.2       1 RES1    0.0000
     16 H6         5.2960    1.4124    2.2258 H         1 RES1    0.0000
     17 N3         4.4501    0.0530    1.1912 N.2       1 RES1    0.0000
     18 O2         3.5241    0.0184    0.1251 O.3       1 RES1    0.0000
     19 C8         3.1372   -1.3597   -0.0916 C.3       1 RES1    0.0000
     20 H7         3.9416   -1.9349   -0.0520 H         1 RES1    0.0000
     21 H8         2.7426   -1.4492   -0.9949 H         1 RES1    0.0000
     22 C9         2.1309   -1.8345    0.9427 C.ar      1 RES1    0.0000
     23 C10        2.5891   -2.4316    2.0985 C.ar      1 RES1    0.0000
     24 H9         3.5212   -2.5532    2.2327 H         1 RES1    0.0000
     25 C11        1.6934   -2.8514    3.0597 C.ar      1 RES1    0.0000
     26 H10        2.0086   -3.2626    3.8560 H         1 RES1    0.0000
     27 C12        0.3395   -2.6742    2.8652 C.ar      1 RES1    0.0000
     28 H11       -0.2773   -2.9638    3.5271 H         1 RES1    0.0000
     29 C13       -0.1185   -2.0771    1.7088 C.ar      1 RES1    0.0000
     30 H12       -1.0506   -1.9557    1.5748 H         1 RES1    0.0000
     31 C14        0.7770   -1.6574    0.7481 C.ar      1 RES1    0.0000
     32 H13        0.4618   -1.2463   -0.0479 H         1 RES1    0.0000
@<TRIPOS>BOND
     1    1    5 ar
     2    2    3 1
     3    4   14 2
     4    5    6 1
     5    7    5 ar
     6    8    7 1
     7    9    7 ar
     8   10    9 1
     9   11    9 ar
    10   12   11 1
    11   13    1 ar
    12   14    2 1
    13   15    2 1
    14   16   15 1
    15   17   15 2
    16   18   17 1
    17   19   18 1
    18   20   19 1
    19   21   19 1
    20   22   19 1
    21   23   22 ar
    22   24   23 1
    23   25   23 ar
    24   26   25 1
    25   27   25 ar
    26   28   27 1
    27   29   27 ar
    28   30   29 1
    29   31   22 ar
    30   32   31 1
    31   11   13 ar
    32   13   14 1
    33   29   31 ar
@<TRIPOS>SUBSTRUCTURE
     1 RES1 1

@<TRIPOS>CRYSIN
  11.7004   15.9776    7.1602  90.0000 107.2500  90.0000  14 1

