# MOL2 file generated by ConQuest
# Please check atom types

@<TRIPOS>MOLECULE
HADCAT01
    38    39     1
SMALL
NO_CHARGES
****
Generated from CSD

@<TRIPOS>ATOM
      1 O1         4.2686    3.0688    0.5636 O.2       1 RES1    0.0000
      2 O2         3.1981    1.4107   -0.3345 O.2       1 RES1    0.0000
      3 O3         2.3206   -2.1075    2.8827 O.2       1 RES1    0.0000
      4 O4         0.8642   -1.5855    4.4015 O.2       1 RES1    0.0000
      5 N1         1.5185    3.4260    4.9397 N.2       1 RES1    0.0000
      6 N2         3.4782    2.1367    0.6163 N.pl3     1 RES1    0.0000
      7 N3         1.6906   -1.2978    3.5454 N.pl3     1 RES1    0.0000
      8 C1         1.8555    2.4062    3.9947 C.ar      1 RES1    0.0000
      9 C2         2.5135    2.8386    2.8230 C.ar      1 RES1    0.0000
     10 C3         2.8361    1.8212    1.9074 C.ar      1 RES1    0.0000
     11 C4         2.5788    0.4774    2.1166 C.ar      1 RES1    0.0000
     12 H1         2.8235   -0.1784    1.4746 H         1 RES1    0.0000
     13 C5         1.9509    0.1271    3.2997 C.ar      1 RES1    0.0000
     14 C6         1.5662    1.0606    4.2431 C.ar      1 RES1    0.0000
     15 H2         1.1182    0.7956    5.0378 H         1 RES1    0.0000
     16 C7         2.7857    4.2923    2.5783 C.3       1 RES1    0.0000
     17 H3         3.7500    4.4580    2.6336 H         1 RES1    0.0000
     18 H4         2.3227    4.8299    3.2551 H         1 RES1    0.0000
     19 H5         2.4623    4.5396    1.6868 H         1 RES1    0.0000
     20 O1A       -2.0188    3.4089   10.2078 O.2       1 RES1    0.0000
     21 O2A       -0.9483    5.0670   11.1058 O.2       1 RES1    0.0000
     22 O3A       -0.0707    8.5851    7.8886 O.2       1 RES1    0.0000
     23 O4A        1.3856    8.0631    6.3699 O.2       1 RES1    0.0000
     24 N1A        0.7313    3.0516    5.8316 N.2       1 RES1    0.0000
     25 N2A       -1.2283    4.3409   10.1550 N.pl3     1 RES1    0.0000
     26 N3A        0.5592    7.7754    7.2260 N.pl3     1 RES1    0.0000
     27 C1A        0.3943    4.0715    6.7767 C.ar      1 RES1    0.0000
     28 C2A       -0.2636    3.6390    7.9484 C.ar      1 RES1    0.0000
     29 C3A       -0.5863    4.6564    8.8640 C.ar      1 RES1    0.0000
     30 C4A       -0.3290    6.0002    8.6548 C.ar      1 RES1    0.0000
     31 H1A       -0.5737    6.6561    9.2968 H         1 RES1    0.0000
     32 C5A        0.2990    6.3505    7.4717 C.ar      1 RES1    0.0000
     33 C6A        0.6836    5.4170    6.5283 C.ar      1 RES1    0.0000
     34 H2A        1.1316    5.6820    5.7336 H         1 RES1    0.0000
     35 C7A       -0.5358    2.1853    8.1930 C.3       1 RES1    0.0000
     36 H3A       -1.5001    2.0196    8.1378 H         1 RES1    0.0000
     37 H4A       -0.0729    1.6477    7.5163 H         1 RES1    0.0000
     38 H5A       -0.2125    1.9380    9.0846 H         1 RES1    0.0000
@<TRIPOS>BOND
     1    1    6 2
     2    2    6 2
     3    3    7 2
     4    4    7 2
     5    5    8 1
     6    6   10 1
     7    7   13 1
     8    8    9 ar
     9    9   10 ar
    10   10   11 ar
    11   11   12 1
    12   13   11 ar
    13   14    8 ar
    14   15   14 1
    15   16    9 1
    16   17   16 1
    17   18   16 1
    18   19   16 1
    19   20   25 2
    20   21   25 2
    21   22   26 2
    22   23   26 2
    23   24    5 2
    24   25   29 1
    25   26   32 1
    26   27   24 1
    27   28   27 ar
    28   29   28 ar
    29   30   29 ar
    30   31   30 1
    31   32   30 ar
    32   33   27 ar
    33   34   33 1
    34   35   28 1
    35   36   35 1
    36   37   35 1
    37   38   35 1
    38   13   14 ar
    39   32   33 ar
@<TRIPOS>SUBSTRUCTURE
     1 RES1 1

@<TRIPOS>CRYSIN
   3.9328    9.1363   11.0646 102.8845  90.7048  99.7473   2 1

