# MOL2 file generated by ConQuest
# Please check atom types

@<TRIPOS>MOLECULE
HADDEV
    90    96     2
SMALL
NO_CHARGES
****
Generated from CSD

@<TRIPOS>ATOM
      1 C1        17.6651    2.7784    6.5505 C.3       1 RES1    0.0000
      2 C2        17.3175    2.3567    5.1028 C.3       1 RES1    0.0000
      3 N1        18.5541    2.1711    4.2791 N.pl3     1 RES1    0.0000
      4 C3        19.9168    1.9687    4.7870 C.3       1 RES1    0.0000
      5 C4        20.0767    2.4940    6.2174 C.3       1 RES1    0.0000
      6 C5        20.2884    4.0097    6.3523 C.3       1 RES1    0.0000
      7 C6        19.0296    4.8146    6.0019 C.3       1 RES1    0.0000
      8 C7        17.8491    4.2820    6.7442 C.3       1 RES1    0.0000
      9 C8        18.8866    2.0121    7.0298 C.3       1 RES1    0.0000
     10 C9        16.3082    3.3013    4.4494 C.ar      1 RES1    0.0000
     11 C10       16.5677    4.0989    3.3552 C.ar      1 RES1    0.0000
     12 C11       15.5896    4.9736    2.8826 C.ar      1 RES1    0.0000
     13 C12       14.3803    5.0724    3.4848 C.ar      1 RES1    0.0000
     14 C13       14.1175    4.2869    4.5640 C.ar      1 RES1    0.0000
     15 C14       15.0608    3.3929    5.0290 C.ar      1 RES1    0.0000
     16 C15       20.9973    2.4916    3.8804 C.ar      1 RES1    0.0000
     17 C16       20.8656    3.6097    3.0778 C.ar      1 RES1    0.0000
     18 C17       21.9694    4.1085    2.3694 C.ar      1 RES1    0.0000
     19 C18       23.1946    3.4700    2.4960 C.ar      1 RES1    0.0000
     20 C19       23.3267    2.3470    3.2820 C.ar      1 RES1    0.0000
     21 C20       22.2439    1.8627    3.9709 C.ar      1 RES1    0.0000
     22 N2        18.6655    1.3735    2.9640 N.2       1 RES1    0.0000
     23 O1        17.5268    1.3567    2.7869 O.2       1 RES1    0.0000
     24 C21       11.5918    2.3567    2.8321 C.3       2 RES2    0.0000
     25 C22       12.1023    2.9663    1.5050 C.3       2 RES2    0.0000
     26 N3        11.0064    3.6170    0.7303 N.pl3     2 RES2    0.0000
     27 C23        9.7590    4.1640    1.3083 C.3       2 RES2    0.0000
     28 C24        9.3885    3.4483    2.6460 C.3       2 RES2    0.0000
     29 C25        8.7216    2.0772    2.4885 C.3       2 RES2    0.0000
     30 C26        9.6445    1.0048    1.9572 C.3       2 RES2    0.0000
     31 C27       10.9590    0.9735    2.7055 C.3       2 RES2    0.0000
     32 C28       10.6481    3.3350    3.4976 C.3       2 RES2    0.0000
     33 C29       12.9104    1.9832    0.6918 C.ar      2 RES2    0.0000
     34 C30       14.2007    1.6940    1.0943 C.ar      2 RES2    0.0000
     35 C31       14.9468    0.7494    0.4348 C.ar      2 RES2    0.0000
     36 C32       14.4401    0.0819   -0.6496 C.ar      2 RES2    0.0000
     37 C33       13.1651    0.3687   -1.0694 C.ar      2 RES2    0.0000
     38 C34       12.4284    1.3085   -0.4145 C.ar      2 RES2    0.0000
     39 C35        8.5952    4.1784    0.3437 C.ar      2 RES2    0.0000
     40 C36        8.3646    3.1953   -0.5976 C.ar      2 RES2    0.0000
     41 C37        7.2055    3.2121   -1.3611 C.ar      2 RES2    0.0000
     42 C38        6.2749    4.1977   -1.1704 C.ar      2 RES2    0.0000
     43 C39        6.5084    5.1905   -0.2600 C.ar      2 RES2    0.0000
     44 C40        7.6623    5.1760    0.4914 C.ar      2 RES2    0.0000
     45 N4        11.6938    4.2772   -0.3535 N.2       2 RES2    0.0000
     46 O2        10.9650    5.0869   -0.7725 O.2       2 RES2    0.0000
     47 H1        16.9391    2.4579    6.9839 H         1 RES1    0.0000
     48 H2        16.8556    1.3085    5.0576 H         1 RES1    0.0000
     49 H3        19.9965    0.8940    4.7757 H         1 RES1    0.0000
     50 H4        20.9055    2.0988    6.5649 H         1 RES1    0.0000
     51 H5        20.5671    4.2579    7.2318 H         1 RES1    0.0000
     52 H6        21.0659    4.3857    5.8067 H         1 RES1    0.0000
     53 H7        18.9474    4.8531    4.9770 H         1 RES1    0.0000
     54 H8        19.2365    5.8556    6.1722 H         1 RES1    0.0000
     55 H9        17.9490    4.5326    7.7345 H         1 RES1    0.0000
     56 H10       16.9850    4.7953    6.5807 H         1 RES1    0.0000
     57 H11       18.7722    0.8603    6.9680 H         1 RES1    0.0000
     58 H12       19.0630    2.1470    7.9349 H         1 RES1    0.0000
     59 H13       17.3868    4.0965    2.8969 H         1 RES1    0.0000
     60 H14       15.8094    5.4869    2.0559 H         1 RES1    0.0000
     61 H15       13.6323    5.6580    3.2082 H         1 RES1    0.0000
     62 H16       13.3465    4.3640    5.0192 H         1 RES1    0.0000
     63 H17       14.8610    2.9109    5.6899 H         1 RES1    0.0000
     64 H18       19.9219    4.0820    2.9783 H         1 RES1    0.0000
     65 H19       21.7733    4.9568    1.7951 H         1 RES1    0.0000
     66 H20       23.8861    3.8941    1.9843 H         1 RES1    0.0000
     67 H21       24.2324    1.6796    3.4154 H         1 RES1    0.0000
     68 H22       22.3569    0.9350    4.6017 H         1 RES1    0.0000
     69 H23       12.3880    2.2242    3.3966 H         2 RES2    0.0000
     70 H24       12.6618    3.7013    1.7891 H         2 RES2    0.0000
     71 H25        9.9243    5.1640    1.4530 H         2 RES2    0.0000
     72 H26        8.7527    4.0917    3.0846 H         2 RES2    0.0000
     73 H27        7.9419    2.0916    1.9278 H         2 RES2    0.0000
     74 H28        8.4549    1.7856    3.3408 H         2 RES2    0.0000
     75 H29        9.1995    0.0675    1.9655 H         2 RES2    0.0000
     76 H30        9.7801    1.0217    0.9315 H         2 RES2    0.0000
     77 H31       11.6345    0.3470    2.2375 H         2 RES2    0.0000
     78 H32       10.8028    0.6747    3.5669 H         2 RES2    0.0000
     79 H33       10.3580    3.0507    4.3899 H         2 RES2    0.0000
     80 H34       11.1295    4.3061    3.6845 H         2 RES2    0.0000
     81 H35       14.5369    2.1687    1.7891 H         2 RES2    0.0000
     82 H36       15.8001    0.6410    0.7084 H         2 RES2    0.0000
     83 H37       15.1337   -0.4916   -1.1078 H         2 RES2    0.0000
     84 H38       12.9163   -0.0193   -1.9029 H         2 RES2    0.0000
     85 H39       11.5278    1.4579   -0.6519 H         2 RES2    0.0000
     86 H40        8.9836    2.5254   -0.7393 H         2 RES2    0.0000
     87 H41        6.9822    2.4892   -1.8901 H         2 RES2    0.0000
     88 H42        5.4367    4.2724   -1.5713 H         2 RES2    0.0000
     89 H43        5.8307    5.8435   -0.0731 H         2 RES2    0.0000
     90 H44        7.8382    5.9062    1.1184 H         2 RES2    0.0000
@<TRIPOS>BOND
     1    1    2 1
     2    2    3 1
     3    3    4 1
     4    4    5 1
     5    5    6 1
     6    6    7 1
     7    7    8 1
     8    8    1 1
     9    9    1 1
    10   10    2 1
    11   11   10 ar
    12   12   11 ar
    13   13   12 ar
    14   14   13 ar
    15   15   10 ar
    16   16    4 1
    17   17   16 ar
    18   18   17 ar
    19   19   18 ar
    20   20   19 ar
    21   21   16 ar
    22   22    3 1
    23   23   22 2
    24   24   25 1
    25   25   26 1
    26   26   27 1
    27   27   28 1
    28   28   29 1
    29   29   30 1
    30   30   31 1
    31   31   24 1
    32   32   24 1
    33   33   25 1
    34   34   33 ar
    35   35   34 ar
    36   36   35 ar
    37   37   36 ar
    38   38   33 ar
    39   39   27 1
    40   40   39 ar
    41   41   40 ar
    42   42   41 ar
    43   43   42 ar
    44   44   39 ar
    45   45   26 1
    46   46   45 2
    47   47    1 1
    48   48    2 1
    49   49    4 1
    50   50    5 1
    51   51    6 1
    52   52    6 1
    53   53    7 1
    54   54    7 1
    55   55    8 1
    56   56    8 1
    57   57    9 1
    58   58    9 1
    59   59   11 1
    60   60   12 1
    61   61   13 1
    62   62   14 1
    63   63   15 1
    64   64   17 1
    65   65   18 1
    66   66   19 1
    67   67   20 1
    68   68   21 1
    69   69   24 1
    70   70   25 1
    71   71   27 1
    72   72   28 1
    73   73   29 1
    74   74   29 1
    75   75   30 1
    76   76   30 1
    77   77   31 1
    78   78   31 1
    79   79   32 1
    80   80   32 1
    81   81   34 1
    82   82   35 1
    83   83   36 1
    84   84   37 1
    85   85   38 1
    86   86   40 1
    87   87   41 1
    88   88   42 1
    89   89   43 1
    90   90   44 1
    91    5    9 1
    92   14   15 ar
    93   20   21 ar
    94   28   32 1
    95   37   38 ar
    96   43   44 ar
@<TRIPOS>SUBSTRUCTURE
     1 RES1 1
     2 RES2 24

@<TRIPOS>CRYSIN
  18.4560   24.0970    7.5400  90.0000  91.8000  90.0000  14 1

