# MOL2 file generated by ConQuest
# Please check atom types

@<TRIPOS>MOLECULE
HADVAJ
    14    14     1
SMALL
NO_CHARGES
****
Generated from CSD

@<TRIPOS>ATOM
      1 N1         1.7195   11.8862   10.2600 N.pl3     1 RES1    0.0000
      2 O1         1.4194   12.4454    9.2207 O.2       1 RES1    0.0000
      3 O2         1.9630   12.4851   11.2961 O.2       1 RES1    0.0000
      4 N2         2.1682    6.2885   10.2880 N.3       1 RES1    0.0000
      5 N3         1.1011    5.4703   10.2387 N.pl3     1 RES1    0.0000
      6 O3         1.3215    4.2655   10.2485 O.2       1 RES1    0.0000
      7 O4        -0.0225    5.9884   10.1992 O.2       1 RES1    0.0000
      8 C1         1.7731   10.4153   10.2798 C.ar      1 RES1    0.0000
      9 C2         2.1675    9.7881   11.4408 C.ar      1 RES1    0.0000
     10 C3         2.2566    8.4022   11.4424 C.ar      1 RES1    0.0000
     11 C4         1.9522    7.7028   10.2962 C.ar      1 RES1    0.0000
     12 C5         1.5310    8.3427    9.1451 C.ar      1 RES1    0.0000
     13 C6         1.4447    9.7273    9.1303 C.ar      1 RES1    0.0000
     14 C7         3.4933    5.7138   10.3867 C.3       1 RES1    0.0000
@<TRIPOS>BOND
     1    1    2 2
     2    3    1 2
     3    4    5 1
     4    5    6 2
     5    7    5 2
     6    8    1 1
     7    9    8 ar
     8   10    9 ar
     9   11    4 1
    10   12   11 ar
    11   13    8 ar
    12   14    4 1
    13   10   11 ar
    14   12   13 ar
@<TRIPOS>SUBSTRUCTURE
     1 RES1 1

@<TRIPOS>CRYSIN
   7.2490   14.1570   16.4450  90.0000  90.0000  90.0000  61 3

