# MOL2 file generated by ConQuest
# Please check atom types

@<TRIPOS>MOLECULE
HADWAK
    58    59     1
SMALL
NO_CHARGES
****
Generated from CSD

@<TRIPOS>ATOM
      1 N1         0.7586    1.7671   -1.5159 N.3       1 RES1    0.0000
      2 C1        -0.1240    2.9027   -1.5773 C.3       1 RES1    0.0000
      3 C2         0.7180    4.1796   -1.3899 C.3       1 RES1    0.0000
      4 C3         1.8824    4.2375   -2.4089 C.3       1 RES1    0.0000
      5 C4         2.4940    2.8666   -2.6741 C.2       1 RES1    0.0000
      6 C5         1.9538    1.7244   -2.1609 C.2       1 RES1    0.0000
      7 C6         2.9462    5.1991   -1.8654 C.ar      1 RES1    0.0000
      8 C7         3.1147    6.4602   -2.4089 C.ar      1 RES1    0.0000
      9 C8         4.1115    7.2838   -1.8908 C.ar      1 RES1    0.0000
     10 C9         4.9552    6.8977   -0.8815 C.ar      1 RES1    0.0000
     11 C10        4.7724    5.6436   -0.3323 C.ar      1 RES1    0.0000
     12 C11        3.7695    4.8059   -0.8193 C.ar      1 RES1    0.0000
     13 N2         4.2602    8.6316   -2.4597 N.pl3     1 RES1    0.0000
     14 O1         5.1019    9.3706   -1.9931 O.2       1 RES1    0.0000
     15 O2         3.5352    8.9598   -3.3813 O.2       1 RES1    0.0000
     16 C12       -0.1875    5.3987   -1.4242 C.2       1 RES1    0.0000
     17 O3        -0.9876    5.6539   -0.5713 O.2       1 RES1    0.0000
     18 O4         0.0004    6.1747   -2.4760 O.3       1 RES1    0.0000
     19 C13       -0.8144    7.3695   -2.5260 C.3       1 RES1    0.0000
     20 C14        3.6187    2.7987   -3.5941 C.2       1 RES1    0.0000
     21 O5         4.3271    1.8443   -3.8471 O.2       1 RES1    0.0000
     22 O6         3.7926    3.9909   -4.2301 O.3       1 RES1    0.0000
     23 C15        4.8586    4.1036   -5.1911 C.3       1 RES1    0.0000
     24 C16        6.0607    4.6737   -4.5011 C.3       1 RES1    0.0000
     25 C17        7.0993    4.9751   -5.4866 C.1       1 RES1    0.0000
     26 N3         7.8634    5.1875   -6.2944 N.1       1 RES1    0.0000
     27 C18       -1.2030    2.7084   -0.5001 C.3       1 RES1    0.0000
     28 O7        -0.6016    2.7796    0.7465 O.3       1 RES1    0.0000
     29 C19       -1.4334    3.2885    1.7778 C.3       1 RES1    0.0000
     30 O8        -1.7723    1.4294   -0.6761 O.3       1 RES1    0.0000
     31 C20       -3.1316    1.3948   -1.0567 C.3       1 RES1    0.0000
     32 O9        -0.7583    3.0272   -2.8378 O.3       1 RES1    0.0000
     33 C21        2.5468    0.3501   -2.2468 C.3       1 RES1    0.0000
     34 H1         0.4177    0.9943   -1.1296 H         1 RES1    0.0000
     35 H2         1.0355    4.1684   -0.4502 H         1 RES1    0.0000
     36 H3         1.5259    4.5955   -3.2250 H         1 RES1    0.0000
     37 H4         2.5780    6.7654   -3.0695 H         1 RES1    0.0000
     38 H5         5.6982    7.4517   -0.5893 H         1 RES1    0.0000
     39 H6         5.3893    5.2628    0.3929 H         1 RES1    0.0000
     40 H7         3.6532    3.9393   -0.4174 H         1 RES1    0.0000
     41 H8        -0.8498    7.8425   -1.7025 H         1 RES1    0.0000
     42 H9        -1.7012    7.0307   -2.7502 H         1 RES1    0.0000
     43 H10       -0.4888    7.8340   -3.1268 H         1 RES1    0.0000
     44 H11        5.1139    3.2332   -5.5496 H         1 RES1    0.0000
     45 H12        4.5831    4.9026   -5.9425 H         1 RES1    0.0000
     46 H13        6.4389    3.7908   -3.9207 H         1 RES1    0.0000
     47 H14        5.7948    5.5855   -4.0599 H         1 RES1    0.0000
     48 H15       -1.8651    3.3456   -0.5730 H         1 RES1    0.0000
     49 H16       -1.7328    4.1631    1.5797 H         1 RES1    0.0000
     50 H17       -2.1631    2.6841    1.9235 H         1 RES1    0.0000
     51 H18       -0.8964    3.2268    2.5702 H         1 RES1    0.0000
     52 H19       -3.6280    1.8548   -0.4256 H         1 RES1    0.0000
     53 H20       -3.4219    0.4255   -0.9904 H         1 RES1    0.0000
     54 H21       -3.1676    1.7033   -2.0463 H         1 RES1    0.0000
     55 H22       -0.8535    2.2185   -3.1841 H         1 RES1    0.0000
     56 H23        2.1072   -0.2263   -1.6616 H         1 RES1    0.0000
     57 H24        2.4551   -0.0082   -3.1104 H         1 RES1    0.0000
     58 H25        3.5336    0.3226   -2.1118 H         1 RES1    0.0000
@<TRIPOS>BOND
     1    1    2 1
     2    2    3 1
     3    3    4 1
     4    4    5 1
     5    5    6 2
     6    6    1 1
     7    7    4 1
     8    8    7 ar
     9    9    8 ar
    10   10    9 ar
    11   11   10 ar
    12   12    7 ar
    13   13    9 1
    14   14   13 2
    15   15   13 2
    16   16    3 1
    17   17   16 2
    18   18   16 1
    19   19   18 1
    20   20    5 1
    21   21   20 2
    22   22   20 1
    23   23   22 1
    24   24   23 1
    25   25   24 1
    26   26   25 3
    27   27    2 1
    28   28   27 1
    29   29   28 1
    30   30   27 1
    31   31   30 1
    32   32    2 1
    33   33    6 1
    34   34    1 1
    35   35    3 1
    36   36    4 1
    37   37    8 1
    38   38   10 1
    39   39   11 1
    40   40   12 1
    41   41   19 1
    42   42   19 1
    43   43   19 1
    44   44   23 1
    45   45   23 1
    46   46   24 1
    47   47   24 1
    48   48   27 1
    49   49   29 1
    50   50   29 1
    51   51   29 1
    52   52   31 1
    53   53   31 1
    54   54   31 1
    55   55   32 1
    56   56   33 1
    57   57   33 1
    58   58   33 1
    59   11   12 ar
@<TRIPOS>SUBSTRUCTURE
     1 RES1 1

@<TRIPOS>CRYSIN
   9.3810   14.8580    9.1880 101.8500 111.0700 100.8100   2 1

