# MOL2 file generated by ConQuest
# Please check atom types

@<TRIPOS>MOLECULE
HADWEQ
    76    78     2
SMALL
NO_CHARGES
****
Generated from CSD

@<TRIPOS>ATOM
      1 C1         2.6754    8.5000   -2.8529 C.ar      1 RES1    0.0000
      2 C2         7.6044    5.3573    3.6914 C.ar      2 RES2    0.0000
      3 O1         6.1816    6.7570   -0.5326 O.3       2 RES2    0.0000
      4 N1         8.8102    6.0034    3.3579 N.3       2 RES2    0.0000
      5 O2         3.0223    6.7297    0.2758 O.3       1 RES1    0.0000
      6 C3         1.6074    9.0711   -3.5395 C.ar      1 RES1    0.0000
      7 N2         0.3842    9.2450   -2.8748 N.3       1 RES1    0.0000
      8 C4         6.5639    5.3533    2.7746 C.ar      2 RES2    0.0000
      9 N3         9.6056    5.3846    5.9786 N.3       2 RES2    0.0000
     10 N4        -0.3992   10.6146   -5.2132 N.3       1 RES1    0.0000
     11 N5         5.7917    6.3144    0.7406 N.2       2 RES2    0.0000
     12 N6         3.4559    7.4135   -0.8781 N.2       1 RES1    0.0000
     13 C5         5.3112    4.7675    3.0884 C.ar      2 RES2    0.0000
     14 H1         4.6097    4.8207    2.4795 H         2 RES2    0.0000
     15 C6         3.9387    8.3609   -3.4842 C.ar      1 RES1    0.0000
     16 H2         4.6724    8.0780   -2.9869 H         1 RES1    0.0000
     17 C7         5.1329    4.1323    4.2693 C.ar      2 RES2    0.0000
     18 H3         4.3062    3.7520    4.4634 H         2 RES2    0.0000
     19 C8         4.0914    8.6307   -4.7935 C.ar      1 RES1    0.0000
     20 H4         4.9205    8.5021   -5.1949 H         1 RES1    0.0000
     21 C9         6.1759    4.0360    5.2110 C.ar      2 RES2    0.0000
     22 C10        3.0080    9.1083   -5.5686 C.ar      1 RES1    0.0000
     23 C11        5.9893    3.2456    6.3671 C.ar      2 RES2    0.0000
     24 H5         5.1602    2.8559    6.5272 H         2 RES2    0.0000
     25 C12        3.1667    9.2369   -6.9669 C.ar      1 RES1    0.0000
     26 H6         3.9828    9.0267   -7.3588 H         1 RES1    0.0000
     27 C13        2.1366    9.6666   -7.7432 C.ar      1 RES1    0.0000
     28 H7         2.2210    9.6695   -8.6689 H         1 RES1    0.0000
     29 C14        6.9945    3.0485    7.2411 C.ar      2 RES2    0.0000
     30 H8         6.8865    2.4603    7.9544 H         2 RES2    0.0000
     31 C15        0.9556   10.1007   -7.1466 C.ar      1 RES1    0.0000
     32 H9         0.2753   10.4301   -7.6880 H         1 RES1    0.0000
     33 C16        8.2044    3.7316    7.0714 C.ar      2 RES2    0.0000
     34 H10        8.8835    3.6022    7.6931 H         2 RES2    0.0000
     35 C17        8.4257    4.5921    6.0145 C.ar      2 RES2    0.0000
     36 C18        0.7590   10.0602   -5.7753 C.ar      1 RES1    0.0000
     37 C19        1.7682    9.4468   -4.9368 C.ar      1 RES1    0.0000
     38 C20        7.4320    4.6987    4.9773 C.ar      2 RES2    0.0000
     39 C21        8.8375    7.3607    2.8631 C.3       2 RES2    0.0000
     40 H11        8.0093    7.7962    3.0786 H         2 RES2    0.0000
     41 H12        8.9564    7.3515    1.9110 H         2 RES2    0.0000
     42 H13        9.5646    7.8361    3.2721 H         2 RES2    0.0000
     43 C22        0.2982    9.8486   -1.5551 C.3       1 RES1    0.0000
     44 H14        1.1269   10.2872   -1.3492 H         1 RES1    0.0000
     45 H15        0.1273    9.1660   -0.9012 H         1 RES1    0.0000
     46 H16       -0.4149   10.4896   -1.5427 H         1 RES1    0.0000
     47 C23       10.0030    5.2156    3.1129 C.3       2 RES2    0.0000
     48 H17        9.8875    4.3359    3.4808 H         2 RES2    0.0000
     49 H18       10.7578    5.6396    3.5283 H         2 RES2    0.0000
     50 H19       10.1542    5.1492    2.1672 H         2 RES2    0.0000
     51 C24       -0.8118    8.5458   -3.2990 C.3       1 RES1    0.0000
     52 H20       -0.6753    8.1815   -4.1766 H         1 RES1    0.0000
     53 H21       -1.5512    9.1590   -3.3179 H         1 RES1    0.0000
     54 H22       -1.0021    7.8347   -2.6832 H         1 RES1    0.0000
     55 C25       10.7154    4.9380    6.7973 C.3       2 RES2    0.0000
     56 H23       10.8647    4.0004    6.6510 H         2 RES2    0.0000
     57 H24       10.5101    5.0880    7.7236 H         2 RES2    0.0000
     58 H25       11.5056    5.4281    6.5611 H         2 RES2    0.0000
     59 C26       -1.5235   10.8469   -6.1020 C.3       1 RES1    0.0000
     60 H26       -1.6415   10.0847   -6.6731 H         1 RES1    0.0000
     61 H27       -1.3529   11.6244   -6.6375 H         1 RES1    0.0000
     62 H28       -2.3192   10.9840   -5.5819 H         1 RES1    0.0000
     63 C27        9.3552    6.8089    6.1804 C.3       2 RES2    0.0000
     64 H29        8.6220    7.0861    5.6260 H         2 RES2    0.0000
     65 H30       10.1403    7.3082    5.9467 H         2 RES2    0.0000
     66 H31        9.1368    6.9676    7.1025 H         2 RES2    0.0000
     67 C28       -0.1749   11.7433   -4.3099 C.3       1 RES1    0.0000
     68 H32        0.5737   11.5532   -3.7405 H         1 RES1    0.0000
     69 H33       -0.9582   11.8837   -3.7727 H         1 RES1    0.0000
     70 H34        0.0066   12.5328   -4.8232 H         1 RES1    0.0000
     71 C29        6.7745    5.8886    1.4252 C.2       2 RES2    0.0000
     72 H35        7.6323    5.9176    1.0675 H         2 RES2    0.0000
     73 C30        2.4749    7.8457   -1.5619 C.2       1 RES1    0.0000
     74 H36        1.6114    7.7425   -1.2338 H         1 RES1    0.0000
     75 H37        3.8768    6.4089    0.7366 H         1 RES1    0.0000
     76 H38        5.2757    7.0272   -0.9945 H         2 RES2    0.0000
@<TRIPOS>BOND
     1    1    6 ar
     2    2    4 1
     3    3   11 1
     4    4   39 1
     5    5   12 1
     6    6    7 1
     7    7   43 1
     8    8    2 ar
     9    9   35 1
    10   10   36 1
    11   11   71 2
    12   12   73 2
    13   13    8 ar
    14   14   13 1
    15   15    1 ar
    16   16   15 1
    17   17   13 ar
    18   18   17 1
    19   19   15 ar
    20   20   19 1
    21   21   17 ar
    22   22   19 ar
    23   23   21 ar
    24   24   23 1
    25   25   22 ar
    26   26   25 1
    27   27   25 ar
    28   28   27 1
    29   29   23 ar
    30   30   29 1
    31   31   27 ar
    32   32   31 1
    33   33   29 ar
    34   34   33 1
    35   35   33 ar
    36   36   31 ar
    37   37    6 ar
    38   38    2 ar
    39   39   40 1
    40   41   39 1
    41   42   39 1
    42   43   44 1
    43   45   43 1
    44   46   43 1
    45   47    4 1
    46   48   47 1
    47   49   47 1
    48   50   47 1
    49   51    7 1
    50   52   51 1
    51   53   51 1
    52   54   51 1
    53   55    9 1
    54   56   55 1
    55   57   55 1
    56   58   55 1
    57   59   10 1
    58   60   59 1
    59   61   59 1
    60   62   59 1
    61   63    9 1
    62   64   63 1
    63   65   63 1
    64   66   63 1
    65   67   10 1
    66   68   67 1
    67   69   67 1
    68   70   67 1
    69   71    8 1
    70   72   71 1
    71   73    1 1
    72   74   73 1
    73   75    5 1
    74   76    3 1
    75   21   38 ar
    76   22   37 ar
    77   35   38 ar
    78   36   37 ar
@<TRIPOS>SUBSTRUCTURE
     1 RES1 1
     2 RES2 2

@<TRIPOS>CRYSIN
   8.3498   10.0042   17.7560  98.8940 102.4140 101.2850   2 1

