# MOL2 file generated by ConQuest
# Please check atom types

@<TRIPOS>MOLECULE
HADWEO
    58    59     1
SMALL
NO_CHARGES
****
Generated from CSD

@<TRIPOS>ATOM
      1 N1         5.8188   -2.9041    9.1800 N.3       1 RES1    0.0000
      2 C1         5.3363   -1.9258    8.2690 C.3       1 RES1    0.0000
      3 C2         3.9014   -2.2866    7.8473 C.3       1 RES1    0.0000
      4 C3         3.6873   -3.7813    7.5075 C.3       1 RES1    0.0000
      5 C4         4.2627   -4.6413    8.6114 C.2       1 RES1    0.0000
      6 C5         5.3177   -4.1733    9.3473 C.2       1 RES1    0.0000
      7 C6         4.1523   -4.2039    6.1126 C.ar      1 RES1    0.0000
      8 C7         3.2423   -4.2369    5.0847 C.ar      1 RES1    0.0000
      9 C8         3.6392   -4.6806    3.8374 C.ar      1 RES1    0.0000
     10 C9         4.9143   -5.1185    3.5847 C.ar      1 RES1    0.0000
     11 C10        5.8269   -5.0757    4.6075 C.ar      1 RES1    0.0000
     12 C11        5.4522   -4.6152    5.8624 C.ar      1 RES1    0.0000
     13 N2         2.6404   -4.6920    2.7635 N.pl3     1 RES1    0.0000
     14 O1         2.9711   -5.1157    1.6664 O.2       1 RES1    0.0000
     15 O2         1.5200   -4.2701    2.9931 O.2       1 RES1    0.0000
     16 C12        3.4104   -1.4195    6.7144 C.2       1 RES1    0.0000
     17 O3         4.1056   -0.7553    5.9896 O.2       1 RES1    0.0000
     18 O4         2.0988   -1.5239    6.5685 O.3       1 RES1    0.0000
     19 C13        1.5291   -0.8431    5.4296 C.3       1 RES1    0.0000
     20 C14        3.6637   -5.9406    8.8171 C.2       1 RES1    0.0000
     21 O5         3.8775   -6.7352    9.7101 O.2       1 RES1    0.0000
     22 O6         2.7288   -6.1992    7.8704 O.3       1 RES1    0.0000
     23 C15        2.0619   -7.4702    7.9489 C.3       1 RES1    0.0000
     24 C16        1.1266   -7.5509    6.7887 C.3       1 RES1    0.0000
     25 C17        1.7944   -7.5682    5.5073 C.1       1 RES1    0.0000
     26 N3         2.3558   -7.5861    4.5016 N.1       1 RES1    0.0000
     27 C18        5.3408   -0.4503    8.8743 C.3       1 RES1    0.0000
     28 O7         6.6124   -0.1645    9.2713 O.3       1 RES1    0.0000
     29 C19        6.7533    1.2305    9.5189 C.3       1 RES1    0.0000
     30 O8         4.3915   -0.3525    9.9295 O.3       1 RES1    0.0000
     31 C20        4.7315   -0.8666   11.2212 C.3       1 RES1    0.0000
     32 O9         6.2255   -1.9131    7.1524 O.3       1 RES1    0.0000
     33 C21        6.0198   -4.9205   10.4272 C.3       1 RES1    0.0000
     34 H1         6.6189   -2.6806    9.6982 H         1 RES1    0.0000
     35 H2         3.2858   -2.1358    8.6310 H         1 RES1    0.0000
     36 H3         2.6637   -3.9307    7.5468 H         1 RES1    0.0000
     37 H4         2.2733   -3.9752    5.2589 H         1 RES1    0.0000
     38 H5         5.1633   -5.4148    2.7319 H         1 RES1    0.0000
     39 H6         6.7667   -5.3893    4.4649 H         1 RES1    0.0000
     40 H7         6.2180   -4.5792    6.5736 H         1 RES1    0.0000
     41 H8         1.3885   -1.4978    4.7552 H         1 RES1    0.0000
     42 H9         0.6133   -0.4442    5.6857 H         1 RES1    0.0000
     43 H10        2.1747   -0.0557    5.0796 H         1 RES1    0.0000
     44 H11        2.7827   -8.2426    7.9737 H         1 RES1    0.0000
     45 H12        1.4447   -7.5905    8.8103 H         1 RES1    0.0000
     46 H13        0.5622   -8.4722    6.9919 H         1 RES1    0.0000
     47 H14        0.5040   -6.7106    6.7016 H         1 RES1    0.0000
     48 H15        5.0733    0.2940    8.1273 H         1 RES1    0.0000
     49 H16        6.7591    1.3133   10.5433 H         1 RES1    0.0000
     50 H17        7.7235    1.6448    9.1006 H         1 RES1    0.0000
     51 H18        5.9599    1.7452    9.0408 H         1 RES1    0.0000
     52 H19        4.8229   -1.8849   11.2775 H         1 RES1    0.0000
     53 H20        5.7458   -0.5485   11.4312 H         1 RES1    0.0000
     54 H21        4.0282   -0.5547   11.8666 H         1 RES1    0.0000
     55 H22        6.3828   -1.0390    6.7614 H         1 RES1    0.0000
     56 H23        6.1086   -5.8556   10.2275 H         1 RES1    0.0000
     57 H24        6.9743   -4.4637   10.5604 H         1 RES1    0.0000
     58 H25        5.4325   -4.9649   11.2690 H         1 RES1    0.0000
@<TRIPOS>BOND
     1    1    2 1
     2    2    3 1
     3    3    4 1
     4    4    5 1
     5    5    6 2
     6    6    1 1
     7    7    4 1
     8    8    7 ar
     9    9    8 ar
    10   10    9 ar
    11   11   10 ar
    12   12    7 ar
    13   13    9 1
    14   14   13 2
    15   15   13 2
    16   16    3 1
    17   17   16 2
    18   18   16 1
    19   19   18 1
    20   20    5 1
    21   21   20 2
    22   22   20 1
    23   23   22 1
    24   24   23 1
    25   25   24 1
    26   26   25 3
    27   27    2 1
    28   28   27 1
    29   29   28 1
    30   30   27 1
    31   31   30 1
    32   32    2 1
    33   33    6 1
    34   34    1 1
    35   35    3 1
    36   36    4 1
    37   37    8 1
    38   38   10 1
    39   39   11 1
    40   40   12 1
    41   41   19 1
    42   42   19 1
    43   43   19 1
    44   44   23 1
    45   45   23 1
    46   46   24 1
    47   47   24 1
    48   48   27 1
    49   49   29 1
    50   50   29 1
    51   51   29 1
    52   52   31 1
    53   53   31 1
    54   54   31 1
    55   55   32 1
    56   56   33 1
    57   57   33 1
    58   58   33 1
    59   11   12 ar
@<TRIPOS>SUBSTRUCTURE
     1 RES1 1

@<TRIPOS>CRYSIN
  11.0650   12.6130    9.5730  96.8000 111.8900 109.3400   2 1

