# MOL2 file generated by ConQuest
# Please check atom types

@<TRIPOS>MOLECULE
HAFBOF
    38    41     1
SMALL
NO_CHARGES
****
Generated from CSD

@<TRIPOS>ATOM
      1 N1         4.8278    2.7119    1.7433 N.2       1 RES1    0.0000
      2 N2         5.7026    1.7047    2.0503 N.2       1 RES1    0.0000
      3 C1         6.7550    2.3683    2.4731 C.2       1 RES1    0.0000
      4 N3         6.6275    3.7192    2.4698 N.2       1 RES1    0.0000
      5 C2         5.4087    3.8938    2.0103 C.2       1 RES1    0.0000
      6 C3         3.5233    2.4352    1.2527 C.2       1 RES1    0.0000
      7 C4         3.2919    1.3634    0.3994 C.2       1 RES1    0.0000
      8 C5         1.9999    1.0898   -0.0478 C.2       1 RES1    0.0000
      9 C6         0.9606    1.9115    0.3404 C.2       1 RES1    0.0000
     10 C7         1.1913    2.9832    1.1737 C.2       1 RES1    0.0000
     11 C8         2.4620    3.2427    1.6432 C.2       1 RES1    0.0000
     12 N4         4.4027    0.6172   -0.1446 N.2       1 RES1    0.0000
     13 O1         5.2125    1.2258   -0.8622 O.2       1 RES1    0.0000
     14 H1         7.6014    1.8793    2.7590 H         1 RES1    0.0000
     15 H2         4.8849    4.7257    1.9135 H         1 RES1    0.0000
     16 H3         1.8273    0.3460   -0.5896 H         1 RES1    0.0000
     17 H4         0.0455    1.6748    0.0445 H         1 RES1    0.0000
     18 H5         0.4539    3.6091    1.4685 H         1 RES1    0.0000
     19 H6         2.6191    3.9865    2.3029 H         1 RES1    0.0000
     20 N4B        4.4123   -0.6172    0.1446 N.2       1 RES1    0.0000
     21 C4B        5.5231   -1.3634   -0.3994 C.2       1 RES1    0.0000
     22 O1B        3.6025   -1.2258    0.8622 O.2       1 RES1    0.0000
     23 C3B        5.2917   -2.4352   -1.2527 C.2       1 RES1    0.0000
     24 C5B        6.8151   -1.0898    0.0478 C.2       1 RES1    0.0000
     25 N1B        3.9872   -2.7119   -1.7433 N.2       1 RES1    0.0000
     26 C8B        6.3530   -3.2427   -1.6432 C.2       1 RES1    0.0000
     27 C6B        7.8544   -1.9115   -0.3404 C.2       1 RES1    0.0000
     28 H3B        6.9877   -0.3460    0.5896 H         1 RES1    0.0000
     29 N2B        3.1124   -1.7047   -2.0503 N.2       1 RES1    0.0000
     30 C2B        3.4063   -3.8938   -2.0103 C.2       1 RES1    0.0000
     31 C7B        7.6237   -2.9832   -1.1737 C.2       1 RES1    0.0000
     32 H6B        6.1959   -3.9865   -2.3029 H         1 RES1    0.0000
     33 H4B        8.7695   -1.6748   -0.0445 H         1 RES1    0.0000
     34 C1B        2.0600   -2.3683   -2.4731 C.2       1 RES1    0.0000
     35 N3B        2.1875   -3.7192   -2.4698 N.2       1 RES1    0.0000
     36 H2B        3.9301   -4.7257   -1.9135 H         1 RES1    0.0000
     37 H5B        8.3611   -3.6091   -1.4685 H         1 RES1    0.0000
     38 H1B        1.2136   -1.8793   -2.7590 H         1 RES1    0.0000
@<TRIPOS>BOND
     1    1    2 1
     2    2    3 1
     3    3    4 1
     4    4    5 1
     5    5    1 1
     6    6    1 1
     7    7    6 1
     8    8    7 1
     9    9    8 1
    10   10    9 1
    11   11    6 1
    12   12    7 1
    13   13   12 1
    14   14    3 1
    15   15    5 1
    16   16    8 1
    17   17    9 1
    18   18   10 1
    19   19   11 1
    20   20   12 1
    21   21   20 1
    22   22   20 1
    23   23   21 1
    24   24   21 1
    25   25   23 1
    26   26   23 1
    27   27   24 1
    28   28   24 1
    29   29   25 1
    30   30   25 1
    31   31   26 1
    32   32   26 1
    33   33   27 1
    34   34   29 1
    35   35   30 1
    36   36   30 1
    37   37   31 1
    38   38   34 1
    39   10   11 1
    40   27   31 1
    41   34   35 1
@<TRIPOS>SUBSTRUCTURE
     1 RES1 1

@<TRIPOS>CRYSIN
   8.8150    7.8630   11.8360  90.0000 109.9600  90.0000  14 1

