# MOL2 file generated by ConQuest
# Please check atom types

@<TRIPOS>MOLECULE
HAFKEG
    30    31     1
SMALL
NO_CHARGES
****
Generated from CSD

@<TRIPOS>ATOM
      1 H1        -2.0833    3.2577    7.8996 H         1 RES1    0.0000
      2 H2         1.7434    1.1196    5.6737 H         1 RES1    0.0000
      3 N1        -0.3731    0.1076    4.3367 N.2       1 RES1    0.0000
      4 N2        -1.2397    1.4535    6.2004 N.2       1 RES1    0.0000
      5 N3         0.7735    2.1162    6.9841 N.2       1 RES1    0.0000
      6 N4         0.9216    1.3140    5.9192 N.pl3     1 RES1    0.0000
      7 C1        -0.2714    0.9304    5.4643 C.2       1 RES1    0.0000
      8 C2        -1.2196    2.9994    8.1356 C.3       1 RES1    0.0000
      9 O1         0.5909    4.1230    9.0581 O.2       1 RES1    0.0000
     10 N5        -0.4301    4.2439    8.4028 N.pl3     1 RES1    0.0000
     11 C3        -0.5451    2.1707    7.1046 C.2       1 RES1    0.0000
     12 O2        -0.8461    5.2746    7.9138 O.2       1 RES1    0.0000
     13 N6        -1.3654    2.2955    9.4712 N.pl3     1 RES1    0.0000
     14 O3        -1.8169    2.9674   10.3716 O.2       1 RES1    0.0000
     15 O4        -1.0397    1.1443    9.5356 O.2       1 RES1    0.0000
     16 H1B        0.1335   -3.2577    0.4686 H         1 RES1    0.0000
     17 H2B       -3.6933   -1.1196    2.6946 H         1 RES1    0.0000
     18 N1B       -1.5767   -0.1076    4.0316 N.2       1 RES1    0.0000
     19 N2B       -0.7101   -1.4535    2.1679 N.2       1 RES1    0.0000
     20 N3B       -2.7233   -2.1162    1.3841 N.2       1 RES1    0.0000
     21 N4B       -2.8714   -1.3140    2.4491 N.pl3     1 RES1    0.0000
     22 C1B       -1.6785   -0.9304    2.9039 C.2       1 RES1    0.0000
     23 C2B       -0.7302   -2.9994    0.2326 C.3       1 RES1    0.0000
     24 O1B       -2.5407   -4.1230   -0.6899 O.2       1 RES1    0.0000
     25 N5B       -1.5197   -4.2439   -0.0346 N.pl3     1 RES1    0.0000
     26 C3B       -1.4047   -2.1707    1.2636 C.2       1 RES1    0.0000
     27 O2B       -1.1038   -5.2746    0.4545 O.2       1 RES1    0.0000
     28 N6B       -0.5844   -2.2955   -1.1029 N.pl3     1 RES1    0.0000
     29 O3B       -0.1329   -2.9674   -2.0034 O.2       1 RES1    0.0000
     30 O4B       -0.9101   -1.1443   -1.1674 O.2       1 RES1    0.0000
@<TRIPOS>BOND
     1    1    8 1
     2    2    6 1
     3    3    7 1
     4    4    7 2
     5    5    6 1
     6    6    7 1
     7    8   10 1
     8    9   10 2
     9   10   12 2
    10   11    4 1
    11   13    8 1
    12   14   13 2
    13   15   13 2
    14   16   23 1
    15   17   21 1
    16   18    3 2
    17   19   22 2
    18   20   21 1
    19   21   22 1
    20   22   18 1
    21   23   25 1
    22   24   25 2
    23   25   27 2
    24   26   19 1
    25   28   23 1
    26   29   28 2
    27   30   28 2
    28    5   11 2
    29    8   11 1
    30   20   26 2
    31   23   26 1
@<TRIPOS>SUBSTRUCTURE
     1 RES1 1

@<TRIPOS>CRYSIN
   4.9522   16.5869    8.5924  90.0000 103.1160  90.0000 231 1

