# MOL2 file generated by ConQuest
# Please check atom types

@<TRIPOS>MOLECULE
HAFXOB
    70    72     2
SMALL
USER_CHARGES
****
Generated from CSD

@<TRIPOS>ATOM
      1 O1         4.2366    0.6376    3.2034 O.3       1 RES1    0.0000
      2 O2         7.9708    5.7025    1.9167 O.2       1 RES1   -1.0000
      3 O3        10.5414    1.9407    2.6331 O.2       1 RES1    0.0000
      4 N1         8.9732    4.9453    2.1262 N.pl3     1 RES1    1.0000
      5 N2        10.1673    3.1497    2.4237 N.3       1 RES1    0.0000
      6 C1         5.3801    1.3159    2.9165 C.ar      1 RES1    0.0000
      7 C2         5.4260    2.6597    3.2544 C.ar      1 RES1    0.0000
      8 C3         6.5543    3.3991    3.0221 C.ar      1 RES1    0.0000
      9 C4         7.6896    2.8201    2.4536 C.ar      1 RES1    0.0000
     10 C5         7.6296    1.4686    2.1033 C.ar      1 RES1    0.0000
     11 C6         6.4813    0.7292    2.3304 C.ar      1 RES1    0.0000
     12 C7         8.9085    3.5964    2.3093 C.2       1 RES1    0.0000
     13 C8        10.3508    5.4709    2.3005 C.3       1 RES1    0.0000
     14 C9        10.5885    6.5832    1.2884 C.3       1 RES1    0.0000
     15 C10       10.3979    6.0309    3.7121 C.3       1 RES1    0.0000
     16 C11       11.1873    4.1907    2.0998 C.3       1 RES1    0.0000
     17 C12       12.4027    4.0329    3.0291 C.3       1 RES1    0.0000
     18 C13       11.6250    3.9692    0.6688 C.3       1 RES1    0.0000
     19 O4         6.9496    5.7305    6.1797 O.3       2 RES2    0.0000
     20 O5        13.2556    4.4363    6.8908 O.2       2 RES2   -1.0000
     21 O6        10.6661    0.6503    7.3713 O.2       2 RES2    0.0000
     22 N3        12.8756    3.2133    7.0386 N.pl3     2 RES2    1.0000
     23 N4        11.6650    1.4304    7.2305 N.3       2 RES2    0.0000
     24 C14        8.1037    5.0497    6.4560 C.ar      2 RES2    0.0000
     25 C15        9.1720    5.6160    7.1126 C.ar      2 RES2    0.0000
     26 C16       10.3156    4.8741    7.3449 C.ar      2 RES2    0.0000
     27 C17       10.4073    3.5493    6.8873 C.ar      2 RES2    0.0000
     28 C18        9.3085    3.0122    6.2501 C.ar      2 RES2    0.0000
     29 C19        8.1684    3.7262    6.0354 C.ar      2 RES2    0.0000
     30 C20       11.6179    2.7794    7.0545 C.2       2 RES2    0.0000
     31 C21       13.8956    2.1507    7.3273 C.3       2 RES2    0.0000
     32 C22       14.2733    2.3378    8.7935 C.3       2 RES2    0.0000
     33 C23       15.0933    2.3479    6.4244 C.3       2 RES2    0.0000
     34 C24       13.0544    0.8654    7.0492 C.3       2 RES2    0.0000
     35 C25       13.2686   -0.2711    8.0120 C.3       2 RES2    0.0000
     36 C26       13.1356    0.3818    5.6130 C.3       2 RES2    0.0000
     37 H1         4.2942   -0.3945    3.0978 H         1 RES1    0.0000
     38 H2         4.6825    3.0924    3.6258 H         1 RES1    0.0000
     39 H3         6.5178    4.2887    3.3090 H         1 RES1    0.0000
     40 H4         8.4120    1.0308    1.6193 H         1 RES1    0.0000
     41 H5         6.4590   -0.2927    2.1121 H         1 RES1    0.0000
     42 H6        10.4826    6.2103    0.4400 H         1 RES1    0.0000
     43 H7        10.0238    7.3302    1.5137 H         1 RES1    0.0000
     44 H8        11.5415    6.8084    1.3553 H         1 RES1    0.0000
     45 H9        11.2591    6.4521    3.8546 H         1 RES1    0.0000
     46 H10       10.2003    5.3449    4.3474 H         1 RES1    0.0000
     47 H11        9.7650    6.6939    3.8018 H         1 RES1    0.0000
     48 H12       12.8356    3.1433    2.7106 H         1 RES1    0.0000
     49 H13       13.0474    4.9631    2.6754 H         1 RES1    0.0000
     50 H14       12.1650    4.0850    3.9250 H         1 RES1    0.0000
     51 H15       10.9062    4.2250    0.0528 H         1 RES1    0.0000
     52 H16       12.3297    4.7213    0.1408 H         1 RES1    0.0000
     53 H17       11.9650    3.1051    0.4752 H         1 RES1    0.0000
     54 H18        7.0943    6.7575    6.4772 H         2 RES2    0.0000
     55 H19        9.1296    6.5412    7.4628 H         2 RES2    0.0000
     56 H20       11.0356    5.2558    7.8148 H         2 RES2    0.0000
     57 H21        9.3532    2.1125    5.9491 H         2 RES2    0.0000
     58 H22        7.3767    3.3978    5.6323 H         2 RES2    0.0000
     59 H23       14.9768    1.7053    8.8885 H         2 RES2    0.0000
     60 H24       14.7651    3.3088    8.8181 H         2 RES2    0.0000
     61 H25       13.4121    2.2780    9.4165 H         2 RES2    0.0000
     62 H26       15.4827    3.3469    6.4244 H         2 RES2    0.0000
     63 H27       14.8945    2.4052    5.4035 H         2 RES2    0.0000
     64 H28       15.6827    1.7053    6.6884 H         2 RES2    0.0000
     65 H29       14.1768   -0.5090    7.9733 H         2 RES2    0.0000
     66 H30       13.0592   -0.0255    8.9237 H         2 RES2    0.0000
     67 H31       12.6474   -0.9672    7.7972 H         2 RES2    0.0000
     68 H32       12.4591   -0.3181    5.5619 H         2 RES2    0.0000
     69 H33       13.0827    1.1326    5.0339 H         2 RES2    0.0000
     70 H34       14.0356    0.0764    5.5091 H         2 RES2    0.0000
@<TRIPOS>BOND
     1    1    6 1
     2    2    4 1
     3    3    5 1
     4    4   12 2
     5    5   12 1
     6    6    7 ar
     7    7    8 ar
     8    8    9 ar
     9    9   10 ar
    10   10   11 ar
    11   11    6 ar
    12   12    9 1
    13   13    4 1
    14   14   13 1
    15   15   13 1
    16   16    5 1
    17   17   16 1
    18   18   16 1
    19   19   24 1
    20   20   22 1
    21   21   23 1
    22   22   30 2
    23   23   30 1
    24   24   25 ar
    25   25   26 ar
    26   26   27 ar
    27   27   28 ar
    28   28   29 ar
    29   29   24 ar
    30   30   27 1
    31   31   22 1
    32   32   31 1
    33   33   31 1
    34   34   23 1
    35   35   34 1
    36   36   34 1
    37   37    1 1
    38   38    7 1
    39   39    8 1
    40   40   10 1
    41   41   11 1
    42   42   14 1
    43   43   14 1
    44   44   14 1
    45   45   15 1
    46   46   15 1
    47   47   15 1
    48   48   17 1
    49   49   17 1
    50   50   17 1
    51   51   18 1
    52   52   18 1
    53   53   18 1
    54   54   19 1
    55   55   25 1
    56   56   26 1
    57   57   28 1
    58   58   29 1
    59   59   32 1
    60   60   32 1
    61   61   32 1
    62   62   33 1
    63   63   33 1
    64   64   33 1
    65   65   35 1
    66   66   35 1
    67   67   35 1
    68   68   36 1
    69   69   36 1
    70   70   36 1
    71   13   16 1
    72   31   34 1
@<TRIPOS>SUBSTRUCTURE
     1 RES1 1
     2 RES2 19

@<TRIPOS>CRYSIN
  11.7650   12.7260   17.6010  90.0000  90.0000  90.0000  29 1

