# MOL2 file generated by ConQuest
# Please check atom types

@<TRIPOS>MOLECULE
HAGLUX
    96   100     2
SMALL
NO_CHARGES
****
Generated from CSD

@<TRIPOS>ATOM
      1 C1        -2.7696    4.3896   13.9700 C.2       1 RES1    0.0000
      2 C2        -1.6280    3.8783   13.1022 C.3       1 RES1    0.0000
      3 C3        -0.7185    5.0336   12.6801 C.3       1 RES1    0.0000
      4 C4        -0.2499    5.8422   13.8876 C.3       1 RES1    0.0000
      5 C5        -1.4357    6.4119   14.6544 C.3       1 RES1    0.0000
      6 C6        -2.3827    5.3026   15.0967 C.3       1 RES1    0.0000
      7 C7        -2.1754    2.9883   11.9620 C.3       1 RES1    0.0000
      8 C8        -1.1354    2.0205   11.4272 C.3       1 RES1    0.0000
      9 C9        -1.7078    1.0899   10.3728 C.3       1 RES1    0.0000
     10 C10       -2.2892    1.8949    9.2107 C.3       1 RES1    0.0000
     11 C11       -3.3331    2.8751    9.7001 C.3       1 RES1    0.0000
     12 C12       -2.7439    3.7916   10.7831 C.3       1 RES1    0.0000
     13 C13        0.5111    0.6759   12.5052 C.2       1 RES1    0.0000
     14 C14        0.8333   -0.1398   13.7379 C.ar      1 RES1    0.0000
     15 C15        2.0982   -0.7095   13.8018 C.ar      1 RES1    0.0000
     16 C16        2.4565   -1.4720   14.9000 C.ar      1 RES1    0.0000
     17 C17        1.5190   -1.6561   15.9090 C.ar      1 RES1    0.0000
     18 C18        0.2510   -1.1200   15.8602 C.ar      1 RES1    0.0000
     19 C19       -0.0910   -0.3344   14.7587 C.ar      1 RES1    0.0000
     20 C20        1.8201    3.9526    3.8780 C.2       2 RES2    0.0000
     21 C21        1.3125    3.9031    5.3092 C.3       2 RES2    0.0000
     22 C22       -0.1901    4.2339    5.3142 C.3       2 RES2    0.0000
     23 C23       -0.4545    5.5927    4.6785 C.3       2 RES2    0.0000
     24 C24        0.0492    5.6317    3.2491 C.3       2 RES2    0.0000
     25 C25        1.5313    5.2371    3.1599 C.3       2 RES2    0.0000
     26 C26        1.7119    2.6256    6.0458 C.3       2 RES2    0.0000
     27 C27        1.5069    2.7229    7.5526 C.3       2 RES2    0.0000
     28 C28        2.0202    1.5057    8.2875 C.3       2 RES2    0.0000
     29 C29        1.3671    0.2353    7.7544 C.3       2 RES2    0.0000
     30 C30        1.5277    0.1168    6.2459 C.3       2 RES2    0.0000
     31 C31        0.9948    1.3606    5.5564 C.3       2 RES2    0.0000
     32 C32        1.6383    4.7063    8.8895 C.2       2 RES2    0.0000
     33 C33        2.5005    5.8776    9.2561 C.ar      2 RES2    0.0000
     34 C34        2.0757    6.7038   10.2820 C.ar      2 RES2    0.0000
     35 C35        2.8363    7.8043   10.6570 C.ar      2 RES2    0.0000
     36 C36        4.0176    8.0432    9.9742 C.ar      2 RES2    0.0000
     37 C37        4.4567    7.2382    8.9484 C.ar      2 RES2    0.0000
     38 C38        3.6935    6.1536    8.5868 C.ar      2 RES2    0.0000
     39 N1         1.9375   -2.4522   17.0711 N.pl3     1 RES1    0.0000
     40 N2         4.8329    9.2109   10.3610 N.pl3     2 RES2    0.0000
     41 O1        -3.9207    4.0375   13.8405 O.2       1 RES1    0.0000
     42 O2        -0.7164    1.1996   12.5876 O.3       1 RES1    0.0000
     43 O3         1.2744    0.8086   11.5836 O.2       1 RES1    0.0000
     44 O4         1.0622   -2.8026   17.8514 O.2       1 RES1    0.0000
     45 O5         3.1182   -2.6876   17.2174 O.2       1 RES1    0.0000
     46 O6         2.4077    3.0343    3.3517 O.2       2 RES2    0.0000
     47 O7         2.2400    3.8995    8.0268 O.3       2 RES2    0.0000
     48 O8         0.5471    4.5170    9.3621 O.2       2 RES2    0.0000
     49 O9         5.8388    9.4586    9.7018 O.2       2 RES2    0.0000
     50 O10        4.4427    9.8868   11.3129 O.2       2 RES2    0.0000
     51 H1        -1.0758    3.2838   13.6841 H         1 RES1    0.0000
     52 H2         0.0687    4.6745   12.2008 H         1 RES1    0.0000
     53 H3        -1.2086    5.6281   12.0579 H         1 RES1    0.0000
     54 H4         0.2817    5.2601   14.4880 H         1 RES1    0.0000
     55 H5         0.3328    6.5818   13.5832 H         1 RES1    0.0000
     56 H6        -1.9243    7.0524   14.0776 H         1 RES1    0.0000
     57 H7        -1.1093    6.9038   15.4499 H         1 RES1    0.0000
     58 H8        -1.9468    4.7700   15.8081 H         1 RES1    0.0000
     59 H9        -3.2007    5.7095   15.4785 H         1 RES1    0.0000
     60 H10       -2.9239    2.4452   12.3404 H         1 RES1    0.0000
     61 H11       -0.3537    2.5212   11.0573 H         1 RES1    0.0000
     62 H12       -2.4184    0.5290   10.7764 H         1 RES1    0.0000
     63 H13       -0.9961    0.4901   10.0381 H         1 RES1    0.0000
     64 H14       -1.5618    2.3868    8.7550 H         1 RES1    0.0000
     65 H15       -2.6992    1.2774    8.5549 H         1 RES1    0.0000
     66 H16       -4.1065    2.3797   10.0701 H         1 RES1    0.0000
     67 H17       -3.6540    3.4236    8.9400 H         1 RES1    0.0000
     68 H18       -2.0233    4.3436   10.3863 H         1 RES1    0.0000
     69 H19       -3.4487    4.4020   11.1144 H         1 RES1    0.0000
     70 H20        2.7173   -0.5768   13.0938 H         1 RES1    0.0000
     71 H21        3.3215   -1.8595   14.9622 H         1 RES1    0.0000
     72 H22       -0.3735   -1.2810   16.5581 H         1 RES1    0.0000
     73 H23       -0.9513    0.0672   14.7049 H         1 RES1    0.0000
     74 H24        1.7638    4.6532    5.7901 H         2 RES2    0.0000
     75 H25       -0.6836    3.5368    4.8147 H         2 RES2    0.0000
     76 H26       -0.5239    4.2374    6.2459 H         2 RES2    0.0000
     77 H27       -1.4262    5.7785    4.6903 H         2 RES2    0.0000
     78 H28       -0.0020    6.2969    5.2066 H         2 RES2    0.0000
     79 H29       -0.0687    6.5446    2.8858 H         2 RES2    0.0000
     80 H30       -0.4884    5.0106    2.6958 H         2 RES2    0.0000
     81 H31        1.7857    5.1416    2.2081 H         2 RES2    0.0000
     82 H32        2.0842    5.9590    3.5518 H         2 RES2    0.0000
     83 H33        2.6907    2.4894    5.8894 H         2 RES2    0.0000
     84 H34        0.5332    2.8415    7.7460 H         2 RES2    0.0000
     85 H35        1.8254    1.5959    9.2545 H         2 RES2    0.0000
     86 H36        3.0017    1.4420    8.1765 H         2 RES2    0.0000
     87 H37        1.7774   -0.5538    8.1916 H         2 RES2    0.0000
     88 H38        0.4030    0.2424    7.9814 H         2 RES2    0.0000
     89 H39        2.4845   -0.0018    6.0239 H         2 RES2    0.0000
     90 H40        1.0354   -0.6794    5.9213 H         2 RES2    0.0000
     91 H41        0.0246    1.4437    5.7330 H         2 RES2    0.0000
     92 H42        1.1196    1.2704    4.5776 H         2 RES2    0.0000
     93 H43        1.2598    6.5181   10.7327 H         2 RES2    0.0000
     94 H44        2.5548    8.3740   11.3617 H         2 RES2    0.0000
     95 H45        5.2721    7.4292    8.4994 H         2 RES2    0.0000
     96 H46        3.9788    5.5892    7.8771 H         2 RES2    0.0000
@<TRIPOS>BOND
     1    1    2 1
     2    2    3 1
     3    3    4 1
     4    4    5 1
     5    5    6 1
     6    6    1 1
     7    7    2 1
     8    8    7 1
     9    9    8 1
    10   10    9 1
    11   11   10 1
    12   12    7 1
    13   13   14 1
    14   14   15 ar
    15   15   16 ar
    16   16   17 ar
    17   17   18 ar
    18   18   19 ar
    19   19   14 ar
    20   20   21 1
    21   21   22 1
    22   22   23 1
    23   23   24 1
    24   24   25 1
    25   25   20 1
    26   26   21 1
    27   27   26 1
    28   28   27 1
    29   29   28 1
    30   30   29 1
    31   31   26 1
    32   32   33 1
    33   33   34 ar
    34   34   35 ar
    35   35   36 ar
    36   36   37 ar
    37   37   38 ar
    38   38   33 ar
    39   39   17 1
    40   40   36 1
    41   41    1 2
    42   42    8 1
    43   43   13 2
    44   44   39 2
    45   45   39 2
    46   46   20 2
    47   47   27 1
    48   48   32 2
    49   49   40 2
    50   50   40 2
    51   51    2 1
    52   52    3 1
    53   53    3 1
    54   54    4 1
    55   55    4 1
    56   56    5 1
    57   57    5 1
    58   58    6 1
    59   59    6 1
    60   60    7 1
    61   61    8 1
    62   62    9 1
    63   63    9 1
    64   64   10 1
    65   65   10 1
    66   66   11 1
    67   67   11 1
    68   68   12 1
    69   69   12 1
    70   70   15 1
    71   71   16 1
    72   72   18 1
    73   73   19 1
    74   74   21 1
    75   75   22 1
    76   76   22 1
    77   77   23 1
    78   78   23 1
    79   79   24 1
    80   80   24 1
    81   81   25 1
    82   82   25 1
    83   83   26 1
    84   84   27 1
    85   85   28 1
    86   86   28 1
    87   87   29 1
    88   88   29 1
    89   89   30 1
    90   90   30 1
    91   91   31 1
    92   92   31 1
    93   93   34 1
    94   94   35 1
    95   95   37 1
    96   96   38 1
    97   11   12 1
    98   13   42 1
    99   30   31 1
   100   32   47 1
@<TRIPOS>SUBSTRUCTURE
     1 RES1 1
     2 RES2 20

@<TRIPOS>CRYSIN
  11.8110   17.6929   17.4510  90.0000 105.4900  90.0000 231 1

