# MOL2 file generated by ConQuest
# Please check atom types

@<TRIPOS>MOLECULE
HAGMEI
   122   128     2
SMALL
NO_CHARGES
****
Generated from CSD

@<TRIPOS>ATOM
      1 O1        -2.4724    2.7342   14.6809 O.2       1 RES1    0.0000
      2 O2        -1.1890    1.1487   15.2638 O.2       1 RES1    0.0000
      3 O3         2.9718    6.6900   13.2797 O.2       1 RES1    0.0000
      4 O4         4.2606    5.0081   13.9357 O.3       1 RES1    0.0000
      5 O5         7.2086    2.6356   11.0310 O.3       1 RES1    0.0000
      6 O6         9.2487    1.7359   11.1771 O.2       1 RES1    0.0000
      7 O7         6.1607   -4.4138   10.4043 O.2       1 RES1    0.0000
      8 O8         4.3041   -3.4930   11.0164 O.2       1 RES1    0.0000
      9 O9         3.9052    0.2936   14.8076 O.2       2 RES2    0.0000
     10 O10        5.2064    1.9849   15.1226 O.2       2 RES2    0.0000
     11 O11        9.4254   -3.6198   13.5054 O.2       2 RES2    0.0000
     12 O12       10.6519   -1.7782   13.6353 O.3       2 RES2    0.0000
     13 O13       13.5993    0.5426   10.6933 O.3       2 RES2    0.0000
     14 O14       15.6409    1.4846   10.8378 O.2       2 RES2    0.0000
     15 O15       12.4119    7.5614   10.2127 O.2       2 RES2    0.0000
     16 O16       10.5629    6.5960   10.6965 O.2       2 RES2    0.0000
     17 N1        -1.3624    2.2738   14.8807 N.pl3     1 RES1    0.0000
     18 N2         5.5035   -3.4554   10.7209 N.pl3     1 RES1    0.0000
     19 N3         5.0183    0.8081   14.8628 N.pl3     2 RES2    0.0000
     20 N4        11.7728    6.5795   10.4725 N.pl3     2 RES2    0.0000
     21 C1        -0.2103    3.1336   14.6404 C.ar      1 RES1    0.0000
     22 C2        -0.4228    4.4443   14.2539 C.ar      1 RES1    0.0000
     23 C3         0.6731    5.2312   13.9941 C.ar      1 RES1    0.0000
     24 C4         1.9565    4.7215   14.1159 C.ar      1 RES1    0.0000
     25 C5         2.1435    3.4248   14.5235 C.ar      1 RES1    0.0000
     26 C6         1.0426    2.6121   14.7832 C.ar      1 RES1    0.0000
     27 C7         3.0965    5.5930   13.7409 C.2       1 RES1    0.0000
     28 C8         5.4928    5.7222   13.5882 C.3       1 RES1    0.0000
     29 C9         6.1605    6.2624   14.8449 C.3       1 RES1    0.0000
     30 C10        7.1483    5.1678   15.2281 C.3       1 RES1    0.0000
     31 C11        7.6639    4.6980   13.8854 C.3       1 RES1    0.0000
     32 C12        6.4270    4.6957   12.9745 C.3       1 RES1    0.0000
     33 C13        6.6797    4.9399   11.5100 C.3       1 RES1    0.0000
     34 C14        5.4430    4.8836   10.6300 C.3       1 RES1    0.0000
     35 C15        5.6986    5.1561    9.1622 C.3       1 RES1    0.0000
     36 C16        6.7871    4.2165    8.6426 C.3       1 RES1    0.0000
     37 C17        8.0464    4.2846    9.4821 C.3       1 RES1    0.0000
     38 C18        7.7486    3.9980   10.9303 C.3       1 RES1    0.0000
     39 C19        8.0569    1.6161   11.0667 C.2       1 RES1    0.0000
     40 C20        7.3608    0.3171   10.9385 C.ar      1 RES1    0.0000
     41 C21        8.1145   -0.8409   10.7631 C.ar      1 RES1    0.0000
     42 C22        7.5056   -2.0601   10.6511 C.ar      1 RES1    0.0000
     43 C23        6.1574   -2.1329   10.7647 C.ar      1 RES1    0.0000
     44 C24        5.3743   -1.0124   10.9190 C.ar      1 RES1    0.0000
     45 C25        5.9806    0.2208   11.0002 C.ar      1 RES1    0.0000
     46 C26        6.1952   -0.0493   14.6176 C.ar      2 RES2    0.0000
     47 C27        6.0148   -1.4071   14.4650 C.ar      2 RES2    0.0000
     48 C28        7.1188   -2.1728   14.2004 C.ar      2 RES2    0.0000
     49 C29        8.3924   -1.5903   14.0835 C.ar      2 RES2    0.0000
     50 C30        8.5332   -0.2326   14.2588 C.ar      2 RES2    0.0000
     51 C31        7.4231    0.5567   14.5202 C.ar      2 RES2    0.0000
     52 C32        9.5108   -2.4618   13.7084 C.2       2 RES2    0.0000
     53 C33       11.8757   -2.5205   13.2408 C.3       2 RES2    0.0000
     54 C34       12.5443   -3.0772   14.4585 C.3       2 RES2    0.0000
     55 C35       13.5010   -1.9779   14.8888 C.3       2 RES2    0.0000
     56 C36       14.0221   -1.4470   13.5639 C.3       2 RES2    0.0000
     57 C37       12.8081   -1.4822   12.6319 C.3       2 RES2    0.0000
     58 C38       13.1417   -1.7406   11.1820 C.3       2 RES2    0.0000
     59 C39       11.9256   -1.7805   10.2679 C.3       2 RES2    0.0000
     60 C40       12.2953   -2.1164    8.8358 C.3       2 RES2    0.0000
     61 C41       13.3230   -1.1510    8.3244 C.3       2 RES2    0.0000
     62 C42       14.5416   -1.1111    9.1963 C.3       2 RES2    0.0000
     63 C43       14.1930   -0.8034   10.6332 C.3       2 RES2    0.0000
     64 C44       14.4476    1.5738   10.7712 C.2       2 RES2    0.0000
     65 C45       13.7193    2.8634   10.7323 C.ar      2 RES2    0.0000
     66 C46       14.4374    4.0426   10.5569 C.ar      2 RES2    0.0000
     67 C47       13.8206    5.2571   10.4903 C.ar      2 RES2    0.0000
     68 C48       12.4505    5.2782   10.5845 C.ar      2 RES2    0.0000
     69 C49       11.6992    4.1624   10.7712 C.ar      2 RES2    0.0000
     70 C50       12.3397    2.9480   10.8427 C.ar      2 RES2    0.0000
     71 H1        -1.3022    4.7896   14.1695 H         1 RES1    0.0000
     72 H2         0.5509    6.1356   13.7262 H         1 RES1    0.0000
     73 H3         3.0231    3.0795   14.6274 H         1 RES1    0.0000
     74 H4         1.1618    1.7101   15.0544 H         1 RES1    0.0000
     75 H5         5.3037    6.4621   12.9404 H         1 RES1    0.0000
     76 H6         6.6279    7.1151   14.6598 H         1 RES1    0.0000
     77 H7         5.4962    6.4081   15.5642 H         1 RES1    0.0000
     78 H8         7.8823    5.5295   15.7866 H         1 RES1    0.0000
     79 H9         6.6984    4.4349   15.7168 H         1 RES1    0.0000
     80 H10        8.0513    3.7913   13.9552 H         1 RES1    0.0000
     81 H11        8.3553    5.3158   13.5379 H         1 RES1    0.0000
     82 H12        5.9906    3.8007   13.0606 H         1 RES1    0.0000
     83 H13        7.0437    5.8678   11.4337 H         1 RES1    0.0000
     84 H14        5.0343    3.9863   10.7176 H         1 RES1    0.0000
     85 H15        4.7864    5.5460   10.9628 H         1 RES1    0.0000
     86 H16        5.9826    6.0957    9.0420 H         1 RES1    0.0000
     87 H17        4.8639    5.0175    8.6475 H         1 RES1    0.0000
     88 H18        6.4446    3.2886    8.6443 H         1 RES1    0.0000
     89 H19        7.0062    4.4584    7.7074 H         1 RES1    0.0000
     90 H20        8.7023    3.6245    9.1443 H         1 RES1    0.0000
     91 H21        8.4479    5.1842    9.4009 H         1 RES1    0.0000
     92 H22        8.5895    4.0685   11.4678 H         1 RES1    0.0000
     93 H23        9.0609   -0.7822   10.7225 H         1 RES1    0.0000
     94 H24        8.0203   -2.8423   10.4952 H         1 RES1    0.0000
     95 H25        4.4283   -1.0899   10.9677 H         1 RES1    0.0000
     96 H26        5.4537    1.0054   11.0976 H         1 RES1    0.0000
     97 H27        5.1519   -1.7970   14.5413 H         2 RES2    0.0000
     98 H28        7.0221   -3.1101   14.0932 H         2 RES2    0.0000
     99 H29        9.3941    0.1644   14.1987 H         2 RES2    0.0000
    100 H30        7.5106    1.4963   14.6306 H         2 RES2    0.0000
    101 H31       11.6636   -3.2440   12.5832 H         2 RES2    0.0000
    102 H32       13.0341   -3.9087   14.2442 H         2 RES2    0.0000
    103 H33       11.8822   -3.2675   15.1697 H         2 RES2    0.0000
    104 H34       14.2369   -2.3396   15.4424 H         2 RES2    0.0000
    105 H35       13.0297   -1.2708   15.3970 H         2 RES2    0.0000
    106 H36       14.7491   -2.0225   13.2164 H         2 RES2    0.0000
    107 H37       14.3626   -0.5238   13.6646 H         2 RES2    0.0000
    108 H38       12.3535   -0.5919   12.6887 H         2 RES2    0.0000
    109 H39       13.5426   -2.6567   11.1495 H         2 RES2    0.0000
    110 H40       11.2862   -2.4547   10.6056 H         2 RES2    0.0000
    111 H41       11.4754   -0.8973   10.2874 H         2 RES2    0.0000
    112 H42       12.6566   -3.0373    8.7936 H         2 RES2    0.0000
    113 H43       11.4877   -2.0765    8.2643 H         2 RES2    0.0000
    114 H44       13.5884   -1.4117    7.4070 H         2 RES2    0.0000
    115 H45       12.9262   -0.2443    8.2806 H         2 RES2    0.0000
    116 H46       15.1659   -0.4228    8.8570 H         2 RES2    0.0000
    117 H47       15.0021   -1.9873    9.1541 H         2 RES2    0.0000
    118 H48       15.0150   -0.8409   11.2015 H         2 RES2    0.0000
    119 H49       15.3842    4.0027   10.4806 H         2 RES2    0.0000
    120 H50       14.3191    6.0581   10.3848 H         2 RES2    0.0000
    121 H51       10.7535    4.2188   10.8492 H         2 RES2    0.0000
    122 H52       11.8309    2.1564   10.9693 H         2 RES2    0.0000
@<TRIPOS>BOND
     1    1   17 2
     2    2   17 2
     3    3   27 2
     4    4   27 1
     5    5   38 1
     6    6   39 2
     7    7   18 2
     8    8   18 2
     9    9   19 2
    10   10   19 2
    11   11   52 2
    12   12   52 1
    13   13   63 1
    14   14   64 2
    15   15   20 2
    16   16   20 2
    17   17   21 1
    18   18   43 1
    19   19   46 1
    20   20   68 1
    21   21   22 ar
    22   22   23 ar
    23   23   24 ar
    24   24   25 ar
    25   25   26 ar
    26   26   21 ar
    27   27   24 1
    28   28    4 1
    29   29   28 1
    30   30   29 1
    31   31   30 1
    32   32   28 1
    33   33   32 1
    34   34   33 1
    35   35   34 1
    36   36   35 1
    37   37   36 1
    38   38   33 1
    39   39    5 1
    40   40   39 1
    41   41   40 ar
    42   42   41 ar
    43   43   42 ar
    44   44   43 ar
    45   45   40 ar
    46   46   47 ar
    47   47   48 ar
    48   48   49 ar
    49   49   50 ar
    50   50   51 ar
    51   51   46 ar
    52   52   49 1
    53   53   12 1
    54   54   53 1
    55   55   54 1
    56   56   55 1
    57   57   53 1
    58   58   57 1
    59   59   58 1
    60   60   59 1
    61   61   60 1
    62   62   61 1
    63   63   58 1
    64   64   13 1
    65   65   64 1
    66   66   65 ar
    67   67   66 ar
    68   68   67 ar
    69   69   68 ar
    70   70   65 ar
    71   71   22 1
    72   72   23 1
    73   73   25 1
    74   74   26 1
    75   75   28 1
    76   76   29 1
    77   77   29 1
    78   78   30 1
    79   79   30 1
    80   80   31 1
    81   81   31 1
    82   82   32 1
    83   83   33 1
    84   84   34 1
    85   85   34 1
    86   86   35 1
    87   87   35 1
    88   88   36 1
    89   89   36 1
    90   90   37 1
    91   91   37 1
    92   92   38 1
    93   93   41 1
    94   94   42 1
    95   95   44 1
    96   96   45 1
    97   97   47 1
    98   98   48 1
    99   99   50 1
   100  100   51 1
   101  101   53 1
   102  102   54 1
   103  103   54 1
   104  104   55 1
   105  105   55 1
   106  106   56 1
   107  107   56 1
   108  108   57 1
   109  109   58 1
   110  110   59 1
   111  111   59 1
   112  112   60 1
   113  113   60 1
   114  114   61 1
   115  115   61 1
   116  116   62 1
   117  117   62 1
   118  118   63 1
   119  119   66 1
   120  120   67 1
   121  121   69 1
   122  122   70 1
   123   31   32 1
   124   37   38 1
   125   44   45 ar
   126   56   57 1
   127   62   63 1
   128   69   70 ar
@<TRIPOS>SUBSTRUCTURE
     1 RES1 1
     2 RES2 9

@<TRIPOS>CRYSIN
  12.7241   23.4900   16.3503  90.0000  96.7670  90.0000 231 1

