# MOL2 file generated by ConQuest
# Please check atom types

@<TRIPOS>MOLECULE
HAGMIM
    50    52     1
SMALL
NO_CHARGES
****
Generated from CSD

@<TRIPOS>ATOM
      1 O1        17.7936    2.6474    5.4022 O.2       1 RES1    0.0000
      2 O2        13.2405    2.5492    3.3883 O.3       1 RES1    0.0000
      3 O3        12.2236    1.4822    1.6967 O.2       1 RES1    0.0000
      4 O4        10.5003    4.4498    6.9048 O.2       1 RES1    0.0000
      5 O5         8.5582    3.6033    7.3275 O.2       1 RES1    0.0000
      6 O6         6.4806    0.7129    3.9944 O.2       1 RES1    0.0000
      7 O7         7.5725    0.3090    2.1745 O.2       1 RES1    0.0000
      8 N1         9.5646    3.7144    6.6411 N.pl3     1 RES1    0.0000
      9 N2         7.4850    0.7580    3.3019 N.pl3     1 RES1    0.0000
     10 C1        17.9728    2.1243    4.3166 C.2       1 RES1    0.0000
     11 C2        19.3731    1.7107    3.9208 C.3       1 RES1    0.0000
     12 C3        19.5377    0.7097    2.7945 C.3       1 RES1    0.0000
     13 C4        18.8313   -0.6276    3.0125 C.3       1 RES1    0.0000
     14 C5        17.3268   -0.6051    2.6969 C.3       1 RES1    0.0000
     15 C6        16.4995    0.3219    3.5511 C.3       1 RES1    0.0000
     16 C7        16.8225    1.8298    3.3822 C.3       1 RES1    0.0000
     17 C8        15.6181    2.7294    3.6877 C.3       1 RES1    0.0000
     18 C9        15.9598    4.2422    3.6598 C.3       1 RES1    0.0000
     19 C10       14.8992    4.9020    2.7700 C.3       1 RES1    0.0000
     20 C11       14.5595    3.7964    1.7792 C.3       1 RES1    0.0000
     21 C12       14.5116    2.5556    2.6423 C.3       1 RES1    0.0000
     22 C13       12.2069    1.9795    2.7856 C.2       1 RES1    0.0000
     23 C14       10.9608    2.0503    3.6258 C.ar      1 RES1    0.0000
     24 C15       10.8691    2.8292    4.7638 C.ar      1 RES1    0.0000
     25 C16        9.6605    2.8823    5.4306 C.ar      1 RES1    0.0000
     26 C17        8.5436    2.1823    5.0052 C.ar      1 RES1    0.0000
     27 C18        8.6728    1.4387    3.8622 C.ar      1 RES1    0.0000
     28 C19        9.8564    1.3422    3.1675 C.ar      1 RES1    0.0000
     29 H1        19.7586    1.3309    4.6724 H         1 RES1    0.0000
     30 H2        19.8482    2.5669    3.7301 H         1 RES1    0.0000
     31 H3        19.2522    1.1137    1.9961 H         1 RES1    0.0000
     32 H4        20.5129    0.5729    2.7488 H         1 RES1    0.0000
     33 H5        18.8771   -0.8900    3.9141 H         1 RES1    0.0000
     34 H6        19.2126   -1.3020    2.4477 H         1 RES1    0.0000
     35 H7        16.9600   -1.5257    2.7878 H         1 RES1    0.0000
     36 H8        17.2997   -0.3476    1.7675 H         1 RES1    0.0000
     37 H9        16.5766    0.1159    4.4772 H         1 RES1    0.0000
     38 H10       15.5931    0.2012    3.3621 H         1 RES1    0.0000
     39 H11       17.1059    1.9875    2.4588 H         1 RES1    0.0000
     40 H12       15.2430    2.5057    4.5441 H         1 RES1    0.0000
     41 H13       16.8517    4.3774    3.2394 H         1 RES1    0.0000
     42 H14       15.9869    4.6574    4.5497 H         1 RES1    0.0000
     43 H15       14.0573    5.1338    3.3119 H         1 RES1    0.0000
     44 H16       15.2263    5.7212    2.3418 H         1 RES1    0.0000
     45 H17       15.3138    3.7095    1.1374 H         1 RES1    0.0000
     46 H18       13.8052    3.9783    1.2991 H         1 RES1    0.0000
     47 H19       14.5762    1.7735    2.1522 H         1 RES1    0.0000
     48 H20       11.6214    3.3539    5.0961 H         1 RES1    0.0000
     49 H21        7.8434    2.2450    5.4697 H         1 RES1    0.0000
     50 H22        9.8981    0.8658    2.3752 H         1 RES1    0.0000
@<TRIPOS>BOND
     1    1   10 2
     2    2   21 1
     3    3   22 2
     4    4    8 2
     5    5    8 2
     6    6    9 2
     7    7    9 2
     8    8   25 1
     9    9   27 1
    10   10   11 1
    11   11   12 1
    12   12   13 1
    13   13   14 1
    14   14   15 1
    15   15   16 1
    16   16   10 1
    17   17   16 1
    18   18   17 1
    19   19   18 1
    20   20   19 1
    21   21   17 1
    22   22    2 1
    23   23   22 1
    24   24   23 ar
    25   25   24 ar
    26   26   25 ar
    27   27   26 ar
    28   28   23 ar
    29   29   11 1
    30   30   11 1
    31   31   12 1
    32   32   12 1
    33   33   13 1
    34   34   13 1
    35   35   14 1
    36   36   14 1
    37   37   15 1
    38   38   15 1
    39   39   16 1
    40   40   17 1
    41   41   18 1
    42   42   18 1
    43   43   19 1
    44   44   19 1
    45   45   20 1
    46   46   20 1
    47   47   21 1
    48   48   24 1
    49   49   26 1
    50   50   28 1
    51   20   21 1
    52   27   28 ar
@<TRIPOS>SUBSTRUCTURE
     1 RES1 1

@<TRIPOS>CRYSIN
  20.8380   16.0934    5.5756  90.0000  90.0000  90.0000  33 1

