# MOL2 file generated by ConQuest
# Please check atom types

@<TRIPOS>MOLECULE
HAGYUK
    58    63     1
SMALL
NO_CHARGES
****
Generated from CSD

@<TRIPOS>ATOM
      1 N1         3.5726    1.8959    7.5605 N.ar      1 RES1    0.0000
      2 N2         2.9972    0.3657    4.2545 N.pl3     1 RES1    0.0000
      3 N3         0.0224    5.8489   10.6206 N.ar      1 RES1    0.0000
      4 N4         1.0805    7.5132   13.7374 N.pl3     1 RES1    0.0000
      5 O1         3.5184    4.1093    8.2039 O.3       1 RES1    0.0000
      6 O2         1.0238    5.7915    8.5427 O.3       1 RES1    0.0000
      7 O3         2.6256    0.7097    3.1525 O.2       1 RES1    0.0000
      8 O4         3.3174   -0.7816    4.5194 O.2       1 RES1    0.0000
      9 O5         0.1872    7.1244   14.4699 O.2       1 RES1    0.0000
     10 O6         1.9812    8.2521   14.1048 O.2       1 RES1    0.0000
     11 C1         3.3431    3.1573    7.2455 C.ar      1 RES1    0.0000
     12 C2         2.9534    3.6041    6.0010 C.ar      1 RES1    0.0000
     13 H1         2.7019    4.5088    5.9220 H         1 RES1    0.0000
     14 C3         2.8170    2.6981    5.0181 C.ar      1 RES1    0.0000
     15 H2         2.6030    2.8605    4.1298 H         1 RES1    0.0000
     16 C4         3.0790    1.3731    5.3109 C.ar      1 RES1    0.0000
     17 C5         3.4371    1.0004    6.5776 C.ar      1 RES1    0.0000
     18 H3         3.6494    0.0649    6.7457 H         1 RES1    0.0000
     19 C6         1.9510    3.4380    9.8948 C.ar      1 RES1    0.0000
     20 C7         3.2377    3.7666    9.5297 C.ar      1 RES1    0.0000
     21 C8         4.2739    3.9204   10.4603 C.ar      1 RES1    0.0000
     22 H4         5.1522    4.1234   10.1186 H         1 RES1    0.0000
     23 C9         4.0197    3.7449   11.7794 C.ar      1 RES1    0.0000
     24 H5         4.7159    3.9345   12.4228 H         1 RES1    0.0000
     25 C10        2.4211    3.2627   13.6005 C.ar      1 RES1    0.0000
     26 H6         3.1690    3.4163   14.2706 H         1 RES1    0.0000
     27 C11        1.1769    2.9748   14.0168 C.ar      1 RES1    0.0000
     28 H7         0.9363    2.8578   14.8940 H         1 RES1    0.0000
     29 C12        0.1458    2.7682   13.0974 C.ar      1 RES1    0.0000
     30 H8        -0.6619    2.5770   13.3578 H         1 RES1    0.0000
     31 C13        0.3896    2.8735   11.7549 C.ar      1 RES1    0.0000
     32 H9        -0.3333    2.7209   11.0870 H         1 RES1    0.0000
     33 C14        1.6837    3.2205   11.2785 C.ar      1 RES1    0.0000
     34 C15        2.7261    3.3927   12.2347 C.ar      1 RES1    0.0000
     35 C16        0.8979    3.3859    8.8373 C.ar      1 RES1    0.0000
     36 C17        0.4937    4.5371    8.2039 C.ar      1 RES1    0.0000
     37 C18       -0.3203    4.5287    7.0574 C.ar      1 RES1    0.0000
     38 H10       -0.5872    5.3293    6.6455 H         1 RES1    0.0000
     39 C19       -0.7100    3.3423    6.5220 C.ar      1 RES1    0.0000
     40 H11       -1.2024    3.3553    5.7550 H         1 RES1    0.0000
     41 C20       -0.7147    0.8740    6.5698 C.ar      1 RES1    0.0000
     42 H12       -1.1743    0.8898    5.7661 H         1 RES1    0.0000
     43 C21       -0.3751   -0.2852    7.1676 C.ar      1 RES1    0.0000
     44 H13       -0.6430   -1.0620    6.8014 H         1 RES1    0.0000
     45 C22        0.3510   -0.2741    8.3676 C.ar      1 RES1    0.0000
     46 H14        0.5556   -1.0399    8.7271 H         1 RES1    0.0000
     47 C23        0.7537    0.8938    8.9186 C.ar      1 RES1    0.0000
     48 H15        1.2514    0.9077    9.8069 H         1 RES1    0.0000
     49 C24        0.4252    2.1361    8.3197 C.ar      1 RES1    0.0000
     50 C25       -0.3544    2.1224    7.1286 C.ar      1 RES1    0.0000
     51 C26        1.0011    6.2278    9.8336 C.ar      1 RES1    0.0000
     52 C27        2.0088    7.1108   10.1865 C.ar      1 RES1    0.0000
     53 H16        2.7246    7.3185    9.5620 H         1 RES1    0.0000
     54 C28        2.0393    7.5472   11.4833 C.ar      1 RES1    0.0000
     55 H17        2.7430    8.0935   11.8328 H         1 RES1    0.0000
     56 C29        1.0547    7.1135   12.3349 C.ar      1 RES1    0.0000
     57 C30        0.0558    6.2858   11.8807 C.ar      1 RES1    0.0000
     58 H18       -0.6531    5.9508   12.4673 H         1 RES1    0.0000
@<TRIPOS>BOND
     1    1   11 ar
     2    2    7 2
     3    3   51 ar
     4    4    9 2
     5    5   11 1
     6    6   36 1
     7    8    2 2
     8   10    4 2
     9   11   12 ar
    10   12   13 1
    11   14   12 ar
    12   15   14 1
    13   16    2 1
    14   17    1 ar
    15   18   17 1
    16   19   20 ar
    17   20    5 1
    18   21   20 ar
    19   22   21 1
    20   23   21 ar
    21   24   23 1
    22   25   26 1
    23   27   25 ar
    24   28   27 1
    25   29   27 ar
    26   30   29 1
    27   31   29 ar
    28   32   31 1
    29   33   19 ar
    30   34   23 ar
    31   35   19 1
    32   36   35 ar
    33   37   36 ar
    34   38   37 1
    35   39   37 ar
    36   40   39 1
    37   41   42 1
    38   43   41 ar
    39   44   43 1
    40   45   43 ar
    41   46   45 1
    42   47   45 ar
    43   48   47 1
    44   49   35 ar
    45   50   39 ar
    46   51    6 1
    47   52   51 ar
    48   53   52 1
    49   54   52 ar
    50   55   54 1
    51   56    4 1
    52   57    3 ar
    53   58   57 1
    54   14   16 ar
    55   16   17 ar
    56   25   34 ar
    57   31   33 ar
    58   33   34 ar
    59   41   50 ar
    60   47   49 ar
    61   49   50 ar
    62   54   56 ar
    63   56   57 ar
@<TRIPOS>SUBSTRUCTURE
     1 RES1 1

@<TRIPOS>CRYSIN
   7.4573    7.9472   11.7480  96.8590 104.0610 108.5990   1 1

