# MOL2 file generated by ConQuest
# Please check atom types

@<TRIPOS>MOLECULE
HAHBEA
    50    53     1
SMALL
NO_CHARGES
****
Generated from CSD

@<TRIPOS>ATOM
      1 O1         0.1631   -0.0931    8.7498 O.3       1 RES1    0.0000
      2 O2         4.4634    3.8980    8.0035 O.2       1 RES1    0.0000
      3 O3         4.3795    2.3301    6.5330 O.2       1 RES1    0.0000
      4 N1         1.3002    7.1589    5.4358 N.pl3     1 RES1    0.0000
      5 H1         1.3175    7.8167    4.8978 H         1 RES1    0.0000
      6 N2         4.2136    3.4946    6.8842 N.pl3     1 RES1    0.0000
      7 C1         0.8878    7.4301    6.8024 C.3       1 RES1    0.0000
      8 H2         1.6332    7.8602    7.2726 H         1 RES1    0.0000
      9 C2         0.5946    6.0963    7.4834 C.3       1 RES1    0.0000
     10 H3        -0.0958    5.6385    6.9584 H         1 RES1    0.0000
     11 C3         1.8497    5.1941    7.4977 C.3       1 RES1    0.0000
     12 H4         2.4279    5.5150    8.2209 H         1 RES1    0.0000
     13 C4         3.7211    4.4542    5.8836 C.ar      1 RES1    0.0000
     14 C5         4.4212    4.4782    4.7047 C.ar      1 RES1    0.0000
     15 H5         5.1152    3.8796    4.5451 H         1 RES1    0.0000
     16 C6         4.0594    5.4269    3.7575 C.ar      1 RES1    0.0000
     17 H6         4.5131    5.4715    2.9472 H         1 RES1    0.0000
     18 C7         3.0361    6.2946    4.0162 C.ar      1 RES1    0.0000
     19 H7         2.8085    6.9316    3.3770 H         1 RES1    0.0000
     20 C8         2.6494    5.2980    6.2011 C.ar      1 RES1    0.0000
     21 C9         2.3231    6.2476    5.2192 C.ar      1 RES1    0.0000
     22 C10       -0.2900    8.3797    6.8021 C.ar      1 RES1    0.0000
     23 C11       -0.2596    9.5503    7.5256 C.ar      1 RES1    0.0000
     24 H8         0.5018    9.7649    8.0147 H         1 RES1    0.0000
     25 C12       -1.3402   10.4129    7.5372 C.ar      1 RES1    0.0000
     26 H9        -1.2968   11.2068    8.0204 H         1 RES1    0.0000
     27 C13       -2.4746   10.0987    6.8367 C.ar      1 RES1    0.0000
     28 H10       -3.2047   10.6738    6.8447 H         1 RES1    0.0000
     29 C14       -2.5250    8.9346    6.1266 C.ar      1 RES1    0.0000
     30 H11       -3.2935    8.7158    5.6515 H         1 RES1    0.0000
     31 C15       -1.4381    8.0814    6.1116 C.ar      1 RES1    0.0000
     32 H12       -1.4853    7.2907    5.6245 H         1 RES1    0.0000
     33 C16        0.0515    6.2963    8.8900 C.3       1 RES1    0.0000
     34 H13       -0.7358    6.8447    8.8551 H         1 RES1    0.0000
     35 H14        0.7171    6.7269    9.4314 H         1 RES1    0.0000
     36 H15       -0.1693    5.4435    9.2714 H         1 RES1    0.0000
     37 C17        1.4359    3.7755    7.8516 C.ar      1 RES1    0.0000
     38 C18        1.5429    3.2939    9.1371 C.ar      1 RES1    0.0000
     39 H16        1.9153    3.8389    9.7918 H         1 RES1    0.0000
     40 C19        1.1126    2.0179    9.4898 C.ar      1 RES1    0.0000
     41 H17        1.1952    1.7224   10.3682 H         1 RES1    0.0000
     42 C20        0.5629    1.1942    8.5301 C.ar      1 RES1    0.0000
     43 C21        0.4203    1.6732    7.2415 C.ar      1 RES1    0.0000
     44 H18        0.0343    1.1333    6.5902 H         1 RES1    0.0000
     45 C22        0.8449    2.9413    6.9119 C.ar      1 RES1    0.0000
     46 H19        0.7339    3.2456    6.0409 H         1 RES1    0.0000
     47 C23        0.1301   -0.5624   10.1029 C.3       1 RES1    0.0000
     48 H20       -0.1600   -1.4769   10.1176 H         1 RES1    0.0000
     49 H21       -0.4792   -0.0238   10.6130 H         1 RES1    0.0000
     50 H22        1.0093   -0.4993   10.4838 H         1 RES1    0.0000
@<TRIPOS>BOND
     1    1   42 1
     2    2    6 2
     3    3    6 2
     4    4    5 1
     5    6   13 1
     6    7    4 1
     7    8    7 1
     8    9    7 1
     9   10    9 1
    10   11    9 1
    11   12   11 1
    12   13   14 ar
    13   14   15 1
    14   16   14 ar
    15   17   16 1
    16   18   16 ar
    17   19   18 1
    18   20   11 1
    19   21    4 1
    20   22    7 1
    21   23   22 ar
    22   24   23 1
    23   25   23 ar
    24   26   25 1
    25   27   25 ar
    26   28   27 1
    27   29   27 ar
    28   30   29 1
    29   31   22 ar
    30   32   31 1
    31   33    9 1
    32   34   33 1
    33   35   33 1
    34   36   33 1
    35   37   11 1
    36   38   37 ar
    37   39   38 1
    38   40   38 ar
    39   41   40 1
    40   42   40 ar
    41   43   42 ar
    42   44   43 1
    43   45   37 ar
    44   46   45 1
    45   47    1 1
    46   48   47 1
    47   49   47 1
    48   50   47 1
    49   13   20 ar
    50   18   21 ar
    51   20   21 ar
    52   29   31 ar
    53   43   45 ar
@<TRIPOS>SUBSTRUCTURE
     1 RES1 1

@<TRIPOS>CRYSIN
   7.2170   14.0260   19.4840  90.0000  98.3940  90.0000  14 1

