# MOL2 file generated by ConQuest
# Please check atom types

@<TRIPOS>MOLECULE
HAHCIC
    42    42     3
SMALL
NO_CHARGES
****
Generated from CSD

@<TRIPOS>ATOM
      1 O1         1.8611   13.8262    0.6383 O.2       1 RES1    0.0000
      2 O2        -0.6656   13.9576   -2.8764 Du        3 SUP3    0.0000
      3 O3         1.9044   15.8019   -2.8442 O.2       1 RES1    0.0000
      4 O4        -0.4691   15.7473    0.6010 Du        3 SUP3    0.0000
      5 N1         1.2276   13.3775   -0.1439 N.pl3     1 RES1    0.0000
      6 N2         0.0392   13.3844   -2.0451 N.2       1 RES1    0.0000
      7 N3         1.1830   16.2540   -2.0570 N.pl3     1 RES1    0.0000
      8 N4         0.0267   16.3154   -0.1642 N.2       1 RES1    0.0000
      9 C1         0.6234   14.0856   -1.0124 C.2       1 RES1    0.0000
     10 C2         0.9581   11.9273   -0.3318 C.3       1 RES1    0.0000
     11 C3         0.4176   11.9291   -1.8047 C.3       1 RES1    0.0000
     12 C4        -0.8873   11.0504   -2.1010 C.3       1 RES1    0.0000
     13 C5         1.4101   11.5503   -2.8307 C.3       1 RES1    0.0000
     14 C6         2.1451   11.1323   -0.1676 C.3       1 RES1    0.0000
     15 C7        -0.1753   11.5486    0.7094 C.3       1 RES1    0.0000
     16 C8         0.6184   15.5665   -1.0598 C.2       1 RES1    0.0000
     17 C9         0.2986   17.7042   -0.4266 C.3       1 RES1    0.0000
     18 C10        1.0107   17.7366   -1.7658 C.3       1 RES1    0.0000
     19 C11        2.1807   18.5777   -1.9910 C.3       1 RES1    0.0000
     20 C12        0.3482   18.3269   -2.8307 C.3       1 RES1    0.0000
     21 C13       -1.1557   18.1939   -0.5892 C.3       1 RES1    0.0000
     22 C14        1.3523   18.1273    0.7195 C.3       1 RES1    0.0000
     23 O5         2.4928   13.2189   -8.5800 O.2       2 RES2    0.0000
     24 O6         0.1300   13.2615  -10.5558 O.2       2 RES2    0.0000
     25 N5         1.8052   14.1794   -8.0857 N.pl3     2 RES2    0.0000
     26 N6         0.7392   16.0953   -8.0755 N.2       2 RES2    0.0000
     27 N7         0.7918   14.1845  -11.0196 N.pl3     2 RES2    0.0000
     28 N8         2.0419   16.2062  -10.9214 N.2       2 RES2    0.0000
     29 C15        1.1813   15.2491   -8.7544 C.2       2 RES2    0.0000
     30 C16        0.9551   15.7456   -6.6721 C.3       2 RES2    0.0000
     31 C17        1.3736   14.2459   -6.6670 C.3       2 RES2    0.0000
     32 C18        0.2320   13.2973   -6.5044 C.3       2 RES2    0.0000
     33 C19        2.5180   13.9150   -5.6529 C.3       2 RES2    0.0000
     34 C20       -0.3249   16.0595   -5.9001 C.3       2 RES2    0.0000
     35 C21        2.0589   16.6754   -6.2217 C.3       2 RES2    0.0000
     36 C22        1.3302   15.2065  -10.2680 C.2       2 RES2    0.0000
     37 C23        1.7026   15.7968  -12.4434 C.3       2 RES2    0.0000
     38 C24        1.2272   14.3022  -12.4316 C.3       2 RES2    0.0000
     39 C25        2.3778   13.2837  -12.6364 C.3       2 RES2    0.0000
     40 C26        0.0698   13.9371  -13.2984 C.3       2 RES2    0.0000
     41 C27        0.6001   16.7795  -12.9242 C.3       2 RES2    0.0000
     42 C28        2.9723   16.0152  -13.2391 C.3       2 RES2    0.0000
@<TRIPOS>BOND
     1    1    5 2
     2    3    7 2
     3    5    9 1
     4    6    9 2
     5    7   16 1
     6    8   16 2
     7    9   16 1
     8   10    5 1
     9   11    6 1
    10   12   11 1
    11   13   11 1
    12   14   10 1
    13   15   10 1
    14   17    8 1
    15   18    7 1
    16   19   18 1
    17   20   18 1
    18   21   17 1
    19   22   17 1
    20   23   25 2
    21   24   27 2
    22   25   29 1
    23   26   29 2
    24   27   36 1
    25   28   36 2
    26   29   36 1
    27   30   26 1
    28   31   25 1
    29   32   31 1
    30   33   31 1
    31   34   30 1
    32   35   30 1
    33   37   28 1
    34   38   27 1
    35   39   38 1
    36   40   38 1
    37   41   37 1
    38   42   37 1
    39   10   11 1
    40   17   18 1
    41   30   31 1
    42   37   38 1
@<TRIPOS>SUBSTRUCTURE
     1 RES1 1
     2 RES2 23
     3 SUP3 2

