# MOL2 file generated by ConQuest
# Please check atom types

@<TRIPOS>MOLECULE
HAHCEY
    44    46     2
SMALL
NO_CHARGES
****
Generated from CSD

@<TRIPOS>ATOM
      1 O1         3.6609    4.5718    5.4160 O.2       1 RES1    0.0000
      2 O2         1.1694    8.4413    5.2753 O.2       1 RES1    0.0000
      3 N1         2.9708    5.5718    5.8037 N.pl3     1 RES1    0.0000
      4 N2         1.8161    7.4481    5.7420 N.pl3     1 RES1    0.0000
      5 C1         2.4203    6.4996    5.0077 C.2       1 RES1    0.0000
      6 C2         2.5479    5.7698    7.2362 C.3       1 RES1    0.0000
      7 C3         1.4024    4.7887    7.4695 C.3       1 RES1    0.0000
      8 C4         3.7037    5.4720    8.1763 C.3       1 RES1    0.0000
      9 C5         2.1090    7.2673    7.2088 C.3       1 RES1    0.0000
     10 C6         0.8567    7.5737    8.0237 C.3       1 RES1    0.0000
     11 C7         3.2187    8.2605    7.5433 C.3       1 RES1    0.0000
     12 O3         0.6532    5.4462   10.9058 O.2       2 RES2    0.0000
     13 O4         3.1211    7.5479   10.9418 O.2       2 RES2    0.0000
     14 N3         1.2940    5.0107   11.9214 N.pl3     2 RES2    0.0000
     15 N4         2.4463    7.9782   11.9386 N.pl3     2 RES2    0.0000
     16 C8         1.8573    7.2157   12.8667 C.2       2 RES2    0.0000
     17 C9         2.1217    9.4362   12.1307 C.3       2 RES2    0.0000
     18 C10        1.0513    9.7632   11.0962 C.3       2 RES2    0.0000
     19 C11        3.3720   10.2744   11.9025 C.3       2 RES2    0.0000
     20 C12        1.8573    5.7715   12.8667 C.2       2 RES2    0.0000
     21 C13        1.6001    3.5493   12.1256 C.3       2 RES2    0.0000
     22 C14        0.3410    2.7265   11.8905 C.3       2 RES2    0.0000
     23 C15        2.6681    3.1947   11.0876 C.3       2 RES2    0.0000
     24 C1B        2.4730    6.4996    3.5701 C.2       1 RES1    0.0000
     25 N1B        1.9224    5.5718    2.7741 N.pl3     1 RES1    0.0000
     26 N2B        3.0771    7.4481    2.8358 N.pl3     1 RES1    0.0000
     27 O1B        1.2324    4.5718    3.1618 O.2       1 RES1    0.0000
     28 C2B        2.3454    5.7698    1.3416 C.3       1 RES1    0.0000
     29 O2B        3.7238    8.4413    3.3024 O.2       1 RES1    0.0000
     30 C5B        2.7843    7.2673    1.3690 C.3       1 RES1    0.0000
     31 C3B        3.4908    4.7887    1.1082 C.3       1 RES1    0.0000
     32 C4B        1.1895    5.4720    0.4014 C.3       1 RES1    0.0000
     33 C6B        4.0365    7.5737    0.5541 C.3       1 RES1    0.0000
     34 C7B        1.6746    8.2605    1.0345 C.3       1 RES1    0.0000
     35 N3B        2.4207    5.0107   13.8119 N.pl3     2 RES2    0.0000
     36 N4B        1.2683    7.9782   13.7948 N.pl3     2 RES2    0.0000
     37 C9B        1.5929    9.4362   13.6026 C.3       2 RES2    0.0000
     38 C13B       2.1145    3.5493   13.6078 C.3       2 RES2    0.0000
     39 O3B        3.0614    5.4462   14.8276 O.2       2 RES2    0.0000
     40 O4B        0.5935    7.5479   14.7915 O.2       2 RES2    0.0000
     41 C10B       2.6633    9.7632   14.6371 C.3       2 RES2    0.0000
     42 C11B       0.3426   10.2744   13.8308 C.3       2 RES2    0.0000
     43 C14B       3.3736    2.7265   13.8428 C.3       2 RES2    0.0000
     44 C15B       1.0465    3.1947   14.6457 C.3       2 RES2    0.0000
@<TRIPOS>BOND
     1    1    3 un
     2    2    4 un
     3    3    5 un
     4    4    5 un
     5    5   24 1
     6    6    3 1
     7    7    6 1
     8    8    6 1
     9    9    4 1
    10   10    9 1
    11   11    9 1
    12   12   14 un
    13   13   15 un
    14   14   20 un
    15   15   16 un
    16   16   20 1
    17   17   15 1
    18   18   17 1
    19   19   17 1
    20   20   35 un
    21   21   14 1
    22   22   21 1
    23   23   21 1
    24   24   25 un
    25   25   27 un
    26   26   24 un
    27   28   25 1
    28   29   26 un
    29   30   26 1
    30   31   28 1
    31   32   28 1
    32   33   30 1
    33   34   30 1
    34   35   38 1
    35   36   16 un
    36   37   17 1
    37   38   21 1
    38   39   35 un
    39   40   36 un
    40   41   37 1
    41   42   37 1
    42   43   38 1
    43   44   38 1
    44    6    9 1
    45   28   30 1
    46   36   37 1
@<TRIPOS>SUBSTRUCTURE
     1 RES1 1
     2 RES2 12

