# MOL2 file generated by ConQuest
# Please check atom types

@<TRIPOS>MOLECULE
HAHCAV
    42    44     1
SMALL
USER_CHARGES
****
Generated from CSD

@<TRIPOS>ATOM
      1 O1         4.8054   -3.1706   15.0205 O.2       1 RES1    0.0000
      2 O2         4.5491   -2.7060   12.8174 O.2       1 RES1   -1.0000
      3 O3        10.0575    0.4637   19.0223 O.3       1 RES1    0.0000
      4 O4         7.5755    0.2937   14.0658 O.2       1 RES1    0.0000
      5 N1         5.5776   -2.7533   16.0715 N.ar      1 RES1    0.0000
      6 N2         6.3632   -1.8403   15.5762 N.pl3     1 RES1    1.0000
      7 C1         6.1892   -1.5944   14.2454 C.ar      1 RES1    0.0000
      8 C2         5.1549   -2.4610   13.8362 C.ar      1 RES1    0.0000
      9 C3         7.3110   -1.2434   16.4996 C.ar      1 RES1    0.0000
     10 C4         8.6625   -1.4664   16.3186 C.ar      1 RES1    0.0000
     11 H1         8.9689   -2.0088   15.6019 H         1 RES1    0.0000
     12 C5         9.5524   -0.8948   17.1871 C.ar      1 RES1    0.0000
     13 H2        10.4847   -1.0481   17.0821 H         1 RES1    0.0000
     14 C6         9.0937   -0.0950   18.2154 C.ar      1 RES1    0.0000
     15 C7         7.7321    0.1203   18.3997 C.ar      1 RES1    0.0000
     16 H3         7.4225    0.6666   19.1130 H         1 RES1    0.0000
     17 C8         6.8287   -0.4751   17.5236 C.ar      1 RES1    0.0000
     18 H4         5.8932   -0.3500   17.6343 H         1 RES1    0.0000
     19 C9         9.6341    1.3604   20.0288 C.3       1 RES1    0.0000
     20 H5         9.1197    2.0886   19.6211 H         1 RES1    0.0000
     21 H6        10.4164    1.7295   20.4867 H         1 RES1    0.0000
     22 H7         9.0701    0.8843   20.6738 H         1 RES1    0.0000
     23 C10        6.8678   -0.5386   13.5053 C.2       1 RES1    0.0000
     24 C11        6.6241   -0.5238   12.0547 C.2       1 RES1    0.0000
     25 H8         6.0840   -1.2076   11.6756 H         1 RES1    0.0000
     26 C12        7.1309    0.4083   11.2518 C.2       1 RES1    0.0000
     27 H9         7.6767    1.0806   11.6421 H         1 RES1    0.0000
     28 C13        6.9055    0.4656    9.8353 C.2       1 RES1    0.0000
     29 H10        6.3401   -0.1915    9.4470 H         1 RES1    0.0000
     30 C14        7.4412    1.3857    9.0335 C.2       1 RES1    0.0000
     31 H11        7.9910    2.0399    9.4485 H         1 RES1    0.0000
     32 C15        7.2783    1.4984    7.5851 C.ar      1 RES1    0.0000
     33 C16        6.4027    0.6909    6.8700 C.ar      1 RES1    0.0000
     34 H12        5.8860    0.0372    7.3263 H         1 RES1    0.0000
     35 C17        6.2747    0.8313    5.4850 C.ar      1 RES1    0.0000
     36 H13        5.6777    0.2669    5.0080 H         1 RES1    0.0000
     37 C18        7.0014    1.7753    4.8087 C.ar      1 RES1    0.0000
     38 H14        6.9077    1.8699    3.8670 H         1 RES1    0.0000
     39 C19        7.8622    2.5785    5.4993 C.ar      1 RES1    0.0000
     40 H15        8.3656    3.2355    5.0338 H         1 RES1    0.0000
     41 C20        8.0127    2.4481    6.8879 C.ar      1 RES1    0.0000
     42 H16        8.6184    3.0125    7.3537 H         1 RES1    0.0000
@<TRIPOS>BOND
     1    1    5 ar
     2    2    8 1
     3    3   14 1
     4    4   23 2
     5    5    6 ar
     6    6    7 ar
     7    7    8 ar
     8    8    1 ar
     9    9    6 1
    10   10    9 ar
    11   11   10 1
    12   12   10 ar
    13   13   12 1
    14   14   12 ar
    15   15   14 ar
    16   16   15 1
    17   17    9 ar
    18   18   17 1
    19   19    3 1
    20   20   19 1
    21   21   19 1
    22   22   19 1
    23   23    7 1
    24   24   23 1
    25   25   24 1
    26   26   24 2
    27   27   26 1
    28   28   26 1
    29   29   28 1
    30   30   28 2
    31   31   30 1
    32   32   30 1
    33   33   32 ar
    34   34   33 1
    35   35   33 ar
    36   36   35 1
    37   37   35 ar
    38   38   37 1
    39   39   37 ar
    40   40   39 1
    41   41   32 ar
    42   42   41 1
    43   15   17 ar
    44   39   41 ar
@<TRIPOS>SUBSTRUCTURE
     1 RES1 1

@<TRIPOS>CRYSIN
  12.0961    4.7750   15.3516  90.0000  97.7190  90.0000   4 1

