# MOL2 file generated by ConQuest
# Please check atom types

@<TRIPOS>MOLECULE
HAHGAA
    24    24     1
SMALL
NO_CHARGES
****
Generated from CSD

@<TRIPOS>ATOM
      1 O1        -0.0301    1.1152    1.5511 O.3       1 RES1    0.0000
      2 H1        -0.3788    0.7648    0.8966 H         1 RES1    0.0000
      3 O2         0.7825    2.2095    3.7433 O.3       1 RES1    0.0000
      4 C1        -0.5719    2.1034    3.6052 C.ar      1 RES1    0.0000
      5 N1        -1.9933    0.1836    0.1175 N.2       1 RES1    0.0000
      6 C2        -0.9944    1.4920    2.4302 C.ar      1 RES1    0.0000
      7 C3        -2.3450    1.2881    2.1831 C.ar      1 RES1    0.0000
      8 O3        -2.6042   -0.4602   -0.9590 O.3       1 RES1    0.0000
      9 H2        -2.0319   -0.8235   -1.4207 H         1 RES1    0.0000
     10 C4        -2.8125    0.6149    0.9888 C.2       1 RES1    0.0000
     11 H3        -3.7257    0.4962    0.8572 H         1 RES1    0.0000
     12 C5        -3.2648    1.7314    3.1332 C.ar      1 RES1    0.0000
     13 H4        -4.1738    1.6015    2.9863 H         1 RES1    0.0000
     14 C6        -1.5057    2.5424    4.5178 C.ar      1 RES1    0.0000
     15 H5        -1.2308    2.9666    5.2976 H         1 RES1    0.0000
     16 C7        -2.8528    2.3516    4.2728 C.ar      1 RES1    0.0000
     17 H6        -3.4814    2.6481    4.8904 H         1 RES1    0.0000
     18 C8         1.2860    2.8308    4.9224 C.3       1 RES1    0.0000
     19 H7         0.9332    2.3927    5.7116 H         1 RES1    0.0000
     20 H8         1.0294    3.7652    4.9465 H         1 RES1    0.0000
     21 C9         2.7770    2.7021    4.8784 C.3       1 RES1    0.0000
     22 H9         3.1555    3.1090    5.6608 H         1 RES1    0.0000
     23 H10        3.1129    3.1413    4.0939 H         1 RES1    0.0000
     24 H11        3.0169    1.7732    4.8530 H         1 RES1    0.0000
@<TRIPOS>BOND
     1    1    2 1
     2    3    4 1
     3    4    6 ar
     4    5    8 1
     5    6    1 1
     6    7    6 ar
     7    8    9 1
     8   10    5 2
     9   11   10 1
    10   12    7 ar
    11   13   12 1
    12   14    4 ar
    13   15   14 1
    14   16   12 ar
    15   17   16 1
    16   18    3 1
    17   19   18 1
    18   20   18 1
    19   21   18 1
    20   22   21 1
    21   23   21 1
    22   24   21 1
    23    7   10 1
    24   14   16 ar
@<TRIPOS>SUBSTRUCTURE
     1 RES1 1

@<TRIPOS>CRYSIN
   9.2588   14.6790    7.0360  90.0000 108.4000  90.0000  14 1

