# MOL2 file generated by ConQuest
# Please check atom types

@<TRIPOS>MOLECULE
HAHXAR
    73   105     1
SMALL
NO_CHARGES
****
Generated from CSD

@<TRIPOS>ATOM
      1 C1         0.4154    9.5801    2.3370 C.3       1 RES1    0.0000
      2 C2         0.1683    8.1501    1.8703 C.2       1 RES1    0.0000
      3 C3         1.1086    7.8074    0.8485 C.2       1 RES1    0.0000
      4 C4         2.1147    8.8583    0.7780 C.2       1 RES1    0.0000
      5 C5         1.7930    9.8616    1.7529 C.2       1 RES1    0.0000
      6 C6         2.8040   10.4685    2.4598 C.2       1 RES1    0.0000
      7 C7         2.6785   10.6783    3.9141 C.2       1 RES1    0.0000
      8 C8         1.5380   10.2915    4.5864 C.2       1 RES1    0.0000
      9 C9         0.2530    9.8346    3.8808 C.3       1 RES1    0.0000
     10 C10       -0.0877    8.5810    4.6992 C.2       1 RES1    0.0000
     11 C11       -0.4622    7.3908    4.1374 C.2       1 RES1    0.0000
     12 C12       -0.3347    7.1643    2.6790 C.2       1 RES1    0.0000
     13 C13        0.0448    5.7872    2.4770 C.2       1 RES1    0.0000
     14 C14        0.9403    5.4497    1.4623 C.2       1 RES1    0.0000
     15 C15        1.4862    6.4909    0.6206 C.2       1 RES1    0.0000
     16 C16        2.8707    6.1462    0.3268 C.2       1 RES1    0.0000
     17 C17        3.8210    7.1429    0.2621 C.2       1 RES1    0.0000
     18 C18        3.4256    8.5363    0.4774 C.2       1 RES1    0.0000
     19 C19        4.4924    9.1861    1.2083 C.2       1 RES1    0.0000
     20 C20        4.1896   10.1296    2.1786 C.2       1 RES1    0.0000
     21 C21        4.9077   10.1369    3.4328 C.2       1 RES1    0.0000
     22 C22        3.9814   10.4770    4.5072 C.2       1 RES1    0.0000
     23 C23        4.0959    9.8793    5.7575 C.2       1 RES1    0.0000
     24 C24        2.9096    9.4392    6.4447 C.2       1 RES1    0.0000
     25 C25        1.6665    9.6252    5.8477 C.2       1 RES1    0.0000
     26 C26        0.6654    8.5784    5.9195 C.2       1 RES1    0.0000
     27 C27        0.9632    7.3924    6.5795 C.2       1 RES1    0.0000
     28 C28        0.5349    6.1414    6.0077 C.2       1 RES1    0.0000
     29 C29       -0.1534    6.1434    4.7975 C.2       1 RES1    0.0000
     30 C30        0.1534    5.1565    3.7799 C.2       1 RES1    0.0000
     31 C31        1.1475    4.2057    4.0094 C.2       1 RES1    0.0000
     32 C32        2.0798    3.8624    2.9486 C.2       1 RES1    0.0000
     33 C33        1.9743    4.4673    1.7038 C.2       1 RES1    0.0000
     34 C34        3.1755    4.9034    1.0001 C.2       1 RES1    0.0000
     35 C35        4.4197    4.7075    1.5910 C.2       1 RES1    0.0000
     36 C36        5.4177    5.7576    1.5254 C.2       1 RES1    0.0000
     37 C37        5.1239    6.9470    0.8643 C.2       1 RES1    0.0000
     38 C38        5.5393    8.2161    1.4462 C.2       1 RES1    0.0000
     39 C39        6.2395    8.2222    2.6541 C.2       1 RES1    0.0000
     40 C40        5.9208    9.2088    3.6681 C.2       1 RES1    0.0000
     41 C41        6.0333    8.5816    4.9775 C.2       1 RES1    0.0000
     42 C42        5.1408    8.9016    5.9925 C.2       1 RES1    0.0000
     43 C43        4.5940    7.8466    6.8307 C.2       1 RES1    0.0000
     44 C44        3.2174    8.1886    7.1148 C.2       1 RES1    0.0000
     45 C45        2.2661    7.1894    7.1823 C.2       1 RES1    0.0000
     46 C46        2.6446    5.8039    6.9745 C.2       1 RES1    0.0000
     47 C47        1.5698    5.1569    6.2479 C.2       1 RES1    0.0000
     48 C48        1.8677    4.2122    5.2659 C.2       1 RES1    0.0000
     49 C49        3.2473    3.8765    4.9811 C.2       1 RES1    0.0000
     50 C50        3.3748    3.6647    3.5524 C.2       1 RES1    0.0000
     51 C51        4.5262    4.0769    2.8852 C.2       1 RES1    0.0000
     52 C52        5.5901    4.7256    3.6174 C.2       1 RES1    0.0000
     53 C53        6.1389    5.7725    2.7747 C.2       1 RES1    0.0000
     54 C54        6.5344    6.9844    3.3229 C.2       1 RES1    0.0000
     55 C55        6.4078    7.1981    4.7581 C.2       1 RES1    0.0000
     56 C56        5.8949    6.1943    5.5636 C.2       1 RES1    0.0000
     57 C57        4.9695    6.5237    6.6186 C.2       1 RES1    0.0000
     58 C58        3.9694    5.4773    6.6946 C.2       1 RES1    0.0000
     59 C59        4.2752    4.4961    5.6835 C.2       1 RES1    0.0000
     60 C60        5.4636    4.9310    4.9801 C.2       1 RES1    0.0000
     61 O1        -0.5767   10.4826    1.7057 O.3       1 RES1    0.0000
     62 N1        -1.2969   11.1755    2.6780 N.2       1 RES1    0.0000
     63 C61       -0.8845   10.8748    3.8540 C.2       1 RES1    0.0000
     64 C62       -1.5180   11.4791    5.0454 C.ar      1 RES1    0.0000
     65 N2        -0.8706   11.2862    6.1958 N.ar      1 RES1    0.0000
     66 C63       -2.7034   12.1877    4.9478 C.ar      1 RES1    0.0000
     67 H1        -3.1247   12.3151    4.1051 H         1 RES1    0.0000
     68 C64       -3.2562   12.7032    6.0930 C.ar      1 RES1    0.0000
     69 H2        -4.0690   13.1931    6.0575 H         1 RES1    0.0000
     70 C65       -2.6058   12.4950    7.3078 C.ar      1 RES1    0.0000
     71 H3        -2.9843   12.8097    8.1197 H         1 RES1    0.0000
     72 C66       -1.4015   11.8236    7.3065 C.ar      1 RES1    0.0000
     73 H4        -0.9274   11.7370    8.1262 H         1 RES1    0.0000
@<TRIPOS>BOND
     1    1    2 1
     2    2    3 1
     3    3    4 1
     4    4    5 1
     5    5    1 1
     6    6    5 2
     7    7    6 1
     8    8    7 2
     9    9    1 1
    10   10    9 1
    11   11   10 2
    12   12    2 2
    13   13   12 1
    14   14   13 2
    15   15    3 2
    16   16   15 1
    17   17   16 2
    18   18    4 2
    19   19   18 1
    20   20    6 1
    21   21   20 1
    22   22    7 1
    23   23   22 2
    24   24   23 1
    25   25    8 1
    26   26   10 1
    27   27   26 2
    28   28   27 1
    29   29   11 1
    30   30   13 1
    31   31   30 1
    32   32   31 1
    33   33   14 1
    34   34   16 1
    35   35   34 2
    36   36   35 1
    37   37   17 1
    38   38   19 1
    39   39   38 2
    40   40   21 2
    41   41   40 1
    42   42   23 1
    43   43   42 1
    44   44   24 1
    45   45   27 1
    46   46   45 1
    47   47   28 2
    48   48   31 2
    49   49   48 1
    50   50   32 1
    51   51   35 1
    52   52   51 1
    53   53   36 1
    54   54   39 1
    55   55   41 1
    56   56   55 2
    57   57   43 2
    58   58   46 2
    59   59   49 2
    60   60   52 2
    61   61    1 1
    62   62   61 1
    63   63    9 1
    64   64   63 1
    65   65   64 ar
    66   66   64 ar
    67   67   66 1
    68   68   66 ar
    69   69   68 1
    70   70   68 ar
    71   71   70 1
    72   72   65 ar
    73   73   72 1
    74    8    9 1
    75   11   12 1
    76   14   15 1
    77   17   18 1
    78   19   20 2
    79   21   22 1
    80   24   25 2
    81   25   26 1
    82   28   29 1
    83   29   30 2
    84   32   33 2
    85   33   34 1
    86   36   37 2
    87   37   38 1
    88   39   40 1
    89   41   42 2
    90   43   44 1
    91   44   45 2
    92   46   47 1
    93   47   48 1
    94   49   50 1
    95   50   51 2
    96   52   53 1
    97   53   54 2
    98   54   55 1
    99   56   57 1
   100   56   60 1
   101   57   58 1
   102   58   59 1
   103   59   60 1
   104   62   63 2
   105   70   72 ar
@<TRIPOS>SUBSTRUCTURE
     1 RES1 1

@<TRIPOS>CRYSIN
   9.9609   19.8662   32.3238  90.0000  90.0000  90.0000  61 1

