# MOL2 file generated by ConQuest
# Please check atom types

@<TRIPOS>MOLECULE
HAJMIO
    36    35     1
SMALL
NO_CHARGES
****
Generated from CSD

@<TRIPOS>ATOM
      1 O1         4.7065    3.8540    4.4805 O.2       1 RES1    0.0000
      2 N1         3.6255    4.2926    3.9803 N.3       1 RES1    0.0000
      3 O2         1.1139    3.1495    4.4129 O.2       1 RES1    0.0000
      4 O3         0.5972    3.7034    2.3081 O.3       1 RES1    0.0000
      5 C1         2.9007    3.5756    2.8737 C.3       1 RES1    0.0000
      6 C2         1.4360    3.4801    3.3075 C.2       1 RES1    0.0000
      7 C3         3.4539    2.1567    2.8135 C.3       1 RES1    0.0000
      8 C4         3.1510    4.3231    1.5722 C.3       1 RES1    0.0000
      9 C5        -0.8143    3.5610    2.6221 C.3       1 RES1    0.0000
     10 H1         3.0137    1.6782    2.1206 H         1 RES1    0.0000
     11 H2         3.3033    1.7210    3.6443 H         1 RES1    0.0000
     12 H3         4.3863    2.1859    2.6354 H         1 RES1    0.0000
     13 H4         2.7001    3.8835    0.8609 H         1 RES1    0.0000
     14 H5         4.0835    4.3464    1.3892 H         1 RES1    0.0000
     15 H6         2.8219    5.2099    1.6550 H         1 RES1    0.0000
     16 H7        -1.3301    3.7383    1.8447 H         1 RES1    0.0000
     17 H8        -1.0504    4.1769    3.3058 H         1 RES1    0.0000
     18 H9        -0.9846    2.6761    2.9205 H         1 RES1    0.0000
     19 N1B        3.1322    5.4528    4.3782 N.3       1 RES1    0.0000
     20 O1B        2.0512    5.8914    3.8780 O.2       1 RES1    0.0000
     21 C1B        3.8571    6.1698    5.4849 C.3       1 RES1    0.0000
     22 C2B        5.3217    6.2653    5.0511 C.2       1 RES1    0.0000
     23 C3B        3.3039    7.5887    5.5451 C.3       1 RES1    0.0000
     24 C4B        3.6067    5.4223    6.7863 C.3       1 RES1    0.0000
     25 O2B        5.6438    6.5959    3.9456 O.2       1 RES1    0.0000
     26 O3B        6.1606    6.0420    6.0504 O.3       1 RES1    0.0000
     27 H1B        3.7440    8.0672    6.2380 H         1 RES1    0.0000
     28 H2B        3.4545    8.0244    4.7142 H         1 RES1    0.0000
     29 H3B        2.3715    7.5595    5.7231 H         1 RES1    0.0000
     30 H4B        4.0577    5.8619    7.4976 H         1 RES1    0.0000
     31 H5B        2.6743    5.3990    6.9693 H         1 RES1    0.0000
     32 H6B        3.9359    4.5355    6.7035 H         1 RES1    0.0000
     33 C5B        7.5720    6.1844    5.7365 C.3       1 RES1    0.0000
     34 H7B        8.0878    6.0071    6.5138 H         1 RES1    0.0000
     35 H8B        7.8081    5.5685    5.0527 H         1 RES1    0.0000
     36 H9B        7.7424    7.0693    5.4381 H         1 RES1    0.0000
@<TRIPOS>BOND
     1    1    2 1
     2    2    5 1
     3    3    6 2
     4    4    6 1
     5    5    6 1
     6    7    5 1
     7    8    5 1
     8    9    4 1
     9   10    7 1
    10   11    7 1
    11   12    7 1
    12   13    8 1
    13   14    8 1
    14   15    8 1
    15   16    9 1
    16   17    9 1
    17   18    9 1
    18   19    2 1
    19   20   19 1
    20   21   19 1
    21   22   21 1
    22   23   21 1
    23   24   21 1
    24   25   22 2
    25   26   22 1
    26   27   23 1
    27   28   23 1
    28   29   23 1
    29   30   24 1
    30   31   24 1
    31   32   24 1
    32   33   26 1
    33   34   33 1
    34   35   33 1
    35   36   33 1
@<TRIPOS>SUBSTRUCTURE
     1 RES1 1

@<TRIPOS>CRYSIN
   8.1664    9.7454    8.4764  90.0000  99.5660  90.0000 231 1

