# MOL2 file generated by ConQuest
# Please check atom types

@<TRIPOS>MOLECULE
HAKBUR
    50    52     1
SMALL
NO_CHARGES
****
Generated from CSD

@<TRIPOS>ATOM
      1 N1         2.6226    3.1958    5.2999 N.3       1 RES1    0.0000
      2 C1         3.3147    3.8069    4.1547 C.3       1 RES1    0.0000
      3 H1         2.7287    4.4798    3.7504 H         1 RES1    0.0000
      4 C2         4.5604    4.4846    4.6648 C.3       1 RES1    0.0000
      5 H2         5.1298    3.8345    5.1051 H         1 RES1    0.0000
      6 H3         5.0537    4.8652    3.9210 H         1 RES1    0.0000
      7 C3         4.1902    5.5671    5.6314 C.3       1 RES1    0.0000
      8 H4         3.6678    6.2462    5.1768 H         1 RES1    0.0000
      9 H5         4.9949    5.9858    5.9764 H         1 RES1    0.0000
     10 C4         3.3918    4.9913    6.7696 C.3       1 RES1    0.0000
     11 H6         3.0654    5.7198    7.3217 H         1 RES1    0.0000
     12 H7         3.9781    4.4468    7.3174 H         1 RES1    0.0000
     13 C5         2.2189    4.1508    6.3310 C.3       1 RES1    0.0000
     14 C6         1.6225    3.4265    7.5511 C.3       1 RES1    0.0000
     15 H8         1.6059    2.4689    7.3965 H         1 RES1    0.0000
     16 H9         2.1606    3.6015    8.3393 H         1 RES1    0.0000
     17 C7         0.2133    3.9459    7.7562 C.3       1 RES1    0.0000
     18 H10       -0.4392    3.2875    7.4713 H         1 RES1    0.0000
     19 H11        0.0576    4.1555    8.6901 H         1 RES1    0.0000
     20 C8         0.1208    5.1895    6.9089 C.3       1 RES1    0.0000
     21 H12        0.4321    5.9677    7.3986 H         1 RES1    0.0000
     22 H13       -0.7911    5.3435    6.6169 H         1 RES1    0.0000
     23 C9         1.0249    4.8933    5.7301 C.3       1 RES1    0.0000
     24 H14        1.2998    5.7115    5.2653 H         1 RES1    0.0000
     25 C10        0.4664    3.8640    4.7749 C.3       1 RES1    0.0000
     26 H15       -0.3958    3.5701    5.1368 H         1 RES1    0.0000
     27 O1         1.3439    2.7436    4.8130 O.3       1 RES1    0.0000
     28 C11        3.6020    2.7409    3.1419 C.3       1 RES1    0.0000
     29 H16        4.3388    2.1973    3.4607 H         1 RES1    0.0000
     30 H17        2.8241    2.1661    3.0635 H         1 RES1    0.0000
     31 C12        3.9453    3.2711    1.7913 C.2       1 RES1    0.0000
     32 O2         3.8160    4.3917    1.4347 O.2       1 RES1    0.0000
     33 O3         4.3923    2.3105    0.9992 O.3       1 RES1    0.0000
     34 C13        4.7291    2.6711   -0.3591 C.3       1 RES1    0.0000
     35 H18        5.3414    3.4237   -0.3656 H         1 RES1    0.0000
     36 H19        3.9299    2.9191   -0.8502 H         1 RES1    0.0000
     37 C14        5.3602    1.4925   -0.9727 C.3       1 RES1    0.0000
     38 H20        5.5960    1.6917   -1.8815 H         1 RES1    0.0000
     39 H21        4.7464    0.7556   -0.9555 H         1 RES1    0.0000
     40 H22        6.1514    1.2605   -0.4804 H         1 RES1    0.0000
     41 C15        0.2148    4.3717    3.3749 C.2       1 RES1    0.0000
     42 O4        -0.1951    5.4578    3.1542 O.2       1 RES1    0.0000
     43 O5         0.4368    3.4661    2.4492 O.3       1 RES1    0.0000
     44 C16        0.1025    3.8482    1.0924 C.3       1 RES1    0.0000
     45 H23        0.5451    4.6794    0.8607 H         1 RES1    0.0000
     46 H24       -0.8549    3.9755    1.0071 H         1 RES1    0.0000
     47 C17        0.5516    2.7696    0.1965 C.3       1 RES1    0.0000
     48 H25        0.3381    2.9975   -0.7111 H         1 RES1    0.0000
     49 H26        0.1089    1.9519    0.4340 H         1 RES1    0.0000
     50 H27        1.5012    2.6561    0.2834 H         1 RES1    0.0000
@<TRIPOS>BOND
     1    1    2 1
     2    2    3 1
     3    4    2 1
     4    5    4 1
     5    6    4 1
     6    7    4 1
     7    8    7 1
     8    9    7 1
     9   10    7 1
    10   11   10 1
    11   12   10 1
    12   13    1 1
    13   14   13 1
    14   15   14 1
    15   16   14 1
    16   17   14 1
    17   18   17 1
    18   19   17 1
    19   20   17 1
    20   21   20 1
    21   22   20 1
    22   23   13 1
    23   24   23 1
    24   25   23 1
    25   26   25 1
    26   27    1 1
    27   28    2 1
    28   29   28 1
    29   30   28 1
    30   31   28 1
    31   32   31 2
    32   33   31 1
    33   34   33 1
    34   35   34 1
    35   36   34 1
    36   37   34 1
    37   38   37 1
    38   39   37 1
    39   40   37 1
    40   41   25 1
    41   42   41 2
    42   43   41 1
    43   44   43 1
    44   45   44 1
    45   46   44 1
    46   47   44 1
    47   48   47 1
    48   49   47 1
    49   50   47 1
    50   10   13 1
    51   20   23 1
    52   25   27 1
@<TRIPOS>SUBSTRUCTURE
     1 RES1 1

@<TRIPOS>CRYSIN
   8.2060   10.0250   11.2830  69.5100  88.8700  74.6700   2 1

