# MOL2 file generated by ConQuest
# Please check atom types

@<TRIPOS>MOLECULE
HAKHEI
    25    26     1
SMALL
NO_CHARGES
****
Generated from CSD

@<TRIPOS>ATOM
      1 O1         0.9373    5.2118    3.0536 O.2       1 RES1    0.0000
      2 O2         4.5518    4.9774    0.2007 O.2       1 RES1    0.0000
      3 O3         3.1770    3.4614   -1.5492 O.3       1 RES1    0.0000
      4 O4         3.4441    7.1258    2.6698 O.2       1 RES1    0.0000
      5 O5         4.2587    5.1943    3.4350 O.3       1 RES1    0.0000
      6 N1         1.4878    4.8383    1.9481 N.pl3     1 RES1    0.0000
      7 N2         2.5980    3.9945   -0.4103 N.am      1 RES1    0.0000
      8 C1         2.7460    5.0977    1.6753 C.2       1 RES1    0.0000
      9 C2         3.3990    4.6934    0.4420 C.2       1 RES1    0.0000
     10 C3         1.2716    3.7045   -0.1738 C.ar      1 RES1    0.0000
     11 C4         0.6827    4.1440    1.0123 C.ar      1 RES1    0.0000
     12 C5        -0.6666    3.9423    1.2643 C.ar      1 RES1    0.0000
     13 H1        -1.0513    4.2629    2.0473 H         1 RES1    0.0000
     14 C6        -1.4272    3.2642    0.3442 C.ar      1 RES1    0.0000
     15 H2        -2.3319    3.1168    0.5049 H         1 RES1    0.0000
     16 C7        -0.8420    2.7964   -0.8310 C.ar      1 RES1    0.0000
     17 H3        -1.3609    2.3298   -1.4465 H         1 RES1    0.0000
     18 C8         0.4814    3.0107   -1.0956 C.ar      1 RES1    0.0000
     19 H4         0.8563    2.6965   -1.8870 H         1 RES1    0.0000
     20 C9         3.5206    5.9379    2.6540 C.2       1 RES1    0.0000
     21 C10        5.0014    5.9167    4.4550 C.3       1 RES1    0.0000
     22 H5         5.4499    6.6648    4.0541 H         1 RES1    0.0000
     23 H6         5.6485    5.3316    4.8544 H         1 RES1    0.0000
     24 H7         4.3958    6.2315    5.1295 H         1 RES1    0.0000
     25 H8         3.2049    4.0995   -2.1104 H         1 RES1    0.0000
@<TRIPOS>BOND
     1    1    6 1
     2    2    9 2
     3    3    7 1
     4    4   20 2
     5    5   20 1
     6    6    8 2
     7    7    9 1
     8    8    9 1
     9   10    7 1
    10   11    6 1
    11   12   11 ar
    12   13   12 1
    13   14   12 ar
    14   15   14 1
    15   16   14 ar
    16   17   16 1
    17   18   10 ar
    18   19   18 1
    19   20    8 1
    20   21    5 1
    21   22   21 1
    22   23   21 1
    23   24   21 1
    24   25    3 1
    25   10   11 ar
    26   16   18 ar
@<TRIPOS>SUBSTRUCTURE
     1 RES1 1

@<TRIPOS>CRYSIN
  14.4320   10.7514   13.2728  90.0000 108.0190  90.0000  15 1

