# MOL2 file generated by ConQuest
# Please check atom types

@<TRIPOS>MOLECULE
HAKHUY
    49    53     1
SMALL
NO_CHARGES
****
Generated from CSD

@<TRIPOS>ATOM
      1 N1        10.7473    6.9895    9.5511 N.pl3     1 RES1    0.0000
      2 O1         5.2872    3.9084    7.3732 O.3       1 RES1    0.0000
      3 O2         7.0208    4.9732    6.5607 O.2       1 RES1    0.0000
      4 O3         6.9847    3.6381   11.0849 O.3       1 RES1    0.0000
      5 H1         7.8115    3.7882   11.2783 H         1 RES1    0.0000
      6 O4        11.2690    3.1328   10.0484 O.3       1 RES1    0.0000
      7 O5         9.5792    3.8908   11.2033 O.2       1 RES1    0.0000
      8 O6         9.7258    4.5721    6.5364 O.3       1 RES1    0.0000
      9 H2         8.8743    4.8211    6.4766 H         1 RES1    0.0000
     10 O7        10.6087    7.1689    8.3620 O.2       1 RES1    0.0000
     11 O8        11.8105    6.7632   10.0919 O.2       1 RES1    0.0000
     12 C1         6.4883    4.5035    7.5628 C.2       1 RES1    0.0000
     13 C2         7.0668    4.5351    8.8947 C.2       1 RES1    0.0000
     14 C3         6.4894    3.8079    9.8775 C.2       1 RES1    0.0000
     15 C4         4.4787    2.5366   10.6618 C.ar      1 RES1    0.0000
     16 H3         4.8485    2.4453   11.5104 H         1 RES1    0.0000
     17 C5         3.2422    2.0341   10.4045 C.ar      1 RES1    0.0000
     18 H4         2.7713    1.5957   11.0757 H         1 RES1    0.0000
     19 C6         2.6806    2.1729    9.1482 C.ar      1 RES1    0.0000
     20 H5         1.8241    1.8470    8.9896 H         1 RES1    0.0000
     21 C7         3.3744    2.7870    8.1319 C.ar      1 RES1    0.0000
     22 H6         3.0132    2.8602    7.2789 H         1 RES1    0.0000
     23 C8         4.6294    3.2910    8.4229 C.ar      1 RES1    0.0000
     24 C9         5.1883    3.1816    9.6668 C.ar      1 RES1    0.0000
     25 C10       10.1101    3.8305   10.1015 C.2       1 RES1    0.0000
     26 C11        9.5789    4.4273    8.8983 C.2       1 RES1    0.0000
     27 C12       10.1804    4.1444    7.7086 C.2       1 RES1    0.0000
     28 C13       12.0493    3.0104    6.4764 C.ar      1 RES1    0.0000
     29 H7        11.7116    3.2933    5.6571 H         1 RES1    0.0000
     30 C14       13.1875    2.2808    6.5105 C.ar      1 RES1    0.0000
     31 H8        13.6225    2.0658    5.7163 H         1 RES1    0.0000
     32 C15       13.7021    1.8590    7.6957 C.ar      1 RES1    0.0000
     33 H9        14.4910    1.3664    7.7027 H         1 RES1    0.0000
     34 C16       13.0776    2.1488    8.8827 C.ar      1 RES1    0.0000
     35 H10       13.4329    1.8575    9.6922 H         1 RES1    0.0000
     36 C17       11.8965    2.8927    8.8436 C.ar      1 RES1    0.0000
     37 C18       11.3763    3.3454    7.6429 C.ar      1 RES1    0.0000
     38 C19        8.3553    5.3259    9.0041 C.3       1 RES1    0.0000
     39 H11        8.3775    5.8668    8.1872 H         1 RES1    0.0000
     40 C20        8.4089    6.3497   10.1395 C.ar      1 RES1    0.0000
     41 C21        9.5559    7.0898   10.4203 C.ar      1 RES1    0.0000
     42 C22        9.6456    8.0103   11.4394 C.ar      1 RES1    0.0000
     43 H12       10.4442    8.4570   11.6039 H         1 RES1    0.0000
     44 C23        8.5347    8.2608   12.2117 C.ar      1 RES1    0.0000
     45 H13        8.5756    8.8697   12.9142 H         1 RES1    0.0000
     46 C24        7.3689    7.6036   11.9356 C.ar      1 RES1    0.0000
     47 H14        6.6076    7.7938   12.4327 H         1 RES1    0.0000
     48 C25        7.3076    6.6598   10.9243 C.ar      1 RES1    0.0000
     49 H15        6.5041    6.2207   10.7657 H         1 RES1    0.0000
@<TRIPOS>BOND
     1    1   10 2
     2    2   12 1
     3    3   12 2
     4    4    5 1
     5    6   25 1
     6    7   25 2
     7    8    9 1
     8   11    1 2
     9   12   13 1
    10   13   14 2
    11   14    4 1
    12   15   16 1
    13   17   15 ar
    14   18   17 1
    15   19   17 ar
    16   20   19 1
    17   21   19 ar
    18   22   21 1
    19   23    2 1
    20   24   14 1
    21   25   26 1
    22   26   27 2
    23   27    8 1
    24   28   29 1
    25   30   28 ar
    26   31   30 1
    27   32   30 ar
    28   33   32 1
    29   34   32 ar
    30   35   34 1
    31   36    6 1
    32   37   27 1
    33   38   13 1
    34   39   38 1
    35   40   38 1
    36   41    1 1
    37   42   41 ar
    38   43   42 1
    39   44   42 ar
    40   45   44 1
    41   46   44 ar
    42   47   46 1
    43   48   40 ar
    44   49   48 1
    45   15   24 ar
    46   21   23 ar
    47   23   24 ar
    48   26   38 1
    49   28   37 ar
    50   34   36 ar
    51   36   37 ar
    52   40   41 ar
    53   46   48 ar
@<TRIPOS>SUBSTRUCTURE
     1 RES1 1

@<TRIPOS>CRYSIN
  34.4429    7.5448   16.8941  90.0000 112.7490  90.0000  15 1

