# MOL2 file generated by ConQuest
# Please check atom types

@<TRIPOS>MOLECULE
HAKJAH
    40    43     1
SMALL
NO_CHARGES
****
Generated from CSD

@<TRIPOS>ATOM
      1 O1         2.5393    3.2605    8.8510 O.3       1 RES1    0.0000
      2 O2        -5.0242    2.2576    9.6082 O.3       1 RES1    0.0000
      3 N1         1.2678    1.6393    8.0556 N.2       1 RES1    0.0000
      4 N2         1.2343    3.5095    9.3539 N.2       1 RES1    0.0000
      5 N3         4.8615    2.4505    7.7983 N.pl3     1 RES1    0.0000
      6 N4         5.0715    3.7090    7.4072 N.2       1 RES1    0.0000
      7 N5         6.1523    4.1684    7.9733 N.2       1 RES1    0.0000
      8 C1         0.5120    2.5335    8.8172 C.2       1 RES1    0.0000
      9 C2         2.4238    2.1543    8.0865 C.2       1 RES1    0.0000
     10 C3         3.6856    1.6981    7.4219 C.3       1 RES1    0.0000
     11 H1         3.8342    0.7447    7.6439 H         1 RES1    0.0000
     12 H2         3.5687    1.7619    6.4413 H         1 RES1    0.0000
     13 C4         6.6628    3.1435    8.7422 C.2       1 RES1    0.0000
     14 C5         5.8319    2.0619    8.6423 C.2       1 RES1    0.0000
     15 H3         5.9224    1.2206    9.0745 H         1 RES1    0.0000
     16 C6        -0.9095    2.4181    9.0363 C.ar      1 RES1    0.0000
     17 C7        -1.6076    1.3189    8.5732 C.ar      1 RES1    0.0000
     18 H4        -1.1443    0.6205    8.1262 H         1 RES1    0.0000
     19 C8        -2.9835    1.2277    8.7525 C.ar      1 RES1    0.0000
     20 H5        -3.4491    0.4545    8.4555 H         1 RES1    0.0000
     21 C9        -3.6820    2.2587    9.3627 C.ar      1 RES1    0.0000
     22 C10       -2.9827    3.3556    9.8685 C.ar      1 RES1    0.0000
     23 H6        -3.4424    4.0354   10.3478 H         1 RES1    0.0000
     24 C11       -1.6503    3.4457    9.6715 C.ar      1 RES1    0.0000
     25 H7        -1.1926    4.2212    9.9699 H         1 RES1    0.0000
     26 C12        7.9379    3.3248    9.4744 C.ar      1 RES1    0.0000
     27 C13        8.7329    4.4503    9.2877 C.ar      1 RES1    0.0000
     28 H8         8.4608    5.1241    8.6761 H         1 RES1    0.0000
     29 C14        9.9272    4.5998    9.9920 C.ar      1 RES1    0.0000
     30 H9        10.4426    5.3879    9.8832 H         1 RES1    0.0000
     31 C15       10.3675    3.5974   10.8550 C.ar      1 RES1    0.0000
     32 H10       11.2130    3.6628   11.2829 H         1 RES1    0.0000
     33 C16        9.5416    2.5005   11.0756 C.ar      1 RES1    0.0000
     34 H11        9.8064    1.8355   11.7019 H         1 RES1    0.0000
     35 C17        8.3297    2.3543   10.3889 C.ar      1 RES1    0.0000
     36 H12        7.7798    1.5970   10.5463 H         1 RES1    0.0000
     37 C18       -5.7719    1.0920    9.2804 C.3       1 RES1    0.0000
     38 H13       -5.4033    0.3215    9.7597 H         1 RES1    0.0000
     39 H14       -5.7191    0.9310    8.3144 H         1 RES1    0.0000
     40 H15       -6.7076    1.2206    9.5377 H         1 RES1    0.0000
@<TRIPOS>BOND
     1    1    4 1
     2    2   21 1
     3    3    8 1
     4    4    8 2
     5    5    6 1
     6    6    7 2
     7    7   13 1
     8    8   16 1
     9    9    1 1
    10   10    5 1
    11   11   10 1
    12   12   10 1
    13   13   14 2
    14   14    5 1
    15   15   14 1
    16   16   17 ar
    17   17   18 1
    18   19   17 ar
    19   20   19 1
    20   21   19 ar
    21   22   21 ar
    22   23   22 1
    23   24   16 ar
    24   25   24 1
    25   26   13 1
    26   27   26 ar
    27   28   27 1
    28   29   27 ar
    29   30   29 1
    30   31   29 ar
    31   32   31 1
    32   33   31 ar
    33   34   33 1
    34   35   26 ar
    35   36   35 1
    36   37    2 1
    37   38   37 1
    38   39   37 1
    39   40   37 1
    40    3    9 2
    41    9   10 1
    42   22   24 ar
    43   33   35 ar
@<TRIPOS>SUBSTRUCTURE
     1 RES1 1

@<TRIPOS>CRYSIN
  19.0400    5.4956   15.1200  90.0000 103.4920  90.0000  14 1

