# MOL2 file generated by ConQuest
# Please check atom types

@<TRIPOS>MOLECULE
HAKYUO
    86    88     2
SMALL
NO_CHARGES
****
Generated from CSD

@<TRIPOS>ATOM
      1 O1         7.1486    1.1714   11.1427 O.3       1 RES1    0.0000
      2 O2         4.4311   -0.2377    4.2095 O.2       1 RES1    0.0000
      3 N1         7.3643   -0.0429    8.8996 N.2       1 RES1    0.0000
      4 N2         5.0565   -0.1684    5.2849 N.3       1 RES1    0.0000
      5 C1        10.3257    0.7595   12.8930 C.ar      1 RES1    0.0000
      6 C2        11.0715    0.0660   11.9778 C.ar      1 RES1    0.0000
      7 C3         9.0295    1.1285   12.6090 C.ar      1 RES1    0.0000
      8 C4        10.4914   -0.2964   10.7640 C.ar      1 RES1    0.0000
      9 C5         8.4119    0.7942   11.4073 C.ar      1 RES1    0.0000
     10 C6         9.1108    0.0537   10.4193 C.ar      1 RES1    0.0000
     11 C7         8.5276   -0.3608    9.1885 C.2       1 RES1    0.0000
     12 C8         6.8577   -0.4202    7.5717 C.3       1 RES1    0.0000
     13 C9         6.9312    0.7867    6.6443 C.3       1 RES1    0.0000
     14 C10        5.3974   -0.8429    7.6591 C.3       1 RES1    0.0000
     15 C11        6.4231    0.5465    5.2460 C.3       1 RES1    0.0000
     16 C12        4.7579   -1.1954    6.3190 C.3       1 RES1    0.0000
     17 C13        7.4253   -0.2699    4.4061 C.3       1 RES1    0.0000
     18 C14        6.1698    1.8764    4.5590 C.3       1 RES1    0.0000
     19 C15        5.2488   -2.5649    5.8117 C.3       1 RES1    0.0000
     20 C16        3.2334   -1.1863    6.4598 C.3       1 RES1    0.0000
     21 H1        10.9011    0.8874   13.6989 H         1 RES1    0.0000
     22 H2        11.9283   -0.1527   12.4366 H         1 RES1    0.0000
     23 H3         8.4385    1.7179   13.0435 H         1 RES1    0.0000
     24 H4        10.9636   -0.7132   10.0211 H         1 RES1    0.0000
     25 H5         6.8562    0.7025   10.2251 H         1 RES1    0.0000
     26 H6         9.0279   -0.8949    8.5524 H         1 RES1    0.0000
     27 H7         7.4519   -1.0847    7.1226 H         1 RES1    0.0000
     28 H8         6.4950    1.5330    7.0570 H         1 RES1    0.0000
     29 H9         7.8725    1.1343    6.5885 H         1 RES1    0.0000
     30 H10        4.9627   -0.1255    7.9892 H         1 RES1    0.0000
     31 H11        5.4458   -1.7575    8.2004 H         1 RES1    0.0000
     32 H12        8.1101    0.2815    4.1002 H         1 RES1    0.0000
     33 H13        7.7427   -0.9898    4.9110 H         1 RES1    0.0000
     34 H14        6.9343   -0.6208    3.6390 H         1 RES1    0.0000
     35 H15        5.5225    2.3701    5.0543 H         1 RES1    0.0000
     36 H16        6.9687    2.3643    4.4911 H         1 RES1    0.0000
     37 H17        5.8195    1.7121    3.6802 H         1 RES1    0.0000
     38 H18        6.1807   -2.5079    5.6223 H         1 RES1    0.0000
     39 H19        5.1175   -3.2129    6.5060 H         1 RES1    0.0000
     40 H20        4.7704   -2.8109    5.0470 H         1 RES1    0.0000
     41 H21        2.9270   -0.2823    6.3967 H         1 RES1    0.0000
     42 H22        2.9786   -1.5693    7.2610 H         1 RES1    0.0000
     43 H23        2.8629   -1.6766    5.7170 H         1 RES1    0.0000
     44 O3         4.4248    2.8365    8.2441 O.3       2 RES2    0.0000
     45 O4         7.3753    3.9650   15.0535 O.2       2 RES2    0.0000
     46 N3         4.2810    4.0715   10.5431 N.2       2 RES2    0.0000
     47 N4         6.5825    4.0178   13.9927 N.3       2 RES2    0.0000
     48 C17        1.3478    3.4664    6.4938 C.ar      2 RES2    0.0000
     49 C18        0.6536    4.1961    7.4236 C.ar      2 RES2    0.0000
     50 C19        2.5845    2.9917    6.7730 C.ar      2 RES2    0.0000
     51 C20        1.2368    4.5123    8.6107 C.ar      2 RES2    0.0000
     52 C21        3.1724    3.3013    7.9917 C.ar      2 RES2    0.0000
     53 C22        2.4782    4.0913    8.9020 C.ar      2 RES2    0.0000
     54 C23        3.0974    4.4677   10.2008 C.2       2 RES2    0.0000
     55 C24        4.8079    4.4124   11.8540 C.3       2 RES2    0.0000
     56 C25        4.7157    3.2030   12.7158 C.3       2 RES2    0.0000
     57 C26        6.2714    4.8037   11.6986 C.3       2 RES2    0.0000
     58 C27        5.3129    3.3739   14.1213 C.3       2 RES2    0.0000
     59 C28        6.9719    5.0935   13.0265 C.3       2 RES2    0.0000
     60 C29        5.4943    2.0019   14.7550 C.3       2 RES2    0.0000
     61 C30        4.4202    4.2192   15.0171 C.3       2 RES2    0.0000
     62 C31        8.4729    5.1017   12.8007 C.3       2 RES2    0.0000
     63 C32        6.5372    6.4704   13.6116 C.3       2 RES2    0.0000
     64 H24        0.9710    3.2773    5.6515 H         2 RES2    0.0000
     65 H25       -0.2173    4.3909    7.4382 H         2 RES2    0.0000
     66 H26        3.0208    2.6573    6.0544 H         2 RES2    0.0000
     67 H27        0.8381    5.0827    9.1545 H         2 RES2    0.0000
     68 H28        4.5062    2.9661    8.9506 H         2 RES2    0.0000
     69 H29        2.4923    5.1554   10.7470 H         2 RES2    0.0000
     70 H30        4.4733    5.1512   12.2570 H         2 RES2    0.0000
     71 H31        3.6869    2.9719   12.9415 H         2 RES2    0.0000
     72 H32        5.1879    2.5385   12.2691 H         2 RES2    0.0000
     73 H33        6.4684    5.4526   11.1281 H         2 RES2    0.0000
     74 H34        6.6685    3.9732   11.3854 H         2 RES2    0.0000
     75 H35        6.1854    1.5272   14.2889 H         2 RES2    0.0000
     76 H36        5.7101    2.0795   15.6604 H         2 RES2    0.0000
     77 H37        4.6781    1.5000   14.6578 H         2 RES2    0.0000
     78 H38        4.7720    4.2374   15.8935 H         2 RES2    0.0000
     79 H39        4.3498    5.0976   14.6724 H         2 RES2    0.0000
     80 H40        3.5461    3.8222   15.0390 H         2 RES2    0.0000
     81 H41        8.7496    4.2811   12.4123 H         2 RES2    0.0000
     82 H42        8.9185    5.1933   13.6553 H         2 RES2    0.0000
     83 H43        8.7246    5.8240   12.2521 H         2 RES2    0.0000
     84 H44        6.8749    6.5810   14.5972 H         2 RES2    0.0000
     85 H45        7.0610    7.1754   13.0216 H         2 RES2    0.0000
     86 H46        5.6522    6.5794   13.4975 H         2 RES2    0.0000
@<TRIPOS>BOND
     1    1    9 1
     2    2    4 1
     3    3   11 2
     4    4   15 1
     5    5    6 ar
     6    6    8 ar
     7    7    5 ar
     8    8   10 ar
     9    9    7 ar
    10   10    9 ar
    11   11   10 1
    12   12    3 1
    13   13   12 1
    14   14   12 1
    15   15   13 1
    16   16    4 1
    17   17   15 1
    18   18   15 1
    19   19   16 1
    20   20   16 1
    21   21    5 1
    22   22    6 1
    23   23    7 1
    24   24    8 1
    25   25    1 1
    26   26   11 1
    27   27   12 1
    28   28   13 1
    29   29   13 1
    30   30   14 1
    31   31   14 1
    32   32   17 1
    33   33   17 1
    34   34   17 1
    35   35   18 1
    36   36   18 1
    37   37   18 1
    38   38   19 1
    39   39   19 1
    40   40   19 1
    41   41   20 1
    42   42   20 1
    43   43   20 1
    44   44   52 1
    45   45   47 1
    46   46   54 2
    47   47   58 1
    48   48   49 ar
    49   49   51 ar
    50   50   48 ar
    51   51   53 ar
    52   52   50 ar
    53   53   52 ar
    54   54   53 1
    55   55   46 1
    56   56   55 1
    57   57   55 1
    58   58   56 1
    59   59   47 1
    60   60   58 1
    61   61   58 1
    62   62   59 1
    63   63   59 1
    64   64   48 1
    65   65   49 1
    66   66   50 1
    67   67   51 1
    68   68   44 1
    69   69   54 1
    70   70   55 1
    71   71   56 1
    72   72   56 1
    73   73   57 1
    74   74   57 1
    75   75   60 1
    76   76   60 1
    77   77   60 1
    78   78   61 1
    79   79   61 1
    80   80   61 1
    81   81   62 1
    82   82   62 1
    83   83   62 1
    84   84   63 1
    85   85   63 1
    86   86   63 1
    87   14   16 1
    88   57   59 1
@<TRIPOS>SUBSTRUCTURE
     1 RES1 1
     2 RES2 44

@<TRIPOS>CRYSIN
  15.6355    8.2552   24.2760  90.0000  90.0000  90.0000  29 1

