# MOL2 file generated by ConQuest
# Please check atom types

@<TRIPOS>MOLECULE
HALJUZ01
    45    40     2
SMALL
NO_CHARGES
****
Generated from CSD

@<TRIPOS>ATOM
      1 C1        -0.9107   10.8998    1.1984 C.ar      1 RES1    0.0000
      2 C2        -1.3805   11.5267    2.3352 C.ar      1 RES1    0.0000
      3 C3        -0.9318    9.5180    1.2321 C.ar      1 RES1    0.0000
      4 C4        -1.3805    8.8180    2.3352 C.ar      1 RES1    0.0000
      5 C5        -0.3926   11.6504   -0.0243 C.3       1 RES1    0.0000
      6 C6        -1.0566   11.2048   -1.3002 C.3       1 RES1    0.0000
      7 C7         1.0879   11.5042   -0.1354 C.3       1 RES1    0.0000
      8 C8        -1.3805    7.2942    2.3352 C.3       1 RES1    0.0000
      9 C9        -0.7726    6.6827    3.4692 C.3       1 RES1    0.0000
     10 N1        -1.3805   13.0280    2.3352 N.pl3     1 RES1    0.0000
     11 O1        -2.3941   13.5819    2.0251 O.2       1 RES1    0.0000
     12 H1        -0.6307    9.0344    0.4717 H         1 RES1    0.0000
     13 H2        -0.6103   12.5656    0.0990 H         1 RES1    0.0000
     14 H3        -0.7026   11.6982   -2.0307 H         1 RES1    0.0000
     15 H4        -0.8945   10.2785   -1.4348 H         1 RES1    0.0000
     16 H5        -1.9931   11.3567   -1.2386 H         1 RES1    0.0000
     17 H6         1.3953   11.9766   -0.9005 H         1 RES1    0.0000
     18 H7         1.5004   11.8599    0.6427 H         1 RES1    0.0000
     19 H8         1.3099   10.5849   -0.2195 H         1 RES1    0.0000
     20 H9        -0.8242    5.7381    3.3823 H         1 RES1    0.0000
     21 H10        0.1316    6.9512    3.5271 H         1 RES1    0.0000
     22 H11       -1.2375    6.9512    4.2557 H         1 RES1    0.0000
     23 C10       -2.6332    6.7038    2.1138 Du        2 SUP2    0.0000
     24 H12       -0.8264    7.1142    1.5842 Du        2 SUP2    0.0000
     25 H13       -2.5507    5.7577    2.1241 Du        2 SUP2    0.0000
     26 H14       -3.2420    6.9779    2.7873 Du        2 SUP2    0.0000
     27 H15       -2.9669    6.9779    1.2610 Du        2 SUP2    0.0000
     28 C1A       -1.8502   10.8998    3.4720 C.ar      1 RES1    0.0000
     29 C3A       -1.8292    9.5180    3.4384 C.ar      1 RES1    0.0000
     30 C9A       -1.9884    6.6827    1.2012 C.3       1 RES1    0.0000
     31 H9A       -1.9368    5.7381    1.2881 H         1 RES1    0.0000
     32 H10A      -2.8925    6.9512    1.1433 H         1 RES1    0.0000
     33 H11A      -1.5235    6.9512    0.4147 H         1 RES1    0.0000
     34 H1A       -2.1302    9.0344    4.1987 H         1 RES1    0.0000
     35 C5A       -2.3684   11.6504    4.6947 C.3       1 RES1    0.0000
     36 C6A       -1.7044   11.2048    5.9707 C.3       1 RES1    0.0000
     37 H3A       -2.0584   11.6982    6.7011 H         1 RES1    0.0000
     38 H4A       -1.8665   10.2785    6.1052 H         1 RES1    0.0000
     39 H5A       -0.7679   11.3567    5.9090 H         1 RES1    0.0000
     40 C7A       -3.8488   11.5042    4.8059 C.3       1 RES1    0.0000
     41 H6A       -4.1563   11.9766    5.5709 H         1 RES1    0.0000
     42 H7A       -4.2614   11.8599    4.0278 H         1 RES1    0.0000
     43 H8A       -4.0709   10.5849    4.8899 H         1 RES1    0.0000
     44 H2A       -2.1507   12.5656    4.5714 H         1 RES1    0.0000
     45 O1A       -0.3669   13.5819    2.6453 O.2       1 RES1    0.0000
@<TRIPOS>BOND
     1    1    2 ar
     2    2   10 1
     3    3    1 ar
     4    4    3 ar
     5    5    1 1
     6    6    5 1
     7    7    5 1
     8    8    4 1
     9    9    8 1
    10   10   11 2
    11   12    3 1
    12   13    5 1
    13   14    6 1
    14   15    6 1
    15   16    6 1
    16   17    7 1
    17   18    7 1
    18   19    7 1
    19   20    9 1
    20   21    9 1
    21   22    9 1
    22   28    2 ar
    23   29    4 ar
    24   30    8 1
    25   31   30 1
    26   32   30 1
    27   33   30 1
    28   34   29 1
    29   35   28 1
    30   36   35 1
    31   37   36 1
    32   38   36 1
    33   39   36 1
    34   40   35 1
    35   41   40 1
    36   42   40 1
    37   43   40 1
    38   44   35 1
    39   45   10 2
    40   28   29 ar
@<TRIPOS>SUBSTRUCTURE
     1 RES1 1
     2 SUP2 23

@<TRIPOS>CRYSIN
  11.9690   14.0570   10.8510  90.0000 120.5900  90.0000  15 1

