# MOL2 file generated by ConQuest
# Please check atom types

@<TRIPOS>MOLECULE
HALJUZ
    41    41     1
SMALL
NO_CHARGES
****
Generated from CSD

@<TRIPOS>ATOM
      1 C1         4.8242   10.8942    6.0686 C.ar      1 RES1    0.0000
      2 C2         3.6107   11.5408    6.1820 C.ar      1 RES1    0.0000
      3 C3         2.3727   10.8956    6.4189 C.ar      1 RES1    0.0000
      4 C4         2.4114    9.4744    6.4292 C.ar      1 RES1    0.0000
      5 C5         3.6473    8.8292    6.2438 C.ar      1 RES1    0.0000
      6 C6         4.7868    9.5419    6.0789 C.ar      1 RES1    0.0000
      7 C7         6.1212   11.6954    5.8214 C.3       1 RES1    0.0000
      8 C8         6.8857   11.2456    4.6365 C.3       1 RES1    0.0000
      9 C9         6.9896   11.5267    7.0887 C.3       1 RES1    0.0000
     10 C10        1.0508   11.6251    6.5323 C.3       1 RES1    0.0000
     11 C11        0.2916   11.1331    7.7996 C.3       1 RES1    0.0000
     12 C12        0.1972   11.4846    5.3268 C.3       1 RES1    0.0000
     13 C13        3.4737    7.3026    6.2438 C.3       1 RES1    0.0000
     14 C14        3.2658    6.7460    4.9559 C.3       1 RES1    0.0000
     15 C15        3.0023    6.6771    7.2638 C.3       1 RES1    0.0000
     16 N1         3.6968   13.0238    6.2541 N.pl3     1 RES1    0.0000
     17 O1         3.2791   13.5748    5.1619 O.2       1 RES1    0.0000
     18 O2         3.8087   13.5791    7.2329 O.2       1 RES1    0.0000
     19 H1         1.4437    8.9965    6.3159 H         1 RES1    0.0000
     20 H2         5.6736    9.0246    5.7801 H         1 RES1    0.0000
     21 H3         5.9120   12.7216    5.5226 H         1 RES1    0.0000
     22 H4         1.2612   12.6794    6.4292 H         1 RES1    0.0000
     23 H5         4.2609    6.7895    6.8414 H         1 RES1    0.0000
     24 H6         7.8448   11.7864    4.5580 H         1 RES1    0.0000
     25 H7         7.1030   10.1809    4.7585 H         1 RES1    0.0000
     26 H8         6.3299   11.3929    3.7021 H         1 RES1    0.0000
     27 H9         7.1895   10.4488    7.2251 H         1 RES1    0.0000
     28 H10        7.9315   12.0543    7.0246 H         1 RES1    0.0000
     29 H11        6.3960   11.8888    7.9176 H         1 RES1    0.0000
     30 H12       -0.5973   11.7150    7.9183 H         1 RES1    0.0000
     31 H13        0.0197   10.0655    7.6601 H         1 RES1    0.0000
     32 H14        0.9566   11.2241    8.6326 H         1 RES1    0.0000
     33 H15       -0.0864   10.4112    5.1988 H         1 RES1    0.0000
     34 H16       -0.7034   12.0606    5.4570 H         1 RES1    0.0000
     35 H17        0.7089   11.7927    4.4085 H         1 RES1    0.0000
     36 H18        3.6765    5.7485    4.9892 H         1 RES1    0.0000
     37 H19        2.1527    6.6585    4.8555 H         1 RES1    0.0000
     38 H20        3.6009    7.2259    4.0579 H         1 RES1    0.0000
     39 H21        1.9228    6.6104    7.1498 H         1 RES1    0.0000
     40 H22        3.4466    5.7004    7.2834 H         1 RES1    0.0000
     41 H23        3.1845    7.1421    8.2366 H         1 RES1    0.0000
@<TRIPOS>BOND
     1    1    2 ar
     2    2    3 ar
     3    3    4 ar
     4    4    5 ar
     5    5    6 ar
     6    6    1 ar
     7    7    1 1
     8    8    7 1
     9    9    7 1
    10   10    3 1
    11   11   10 1
    12   12   10 1
    13   13    5 1
    14   14   13 1
    15   15   13 1
    16   16    2 1
    17   17   16 2
    18   18   16 2
    19   19    4 1
    20   20    6 1
    21   21    7 1
    22   22   10 1
    23   23   13 1
    24   24    8 1
    25   25    8 1
    26   26    8 1
    27   27    9 1
    28   28    9 1
    29   29    9 1
    30   30   11 1
    31   31   11 1
    32   32   11 1
    33   33   12 1
    34   34   12 1
    35   35   12 1
    36   36   14 1
    37   37   14 1
    38   38   14 1
    39   39   15 1
    40   40   15 1
    41   41   15 1
@<TRIPOS>SUBSTRUCTURE
     1 RES1 1

