# MOL2 file generated by ConQuest
# Please check atom types

@<TRIPOS>MOLECULE
HALKAG
    35    36     1
SMALL
USER_CHARGES
****
Generated from CSD

@<TRIPOS>ATOM
      1 O1         4.3808   11.9467    8.4437 O.2       1 RES1   -1.0000
      2 N1         3.9035   10.8277    8.8846 N.pl3     1 RES1    1.0000
      3 C1         4.2250   10.1796    9.9421 C.2       1 RES1    0.0000
      4 C2         3.4458    8.9071   10.1396 C.3       1 RES1    0.0000
      5 C3         1.6022    8.0866    8.3778 C.ar      1 RES1    0.0000
      6 C4         0.9130    8.4909    7.2226 C.ar      1 RES1    0.0000
      7 C5         1.1632    9.7039    6.5702 C.ar      1 RES1    0.0000
      8 C6         2.1838   10.5720    7.0870 C.ar      1 RES1    0.0000
      9 C7         2.8324   10.1510    8.2102 C.ar      1 RES1    0.0000
     10 C8         2.5789    8.9904    8.9086 C.ar      1 RES1    0.0000
     11 C9         4.3457    7.6347   10.1715 C.3       1 RES1    0.0000
     12 C10        2.5899    8.9666   11.4006 C.3       1 RES1    0.0000
     13 C11        0.3402   10.1320    5.3431 C.3       1 RES1    0.0000
     14 C12        1.1303   11.0596    4.4134 C.3       1 RES1    0.0000
     15 C13       -0.8999   10.9525    5.8459 C.3       1 RES1    0.0000
     16 C14       -0.1097    8.9071    4.5291 C.3       1 RES1    0.0000
     17 H1         4.8286   10.5720   10.7541 H         1 RES1    0.0000
     18 H2         1.3937    7.1233    8.8387 H         1 RES1    0.0000
     19 H3         0.1866    7.8012    6.8236 H         1 RES1    0.0000
     20 H4         2.3594   11.5352    6.6241 H         1 RES1    0.0000
     21 H5         4.8834    7.5514    9.2378 H         1 RES1    0.0000
     22 H6         5.0041    7.3730   10.9936 H         1 RES1    0.0000
     23 H7         3.6104    6.8379   10.2354 H         1 RES1    0.0000
     24 H8         3.2373    9.1687   12.2505 H         1 RES1    0.0000
     25 H9         2.0851    9.8941   11.1532 H         1 RES1    0.0000
     26 H10        2.0192    8.0271   11.5921 H         1 RES1    0.0000
     27 H11        1.2401   12.0347    4.8882 H         1 RES1    0.0000
     28 H12        2.1180   10.5720    4.3695 H         1 RES1    0.0000
     29 H13        0.7682   11.1904    3.4118 H         1 RES1    0.0000
     30 H14       -1.3388   10.4293    6.7039 H         1 RES1    0.0000
     31 H15       -0.1097   11.5352    6.2051 H         1 RES1    0.0000
     32 H16       -1.6461   10.9406    5.0279 H         1 RES1    0.0000
     33 H17        0.7243    8.2055    4.4493 H         1 RES1    0.0000
     34 H18       -0.8779    8.4433    5.1676 H         1 RES1    0.0000
     35 H19       -0.3292    9.2758    3.5315 H         1 RES1    0.0000
@<TRIPOS>BOND
     1    1    2 1
     2    2    3 2
     3    3    4 1
     4    4   10 1
     5    5    6 ar
     6    6    7 ar
     7    7    8 ar
     8    8    9 ar
     9    9    2 1
    10   10    5 ar
    11   11    4 1
    12   12    4 1
    13   13    7 1
    14   14   13 1
    15   15   13 1
    16   16   13 1
    17   17    3 1
    18   18    5 1
    19   19    6 1
    20   20    8 1
    21   21   11 1
    22   22   11 1
    23   23   11 1
    24   24   12 1
    25   25   12 1
    26   26   12 1
    27   27   14 1
    28   28   14 1
    29   29   14 1
    30   30   15 1
    31   31   15 1
    32   32   15 1
    33   33   16 1
    34   34   16 1
    35   35   16 1
    36    9   10 ar
@<TRIPOS>SUBSTRUCTURE
     1 RES1 1

@<TRIPOS>CRYSIN
  10.9740   11.8920   19.9520  90.0000  90.0000  90.0000  61 3

