# MOL2 file generated by ConQuest
# Please check atom types

@<TRIPOS>MOLECULE
HALLUB
    66    66     2
SMALL
NO_CHARGES
****
Generated from CSD

@<TRIPOS>ATOM
      1 N1        11.3814    0.1631    5.4204 N.3       1 RES1    0.0000
      2 O1        10.4190    0.4208    6.5746 O.3       1 RES1    0.0000
      3 O2        12.7919    5.7401    7.7641 O.3       1 RES1    0.0000
      4 O3        14.6719    4.5025    8.9791 O.3       1 RES1    0.0000
      5 O4         9.0007    1.3724    4.5879 O.3       1 RES1    0.0000
      6 O5        11.9678    3.2330    3.7057 O.3       1 RES1    0.0000
      7 O6        10.5943    3.1644    1.2990 O.3       1 RES1    0.0000
      8 O7         8.2584    4.4824    3.6604 O.3       1 RES1    0.0000
      9 O8         7.9097    2.2412    6.3446 O.2       1 RES1    0.0000
     10 O9        13.2419    1.7140    2.6477 Du        2 SUP2    0.0000
     11 O10       13.3374    1.5249    3.2691 O.2       1 RES1    0.0000
     12 O11        8.6695    2.8701    0.2123 O.2       1 RES1    0.0000
     13 O12        9.0358    6.1089    4.9472 Du        2 SUP2    0.0000
     14 O13        9.1312    5.6621    5.3364 O.2       1 RES1    0.0000
     15 C1        11.0482    1.5000    5.8825 C.3       1 RES1    0.0000
     16 C2        12.6555   -0.3877    5.9433 C.3       1 RES1    0.0000
     17 C3        13.0471    0.1123    7.3286 C.3       1 RES1    0.0000
     18 C4        13.9335    2.3263    8.1422 C.ar      1 RES1    0.0000
     19 C5        13.8361    3.7117    8.2351 C.ar      1 RES1    0.0000
     20 C6        12.8055    4.3890    7.5685 C.ar      1 RES1    0.0000
     21 C7        11.9308    3.6869    6.7868 C.ar      1 RES1    0.0000
     22 C8        12.0126    2.2897    6.6984 C.ar      1 RES1    0.0000
     23 C9        13.0062    1.6017    7.3783 C.ar      1 RES1    0.0000
     24 C10       10.1287    2.2081    4.8798 C.3       1 RES1    0.0000
     25 C11       10.7852    2.4256    3.5211 C.3       1 RES1    0.0000
     26 C12        9.8793    3.1230    2.5516 C.3       1 RES1    0.0000
     27 C13        9.4916    4.5451    2.8788 C.3       1 RES1    0.0000
     28 C14       11.6385    6.4423    7.3197 C.3       1 RES1    0.0000
     29 C15       15.7064    3.8760    9.6557 C.3       1 RES1    0.0000
     30 C16        7.9545    1.4764    5.4547 C.2       1 RES1    0.0000
     31 C17        6.9161    0.4551    5.0766 C.3       1 RES1    0.0000
     32 C18       13.1581    2.6951    3.3586 C.2       1 RES1    0.0000
     33 C19       14.2550    3.6987    3.5631 C.3       1 RES1    0.0000
     34 C20        9.8345    3.0261    0.1968 C.2       1 RES1    0.0000
     35 C21       10.6742    3.1278   -1.0491 C.3       1 RES1    0.0000
     36 C22        8.1766    5.2933    4.7062 C.2       1 RES1    0.0000
     37 C23        6.8304    5.2496    5.3629 C.3       1 RES1    0.0000
     38 H1        12.5756   -1.3428    5.9820 H         1 RES1    0.0000
     39 H2        13.3569   -0.1513    5.3309 H         1 RES1    0.0000
     40 H3        13.9374   -0.1856    7.5320 H         1 RES1    0.0000
     41 H4        12.4354   -0.2411    7.9764 H         1 RES1    0.0000
     42 H5        14.6368    1.8641    8.6032 H         1 RES1    0.0000
     43 H6        11.2528    4.1550    6.2927 H         1 RES1    0.0000
     44 H7         9.9027    3.0462    5.2900 H         1 RES1    0.0000
     45 H8        10.9976    1.5627    3.1574 H         1 RES1    0.0000
     46 H9         9.0552    2.6313    2.5571 H         1 RES1    0.0000
     47 H10        9.3436    5.0403    2.0707 H         1 RES1    0.0000
     48 H11       10.1852    4.9671    3.3907 H         1 RES1    0.0000
     49 H12       11.7399    7.3773    7.5088 H         1 RES1    0.0000
     50 H13       10.8632    6.1054    7.7763 H         1 RES1    0.0000
     51 H14       11.5333    6.3158    6.3745 H         1 RES1    0.0000
     52 H15       16.2168    4.5321   10.1366 H         1 RES1    0.0000
     53 H16       16.2753    3.4268    9.0267 H         1 RES1    0.0000
     54 H17       15.3440    3.2365   10.2737 H         1 RES1    0.0000
     55 H18        6.1719    0.5166    5.6802 H         1 RES1    0.0000
     56 H19        7.2999   -0.4244    5.1297 H         1 RES1    0.0000
     57 H20        6.6161    0.6194    4.1800 H         1 RES1    0.0000
     58 H21       15.0966    3.3086    3.3155 H         1 RES1    0.0000
     59 H22       14.2823    3.9588    4.4873 H         1 RES1    0.0000
     60 H23       14.0874    4.4706    3.0181 H         1 RES1    0.0000
     61 H24       10.1131    3.0273   -1.8219 H         1 RES1    0.0000
     62 H25       11.3385    2.4351   -1.0436 H         1 RES1    0.0000
     63 H26       11.1047    3.9848   -1.0746 H         1 RES1    0.0000
     64 H27        6.1777    4.9363    4.7339 H         1 RES1    0.0000
     65 H28        6.5908    6.1302    5.6614 H         1 RES1    0.0000
     66 H29        6.8616    4.6538    6.1158 H         1 RES1    0.0000
@<TRIPOS>BOND
     1    1    2 1
     2    2   15 1
     3    3   20 1
     4    4   19 1
     5    5   24 1
     6    6   25 1
     7    7   26 1
     8    8   27 1
     9    9   30 2
    10   11   32 2
    11   12   34 2
    12   14   36 2
    13   15    1 1
    14   16    1 1
    15   17   16 1
    16   18   19 ar
    17   19   20 ar
    18   20   21 ar
    19   21   22 ar
    20   22   15 1
    21   23   17 1
    22   24   15 1
    23   25   24 1
    24   26   25 1
    25   27   26 1
    26   28    3 1
    27   29    4 1
    28   30    5 1
    29   31   30 1
    30   32    6 1
    31   33   32 1
    32   34    7 1
    33   35   34 1
    34   36    8 1
    35   37   36 1
    36   38   16 1
    37   39   16 1
    38   40   17 1
    39   41   17 1
    40   42   18 1
    41   43   21 1
    42   44   24 1
    43   45   25 1
    44   46   26 1
    45   47   27 1
    46   48   27 1
    47   49   28 1
    48   50   28 1
    49   51   28 1
    50   52   29 1
    51   53   29 1
    52   54   29 1
    53   55   31 1
    54   56   31 1
    55   57   31 1
    56   58   33 1
    57   59   33 1
    58   60   33 1
    59   61   35 1
    60   62   35 1
    61   63   35 1
    62   64   37 1
    63   65   37 1
    64   66   37 1
    65   18   23 ar
    66   22   23 ar
@<TRIPOS>SUBSTRUCTURE
     1 RES1 1
     2 SUP2 10

@<TRIPOS>CRYSIN
  19.4820   11.8207   11.0553  90.0000  90.0000  90.0000  19 1

