# MOL2 file generated by ConQuest
# Please check atom types

@<TRIPOS>MOLECULE
HALLUC
    20    20     1
SMALL
NO_CHARGES
****
Generated from CSD

@<TRIPOS>ATOM
      1 O1         9.0166    0.6778    1.1506 O.2       1 RES1    0.0000
      2 O2         7.6835    0.9280   -1.9578 O.2       1 RES1    0.0000
      3 N1         8.1002   -0.1585    0.7290 N.pl3     1 RES1    0.0000
      4 N2         9.8267    0.2674   -2.1424 N.am      1 RES1    0.0000
      5 H1        10.5299   -0.1752   -1.8328 H         1 RES1    0.0000
      6 H2        10.0118    0.9326   -2.7878 H         1 RES1    0.0000
      7 C1         6.9894   -0.4657    1.2988 C.2       1 RES1    0.0000
      8 H3         6.6793   -0.0628    2.1013 H         1 RES1    0.0000
      9 C2         6.2484   -1.5107    0.5705 C.3       1 RES1    0.0000
     10 H4         5.3005   -1.2560    0.4480 H         1 RES1    0.0000
     11 H5         6.2922   -2.3765    1.0485 H         1 RES1    0.0000
     12 C3         6.9796   -1.5891   -0.7842 C.3       1 RES1    0.0000
     13 H6         7.1051   -2.5321   -1.0582 H         1 RES1    0.0000
     14 H7         6.4643   -1.1199   -1.4868 H         1 RES1    0.0000
     15 C4         8.3377   -0.9044   -0.5597 C.3       1 RES1    0.0000
     16 C5         8.6090    0.1908   -1.6168 C.2       1 RES1    0.0000
     17 C6         9.4741   -1.8906   -0.3395 C.3       1 RES1    0.0000
     18 H8         9.6855   -2.3396   -1.1839 H         1 RES1    0.0000
     19 H9         9.2040   -2.5569    0.3266 H         1 RES1    0.0000
     20 H10       10.2655   -1.4099   -0.0172 H         1 RES1    0.0000
@<TRIPOS>BOND
     1    1    3 1
     2    2   16 2
     3    3    7 2
     4    4    5 1
     5    6    4 1
     6    7    8 1
     7    9    7 1
     8   10    9 1
     9   11    9 1
    10   12    9 1
    11   13   12 1
    12   14   12 1
    13   15    3 1
    14   16    4 1
    15   17   15 1
    16   18   17 1
    17   19   17 1
    18   20   17 1
    19   12   15 1
    20   15   16 1
@<TRIPOS>SUBSTRUCTURE
     1 RES1 1

@<TRIPOS>CRYSIN
  10.7580    5.7640   11.1050  90.0000 104.6700  90.0000  14 1

