# MOL2 file generated by ConQuest
# Please check atom types

@<TRIPOS>MOLECULE
HALMOY
    96    98     2
SMALL
NO_CHARGES
****
Generated from CSD

@<TRIPOS>ATOM
      1 C1        -0.3719    0.1459   12.9806 C.3       1 RES1    0.0000
      2 H1        -0.1549   -0.0243   12.0193 H         1 RES1    0.0000
      3 C2         0.8501   -0.2022   13.8660 C.3       1 RES1    0.0000
      4 H2         0.7143    0.1490   14.7916 H         1 RES1    0.0000
      5 O1         2.0060    0.4393   13.2535 O.3       1 RES1    0.0000
      6 C3         2.5738    1.5231   13.8380 C.2       1 RES1    0.0000
      7 O2         2.1626    2.0020   14.8722 O.2       1 RES1    0.0000
      8 C4         3.7425    1.9777   13.0488 C.3       1 RES1    0.0000
      9 H3         4.2102    2.6875   13.5373 H         1 RES1    0.0000
     10 H4         3.4382    2.3242   12.1837 H         1 RES1    0.0000
     11 H5         4.3512    1.2237   12.9031 H         1 RES1    0.0000
     12 C5         1.1576   -1.6858   13.9125 C.3       1 RES1    0.0000
     13 H6         1.5774   -1.9685   13.0504 H         1 RES1    0.0000
     14 O3         2.0856   -1.9062   14.9994 O.3       1 RES1    0.0000
     15 C6         3.3169   -2.3379   14.6815 C.2       1 RES1    0.0000
     16 O4         3.6936   -2.5522   13.5590 O.2       1 RES1    0.0000
     17 C7         4.1510   -2.5006   15.9110 C.3       1 RES1    0.0000
     18 H7         4.4561   -1.6219   16.2180 H         1 RES1    0.0000
     19 H8         4.9272   -3.0645   15.7079 H         1 RES1    0.0000
     20 H9         3.6159   -2.9247   16.6150 H         1 RES1    0.0000
     21 C8        -0.0970   -2.4884   14.1528 C.3       1 RES1    0.0000
     22 H10       -0.4010   -2.3896   15.1001 H         1 RES1    0.0000
     23 O5         0.2689   -3.8702   13.8768 O.3       1 RES1    0.0000
     24 C9        -0.3961   -4.8339   14.5590 C.2       1 RES1    0.0000
     25 O6        -1.2369   -4.6044   15.3932 O.2       1 RES1    0.0000
     26 C10        0.0524   -6.1974   14.1497 C.3       1 RES1    0.0000
     27 H11       -0.3969   -6.4513   13.3171 H         1 RES1    0.0000
     28 H12       -0.1748   -6.8404   14.8536 H         1 RES1    0.0000
     29 H13        1.0218   -6.1929   14.0101 H         1 RES1    0.0000
     30 C11       -1.1792   -2.0521   13.2039 C.3       1 RES1    0.0000
     31 H14       -0.8865   -2.2117   12.2721 H         1 RES1    0.0000
     32 H15       -1.9960   -2.5872   13.3651 H         1 RES1    0.0000
     33 O7        -1.4740   -0.6688   13.3791 O.3       1 RES1    0.0000
     34 N1        -0.7525    1.5095   13.1558 N.pl3     1 RES1    0.0000
     35 H16       -1.1611    1.7025   13.8768 H         1 RES1    0.0000
     36 C12       -0.5208    2.5492   12.2612 C.ar      1 RES1    0.0000
     37 C13       -1.0192    3.8139   12.5915 C.ar      1 RES1    0.0000
     38 H17       -1.5155    3.9431   13.3900 H         1 RES1    0.0000
     39 C14       -0.7784    4.8658   11.7371 C.ar      1 RES1    0.0000
     40 N2        -1.2740    6.1898   12.1651 N.pl3     1 RES1    0.0000
     41 O8        -1.7525    6.3251   13.2845 O.2       1 RES1    0.0000
     42 O9        -1.1934    7.1232   11.3495 O.2       1 RES1    0.0000
     43 C15       -0.0597    4.7610   10.5712 C.ar      1 RES1    0.0000
     44 H18        0.0880    5.5149   10.0115 H         1 RES1    0.0000
     45 C16        0.4468    3.4962   10.2409 C.ar      1 RES1    0.0000
     46 H19        0.9542    3.3837    9.4455 H         1 RES1    0.0000
     47 C17        0.2089    2.4018   11.0735 C.ar      1 RES1    0.0000
     48 H20        0.5464    1.5475   10.8332 H         1 RES1    0.0000
     49 C18        4.2256   11.7701   10.2347 C.3       2 RES2    0.0000
     50 H21        4.4642   11.8492   11.2022 H         2 RES2    0.0000
     51 C19        5.4384   12.1441    9.3742 C.3       2 RES2    0.0000
     52 H22        5.2872   11.8674    8.4253 H         2 RES2    0.0000
     53 O10        6.5846   11.4555    9.9184 O.3       2 RES2    0.0000
     54 C20        7.1150   10.4112    9.2378 C.2       2 RES2    0.0000
     55 O11        6.6386    9.9825    8.2067 O.2       2 RES2    0.0000
     56 C21        8.3184    9.8807    9.9277 C.3       2 RES2    0.0000
     57 H23        8.5606    9.0127    9.5401 H         2 RES2    0.0000
     58 H24        8.1265    9.7712   10.8813 H         2 RES2    0.0000
     59 H25        9.0626   10.5069    9.8145 H         2 RES2    0.0000
     60 C22        5.7738   13.6307    9.4424 C.3       2 RES2    0.0000
     61 H26        6.1938   13.8390   10.3262 H         2 RES2    0.0000
     62 O12        6.7227   13.8968    8.3772 O.3       2 RES2    0.0000
     63 C23        7.9795   14.2494    8.7401 C.2       2 RES2    0.0000
     64 O13        8.3262   14.3877    9.8890 O.2       2 RES2    0.0000
     65 C24        8.8720   14.4090    7.5617 C.3       2 RES2    0.0000
     66 H27        9.4780   13.6414    7.5028 H         2 RES2    0.0000
     67 H28        9.3952   15.2329    7.6563 H         2 RES2    0.0000
     68 H29        8.3304   14.4607    6.7461 H         2 RES2    0.0000
     69 C25        4.5352   14.4714    9.2626 C.3       2 RES2    0.0000
     70 H30        4.1975   14.4136    8.3230 H         2 RES2    0.0000
     71 O14        4.9832   15.8303    9.5758 O.3       2 RES2    0.0000
     72 C26        4.3748   16.8457    8.9416 C.2       2 RES2    0.0000
     73 O15        3.4056   16.6998    8.2253 O.2       2 RES2    0.0000
     74 C27        5.0364   18.1424    9.2409 C.3       2 RES2    0.0000
     75 H31        4.5751   18.8629    8.7618 H         2 RES2    0.0000
     76 H32        5.9725   18.1059    8.9509 H         2 RES2    0.0000
     77 H33        4.9991   18.3142   10.2037 H         2 RES2    0.0000
     78 C28        3.4851   14.0138   10.2425 C.3       2 RES2    0.0000
     79 H34        3.8356   14.0731   11.1666 H         2 RES2    0.0000
     80 H35        2.6846   14.5914   10.1743 H         2 RES2    0.0000
     81 O16        3.1363   12.6518    9.9339 O.3       2 RES2    0.0000
     82 N3         3.8276   10.4294    9.9494 N.pl3     2 RES2    0.0000
     83 H36        3.6237   10.2303    9.1013 H         2 RES2    0.0000
     84 C29        3.6598    9.4033   10.8704 C.ar      2 RES2    0.0000
     85 C30        3.4546    8.1219   10.3743 C.ar      2 RES2    0.0000
     86 H37        3.4043    7.9729    9.4378 H         2 RES2    0.0000
     87 C31        3.3236    7.0639   11.2580 C.ar      2 RES2    0.0000
     88 N4         3.1568    5.7141   10.7169 N.pl3     2 RES2    0.0000
     89 O17        2.9204    5.6046    9.4982 O.2       2 RES2    0.0000
     90 O18        3.2540    4.7610   11.4689 O.2       2 RES2    0.0000
     91 C32        3.4183    7.2159   12.6364 C.ar      2 RES2    0.0000
     92 H38        3.3579    6.4711   13.2241 H         2 RES2    0.0000
     93 C33        3.6058    8.5065   13.1140 C.ar      2 RES2    0.0000
     94 H39        3.6576    8.6494   14.0520 H         2 RES2    0.0000
     95 C34        3.7189    9.5934   12.2566 C.ar      2 RES2    0.0000
     96 H40        3.8363   10.4659   12.6116 H         2 RES2    0.0000
@<TRIPOS>BOND
     1    1    2 1
     2    3    1 1
     3    4    3 1
     4    5    3 1
     5    6    5 1
     6    7    6 2
     7    8    6 1
     8    9    8 1
     9   10    8 1
    10   11    8 1
    11   12    3 1
    12   13   12 1
    13   14   12 1
    14   15   14 1
    15   16   15 2
    16   17   15 1
    17   18   17 1
    18   19   17 1
    19   20   17 1
    20   21   12 1
    21   22   21 1
    22   23   21 1
    23   24   23 1
    24   25   24 2
    25   26   24 1
    26   27   26 1
    27   28   26 1
    28   29   26 1
    29   30   21 1
    30   31   30 1
    31   32   30 1
    32   33    1 1
    33   34    1 1
    34   35   34 1
    35   36   34 1
    36   37   36 ar
    37   38   37 1
    38   39   37 ar
    39   40   39 1
    40   41   40 2
    41   42   40 2
    42   43   39 ar
    43   44   43 1
    44   45   43 ar
    45   46   45 1
    46   47   36 ar
    47   48   47 1
    48   49   50 1
    49   51   49 1
    50   52   51 1
    51   53   51 1
    52   54   53 1
    53   55   54 2
    54   56   54 1
    55   57   56 1
    56   58   56 1
    57   59   56 1
    58   60   51 1
    59   61   60 1
    60   62   60 1
    61   63   62 1
    62   64   63 2
    63   65   63 1
    64   66   65 1
    65   67   65 1
    66   68   65 1
    67   69   60 1
    68   70   69 1
    69   71   69 1
    70   72   71 1
    71   73   72 2
    72   74   72 1
    73   75   74 1
    74   76   74 1
    75   77   74 1
    76   78   69 1
    77   79   78 1
    78   80   78 1
    79   81   49 1
    80   82   49 1
    81   83   82 1
    82   84   82 1
    83   85   84 ar
    84   86   85 1
    85   87   85 ar
    86   88   87 1
    87   89   88 2
    88   90   88 2
    89   91   87 ar
    90   92   91 1
    91   93   91 ar
    92   94   93 1
    93   95   84 ar
    94   96   95 1
    95   30   33 1
    96   45   47 ar
    97   78   81 1
    98   93   95 ar
@<TRIPOS>SUBSTRUCTURE
     1 RES1 1
     2 RES2 49

@<TRIPOS>CRYSIN
   8.1025   15.2010   15.5760  90.0000  95.4800  90.0000   4 1

