# MOL2 file generated by ConQuest
# Please check atom types

@<TRIPOS>MOLECULE
HALMEO02
   121   120     4
SMALL
NO_CHARGES
****
Generated from CSD

@<TRIPOS>ATOM
      1 C1        -1.4366   11.5249    9.8103 C.3       1 RES1    0.0000
      2 H1        -0.6114   11.1344   10.2170 H         1 RES1    0.0000
      3 C2        -2.5522   10.5284    9.9227 C.3       1 RES1    0.0000
      4 H2        -3.3376   10.8148    9.3741 H         1 RES1    0.0000
      5 O1        -2.0118    9.2526    9.4236 O.3       1 RES1    0.0000
      6 C3        -2.6203    8.5614    8.5873 C.2       1 RES1    0.0000
      7 O2        -3.5177    9.3923    7.6039 O.2       1 RES1    0.0000
      8 C4        -1.9278    7.3117    8.1686 C.3       1 RES1    0.0000
      9 C5        -2.9701   10.2917   11.3798 C.3       1 RES1    0.0000
     10 H3        -2.2471    9.7970   11.8601 H         1 RES1    0.0000
     11 O3        -4.1816    9.4964   11.3637 O.3       1 RES1    0.0000
     12 C6        -4.0470    8.1946   11.7651 C.2       1 RES1    0.0000
     13 O4        -3.0573    7.7354   12.1705 O.2       1 RES1    0.0000
     14 C7        -5.3733    7.5744   11.6541 C.3       1 RES1    0.0000
     15 C8        -3.2449   11.5888   12.0809 C.3       1 RES1    0.0000
     16 H4        -4.0522   12.0267   11.6862 H         1 RES1    0.0000
     17 O5        -3.4668   11.3095   13.4363 O.3       1 RES1    0.0000
     18 C9        -4.0718   12.0457   14.2177 C.2       1 RES1    0.0000
     19 O6        -3.9222   13.3807   14.0799 O.2       1 RES1    0.0000
     20 C10       -4.2646   11.5936   15.5999 C.3       1 RES1    0.0000
     21 C11       -2.0621   12.4599   11.9043 C.3       1 RES1    0.0000
     22 H5        -2.2210   13.3238   12.3646 H         1 RES1    0.0000
     23 H6        -1.2748   12.0315   12.3231 H         1 RES1    0.0000
     24 O7        -1.7876   12.7061   10.5168 O.3       1 RES1    0.0000
     25 N1        -1.1809   11.8279    8.4362 N.pl3     1 RES1    0.0000
     26 H7        -1.8014   11.6362    7.8421 H         1 RES1    0.0000
     27 C12       -0.0220   12.3983    8.0053 C.ar      1 RES1    0.0000
     28 C13        0.2498   12.7534    6.6472 C.ar      1 RES1    0.0000
     29 N2        -0.7926   12.5877    5.6344 N.pl3     1 RES1    0.0000
     30 O8        -1.9072   12.2398    5.9568 O.2       1 RES1    0.0000
     31 O9        -0.5084   12.8126    4.4730 O.2       1 RES1    0.0000
     32 C14        1.4644   13.2434    6.2284 C.ar      1 RES1    0.0000
     33 H8         1.5863   13.5061    5.3226 H         1 RES1    0.0000
     34 C15        2.4913   13.3522    7.1102 C.ar      1 RES1    0.0000
     35 H9         3.3591   13.5889    6.8038 H         1 RES1    0.0000
     36 C16        2.2723   13.1155    8.4709 C.ar      1 RES1    0.0000
     37 H10        2.9518   13.2954    9.1092 H         1 RES1    0.0000
     38 C17        1.0464   12.6137    8.8710 C.ar      1 RES1    0.0000
     39 H11        0.9273   12.4031    9.7902 H         1 RES1    0.0000
     40 C18        4.3699   15.4778    3.5711 C.3       2 RES2    0.0000
     41 H12        3.5329   15.0731    3.2019 H         2 RES2    0.0000
     42 C19        5.4148   14.4245    3.4360 C.3       2 RES2    0.0000
     43 H13        6.2122   14.6683    3.9859 H         2 RES2    0.0000
     44 O10        4.8040   13.2244    3.9672 O.3       2 RES2    0.0000
     45 C20        5.5047   12.4765    4.8182 C.2       2 RES2    0.0000
     46 O11        6.4812   12.8410    5.2169 O.2       2 RES2    0.0000
     47 C21        4.7910   11.2598    5.1928 C.3       2 RES2    0.0000
     48 C22        5.8195   14.2659    1.9923 C.3       2 RES2    0.0000
     49 H14        5.1227   13.7215    1.5253 H         2 RES2    0.0000
     50 O12        7.0615   13.5085    2.0084 O.3       2 RES2    0.0000
     51 C23        7.0509   12.2776    1.4584 C.2       2 RES2    0.0000
     52 O13        6.4778   11.8658    0.5606 O.2       2 RES2    0.0000
     53 C24        8.1585   11.4444    1.8933 C.3       2 RES2    0.0000
     54 C25        5.9035   15.5749    1.3380 C.3       2 RES2    0.0000
     55 H15        6.7128   16.0199    1.7127 H         2 RES2    0.0000
     56 O14        6.2493   15.2151   -0.1030 O.3       2 RES2    0.0000
     57 C26        7.4278   16.0412   -0.4549 C.2       2 RES2    0.0000
     58 O15        6.4756   17.3193   -0.8242 O.2       2 RES2    0.0000
     59 C27        6.9244   15.5228   -2.3014 C.3       2 RES2    0.0000
     60 C28        4.9121   16.4625    1.4584 C.3       2 RES2    0.0000
     61 H16        4.1086   16.1287    0.9767 H         2 RES2    0.0000
     62 H17        5.1785   17.3193    1.0463 H         2 RES2    0.0000
     63 O16        4.5791   16.6755    2.8245 O.3       2 RES2    0.0000
     64 N3         4.0695   15.7997    4.9720 N.pl3     2 RES2    0.0000
     65 H18        4.6785   15.6175    5.5795 H         2 RES2    0.0000
     66 C29        2.9065   16.3631    5.3842 C.ar      2 RES2    0.0000
     67 C30        2.6240   16.6589    6.7382 C.ar      2 RES2    0.0000
     68 N4         3.6508   16.5288    7.7498 N.pl3     2 RES2    0.0000
     69 O17        4.7769   16.1737    7.4219 O.2       2 RES2    0.0000
     70 O18        3.3260   16.6637    8.8978 O.2       2 RES2    0.0000
     71 C31        1.3700   17.1631    7.1918 C.ar      2 RES2    0.0000
     72 H19        1.2402   17.3809    8.1070 H         2 RES2    0.0000
     73 C32        0.3464   17.3264    6.2833 C.ar      2 RES2    0.0000
     74 H20       -0.5211   17.5986    6.5576 H         2 RES2    0.0000
     75 C33        0.6382   17.0826    4.9600 C.ar      2 RES2    0.0000
     76 H21       -0.0254   17.2412    4.2990 H         2 RES2    0.0000
     77 C34        1.8308   16.6258    4.5894 C.ar      2 RES2    0.0000
     78 H22        1.9470   16.4625    3.6608 H         2 RES2    0.0000
     79 C35       -1.4334   19.4283    9.8424 C.3       3 RES3    0.0000
     80 H23       -0.6070   19.0472   10.2585 H         3 RES3    0.0000
     81 C36       -2.5617   18.3798    9.9200 C.3       3 RES3    0.0000
     82 H24       -3.3429   18.6662    9.3661 H         3 RES3    0.0000
     83 O19       -2.0161   17.1300    9.4249 O.3       3 RES3    0.0000
     84 C37       -2.6065   16.4412    8.5298 C.2       3 RES3    0.0000
     85 O20       -3.9644   16.4388    8.5111 O.2       3 RES3    0.0000
     86 C38       -1.9427   15.1370    8.2167 C.3       3 RES3    0.0000
     87 C39       -2.9814   18.1738   11.3651 C.3       3 RES3    0.0000
     88 H25       -2.2626   17.6815   11.8548 H         3 RES3    0.0000
     89 O21       -4.1883   17.3998   11.3744 O.3       3 RES3    0.0000
     90 C40       -4.0729   16.0696   11.7116 C.2       3 RES3    0.0000
     91 C41       -5.4354   15.3950   11.6246 C.3       3 RES3    0.0000
     92 O22       -3.1083   15.6459   12.1050 O.2       3 RES3    0.0000
     93 C42       -3.2210   19.5159   12.0327 C.3       3 RES3    0.0000
     94 H26       -4.0350   19.9514   11.6487 H         3 RES3    0.0000
     95 O23       -3.4547   19.1585   13.4256 O.3       3 RES3    0.0000
     96 C43       -4.2316   19.9751   14.1776 C.2       3 RES3    0.0000
     97 O24       -3.7941   21.2580   13.9421 O.2       3 RES3    0.0000
     98 C44       -4.3363   19.4591   15.5718 C.3       3 RES3    0.0000
     99 C45       -2.0276   20.4225   11.8802 C.3       3 RES3    0.0000
    100 H27       -2.2067   21.2935   12.3177 H         3 RES3    0.0000
    101 H28       -1.2357   20.0154   12.3124 H         3 RES3    0.0000
    102 O25       -1.7731   20.6213   10.5007 O.3       3 RES3    0.0000
    103 N5        -1.1660   19.7218    8.4388 N.pl3     3 RES3    0.0000
    104 H29       -1.7787   19.5088    7.8434 H         3 RES3    0.0000
    105 C46       -0.0328   20.3065    8.0093 C.ar      3 RES3    0.0000
    106 C47        0.2384   20.6189    6.6446 C.ar      3 RES3    0.0000
    107 N6        -0.8072   20.4746    5.6504 N.pl3     3 RES3    0.0000
    108 O26       -1.9151   20.1432    5.9662 O.2       3 RES3    0.0000
    109 O27       -0.5054   20.6852    4.4663 O.2       3 RES3    0.0000
    110 C48        1.4639   21.1089    6.2217 C.ar      3 RES3    0.0000
    111 H30        1.5865   21.3361    5.3065 H         3 RES3    0.0000
    112 C49        2.4723   21.2675    7.0808 C.ar      3 RES3    0.0000
    113 H31        3.3234   21.5539    6.7717 H         3 RES3    0.0000
    114 C50        2.2733   21.0119    8.4295 C.ar      3 RES3    0.0000
    115 H32        2.9734   21.1728    9.0503 H         3 RES3    0.0000
    116 C51        1.0379   20.5148    8.8817 C.ar      3 RES3    0.0000
    117 H33        0.9302   20.3160    9.8036 H         3 RES3    0.0000
    118 O28        5.8968   11.9391    1.8237 Du        4 SUP4    0.0000
    119 O29       -3.6930    8.4644    8.6810 Du        4 SUP4    0.0000
    120 O30       -3.1956   17.1679    7.6748 Du        4 SUP4    0.0000
    121 O31        1.6318   13.2079    0.6422 Du        4 SUP4    0.0000
@<TRIPOS>BOND
     1    1    2 1
     2    3    1 1
     3    4    3 1
     4    5    3 1
     5    6    5 1
     6    7    6 2
     7    8    6 1
     8    9    3 1
     9   10    9 1
    10   11    9 1
    11   12   11 1
    12   13   12 2
    13   14   12 1
    14   15    9 1
    15   16   15 1
    16   17   15 1
    17   18   17 1
    18   19   18 2
    19   20   18 1
    20   21   15 1
    21   22   21 1
    22   23   21 1
    23   24    1 1
    24   25    1 1
    25   26   25 1
    26   27   25 1
    27   28   27 ar
    28   29   28 1
    29   30   29 2
    30   31   29 2
    31   32   28 ar
    32   33   32 1
    33   34   32 ar
    34   35   34 1
    35   36   34 ar
    36   37   36 1
    37   38   27 ar
    38   39   38 1
    39   40   41 1
    40   42   40 1
    41   43   42 1
    42   44   42 1
    43   45   44 1
    44   46   45 2
    45   47   45 1
    46   48   42 1
    47   49   48 1
    48   50   48 1
    49   51   50 1
    50   52   51 2
    51   53   51 1
    52   54   48 1
    53   55   54 1
    54   56   54 1
    55   57   56 1
    56   58   57 2
    57   59   57 1
    58   60   54 1
    59   61   60 1
    60   62   60 1
    61   63   40 1
    62   64   40 1
    63   65   64 1
    64   66   64 1
    65   67   66 ar
    66   68   67 1
    67   69   68 2
    68   70   68 2
    69   71   67 ar
    70   72   71 1
    71   73   71 ar
    72   74   73 1
    73   75   73 ar
    74   76   75 1
    75   77   66 ar
    76   78   77 1
    77   79   80 1
    78   81   79 1
    79   82   81 1
    80   83   81 1
    81   84   83 1
    82   85   84 2
    83   86   84 1
    84   87   81 1
    85   88   87 1
    86   89   87 1
    87   90   89 1
    88   91   90 1
    89   92   90 2
    90   93   87 1
    91   94   93 1
    92   95   93 1
    93   96   95 1
    94   97   96 2
    95   98   96 1
    96   99   93 1
    97  100   99 1
    98  101   99 1
    99  102   79 1
   100  103   79 1
   101  104  103 1
   102  105  103 1
   103  106  105 ar
   104  107  106 1
   105  108  107 2
   106  109  107 2
   107  110  106 ar
   108  111  110 1
   109  112  110 ar
   110  113  112 1
   111  114  112 ar
   112  115  114 1
   113  116  105 ar
   114  117  116 1
   115   21   24 1
   116   36   38 ar
   117   60   63 1
   118   75   77 ar
   119   99  102 1
   120  114  116 ar
@<TRIPOS>SUBSTRUCTURE
     1 RES1 1
     2 RES2 40
     3 RES3 79
     4 SUP4 118

@<TRIPOS>CRYSIN
  18.0030   23.6700   14.7200  90.0000 114.6360  90.0000   5 1

