# MOL2 file generated by ConQuest
# Please check atom types

@<TRIPOS>MOLECULE
HALMUE
    48    49     1
SMALL
NO_CHARGES
****
Generated from CSD

@<TRIPOS>ATOM
      1 C1         1.2074   12.2735    1.4445 C.3       1 RES1    0.0000
      2 H1         1.4305   12.1770    0.4744 H         1 RES1    0.0000
      3 C2         2.3967   11.8055    2.2999 C.3       1 RES1    0.0000
      4 H2         2.2360   12.0122    3.2650 H         1 RES1    0.0000
      5 O1         3.5300   12.5478    1.8079 O.3       1 RES1    0.0000
      6 C3         4.3651   13.1171    2.7109 C.2       1 RES1    0.0000
      7 O2         4.1896   13.0485    3.8960 O.2       1 RES1    0.0000
      8 C4         5.5223   13.7766    2.0269 C.3       1 RES1    0.0000
      9 H3         6.2719   13.1473    1.9736 H         1 RES1    0.0000
     10 H4         5.7956   14.5673    2.5364 H         1 RES1    0.0000
     11 H5         5.2566   14.0467    1.1225 H         1 RES1    0.0000
     12 C5         2.6709   10.3176    2.1124 C.3       1 RES1    0.0000
     13 H6         3.0632   10.1511    1.2077 H         1 RES1    0.0000
     14 O3         3.5758    9.8522    3.1412 O.3       1 RES1    0.0000
     15 C6         4.8871    9.7575    2.8393 C.2       1 RES1    0.0000
     16 O4         5.3466   10.0616    1.7654 O.2       1 RES1    0.0000
     17 C7         5.6677    9.2312    4.0038 C.3       1 RES1    0.0000
     18 H7         5.0611    9.0594    4.7534 H         1 RES1    0.0000
     19 H8         6.3395    9.8923    4.2728 H         1 RES1    0.0000
     20 H9         6.1148    8.3971    3.7472 H         1 RES1    0.0000
     21 C8         1.3863    9.5257    2.2787 C.3       1 RES1    0.0000
     22 H10        1.1030    9.5178    3.2371 H         1 RES1    0.0000
     23 O5         1.6757    8.1802    1.8258 O.3       1 RES1    0.0000
     24 C9         1.0615    7.1613    2.4666 C.2       1 RES1    0.0000
     25 O6         0.2673    7.3330    3.3636 O.2       1 RES1    0.0000
     26 C10        1.4890    5.8362    1.9187 C.3       1 RES1    0.0000
     27 H11        1.2843    5.7971    0.9612 H         1 RES1    0.0000
     28 H12        1.0085    5.1204    2.3844 H         1 RES1    0.0000
     29 H13        2.4533    5.7234    2.0511 H         1 RES1    0.0000
     30 C11        0.2857   10.1119    1.4037 C.3       1 RES1    0.0000
     31 H14        0.5490   10.0514    0.4512 H         1 RES1    0.0000
     32 H15       -0.5498    9.5959    1.5271 H         1 RES1    0.0000
     33 O7         0.0633   11.4813    1.7575 O.3       1 RES1    0.0000
     34 N1         0.8652   13.6333    1.7276 N.pl3     1 RES1    0.0000
     35 H16        0.4930   13.7865    2.4868 H         1 RES1    0.0000
     36 C12        1.0170   14.6902    0.8594 C.ar      1 RES1    0.0000
     37 C13        0.3820   15.9095    1.1550 C.ar      1 RES1    0.0000
     38 H17       -0.1755   15.9757    1.9209 H         1 RES1    0.0000
     39 C14        0.5603   17.0133    0.3426 C.ar      1 RES1    0.0000
     40 H18        0.1287   17.8353    0.5457 H         1 RES1    0.0000
     41 C15        1.3791   16.9064   -0.7767 C.ar      1 RES1    0.0000
     42 N2         1.6305   18.0865   -1.5849 N.pl3     1 RES1    0.0000
     43 O8         0.9745   19.1102   -1.3686 O.2       1 RES1    0.0000
     44 O9         2.5236   18.0295   -2.4412 O.2       1 RES1    0.0000
     45 C16        1.9944   15.7146   -1.1138 C.ar      1 RES1    0.0000
     46 H19        2.5343   15.6576   -1.8930 H         1 RES1    0.0000
     47 C17        1.8169   14.6056   -0.3042 C.ar      1 RES1    0.0000
     48 H20        2.2343   13.7836   -0.5318 H         1 RES1    0.0000
@<TRIPOS>BOND
     1    1    2 1
     2    3    1 1
     3    4    3 1
     4    5    3 1
     5    6    5 1
     6    7    6 2
     7    8    6 1
     8    9    8 1
     9   10    8 1
    10   11    8 1
    11   12    3 1
    12   13   12 1
    13   14   12 1
    14   15   14 1
    15   16   15 2
    16   17   15 1
    17   18   17 1
    18   19   17 1
    19   20   17 1
    20   21   12 1
    21   22   21 1
    22   23   21 1
    23   24   23 1
    24   25   24 2
    25   26   24 1
    26   27   26 1
    27   28   26 1
    28   29   26 1
    29   30   21 1
    30   31   30 1
    31   32   30 1
    32   33    1 1
    33   34    1 1
    34   35   34 1
    35   36   34 1
    36   37   36 ar
    37   38   37 1
    38   39   37 ar
    39   40   39 1
    40   41   39 ar
    41   42   41 1
    42   43   42 2
    43   44   42 2
    44   45   41 ar
    45   46   45 1
    46   47   36 ar
    47   48   47 1
    48   30   33 1
    49   45   47 ar
@<TRIPOS>SUBSTRUCTURE
     1 RES1 1

@<TRIPOS>CRYSIN
   8.3558   14.4603   15.5035  90.0000  90.0000  90.0000  19 1

