# MOL2 file generated by ConQuest
# Please check atom types

@<TRIPOS>MOLECULE
HALMEO
   207   196     5
SMALL
NO_CHARGES
****
Generated from CSD

@<TRIPOS>ATOM
      1 C1         4.6125  -14.2845   -3.6470 C.3       1 RES1    0.0000
      2 H1         5.4584  -13.9975   -3.1971 H         1 RES1    0.0000
      3 C2         3.5797  -13.1615   -3.5127 C.3       1 RES1    0.0000
      4 H2         2.7814  -13.3444   -4.0857 H         1 RES1    0.0000
      5 O1         4.2861  -11.9854   -3.9798 O.3       1 RES1    0.0000
      6 C3         3.5617  -10.9920   -4.5580 C.2       1 RES1    0.0000
      7 O2         2.3704  -11.0534   -4.7113 O.2       1 RES1    0.0000
      8 C4         4.4353   -9.8438   -4.9125 C.3       1 RES1    0.0000
      9 H3         5.3643  -10.0557   -4.6826 H         1 RES1    0.0000
     10 H4         4.1499   -9.0497   -4.4149 H         1 RES1    0.0000
     11 H5         4.3704   -9.6686   -5.8749 H         1 RES1    0.0000
     12 C5         3.1672  -12.9784   -2.0521 C.3       1 RES1    0.0000
     13 H6         3.9243  -12.5701   -1.5417 H         1 RES1    0.0000
     14 O3         2.0091  -12.1260   -1.9518 O.3       1 RES1    0.0000
     15 C6         2.2409  -10.7993   -1.7280 C.2       1 RES1    0.0000
     16 O4         3.3306  -10.3387   -1.5834 O.2       1 RES1    0.0000
     17 C7         0.9507  -10.0249   -1.7372 C.3       1 RES1    0.0000
     18 H7         0.2010  -10.6404   -1.8789 H         1 RES1    0.0000
     19 H8         0.9721   -9.3638   -2.4597 H         1 RES1    0.0000
     20 H9         0.8387   -9.5659   -0.8779 H         1 RES1    0.0000
     21 C8         2.8003  -14.3125   -1.4290 C.3       1 RES1    0.0000
     22 H10        1.9469  -14.6583   -1.8187 H         1 RES1    0.0000
     23 O5         2.6592  -14.1043   -0.0062 O.3       1 RES1    0.0000
     24 C9         1.5040  -14.4548    0.5870 C.2       1 RES1    0.0000
     25 O6         0.5597  -14.8889   -0.0150 O.2       1 RES1    0.0000
     26 C10        1.5749  -14.2313    2.0578 C.3       1 RES1    0.0000
     27 H11        2.4556  -13.8731    2.2924 H         1 RES1    0.0000
     28 H12        1.4337  -15.0813    2.5240 H         1 RES1    0.0000
     29 H13        0.8822  -13.5916    2.3246 H         1 RES1    0.0000
     30 C11        3.9197  -15.3122   -1.6301 C.3       1 RES1    0.0000
     31 H14        4.7442  -14.9864   -1.1897 H         1 RES1    0.0000
     32 H15        3.6721  -16.1790   -1.2218 H         1 RES1    0.0000
     33 O7         4.1541  -15.4852   -3.0332 O.3       1 RES1    0.0000
     34 N1         4.8927  -14.5521   -5.0102 N.pl3     1 RES1    0.0000
     35 H16        4.3016  -14.5635   -5.5444 H         1 RES1    0.0000
     36 C12        6.0813  -15.0780   -5.4510 C.ar      1 RES1    0.0000
     37 C13        6.3791  -15.3433   -6.8095 C.ar      1 RES1    0.0000
     38 N2         5.3775  -15.2134   -7.8466 N.pl3     1 RES1    0.0000
     39 O8         4.1990  -15.0370   -7.5235 O.2       1 RES1    0.0000
     40 O9         5.7158  -15.2874   -9.0247 O.2       1 RES1    0.0000
     41 C14        7.6587  -15.7137   -7.2257 C.ar      1 RES1    0.0000
     42 H17        7.8271  -15.8556   -8.1500 H         1 RES1    0.0000
     43 C15        8.6792  -15.8752   -6.3163 C.ar      1 RES1    0.0000
     44 H18        9.5566  -16.1029   -6.6016 H         1 RES1    0.0000
     45 C16        8.3888  -15.6936   -4.9577 C.ar      1 RES1    0.0000
     46 H19        9.0727  -15.8307   -4.3132 H         1 RES1    0.0000
     47 C17        7.1408  -15.3224   -4.5420 C.ar      1 RES1    0.0000
     48 H20        6.9771  -15.2243   -3.6106 H         1 RES1    0.0000
     49 C18        6.9643  -13.9092   16.8398 C.3       2 RES2    0.0000
     50 H21        6.1838  -13.4253   16.4432 H         2 RES2    0.0000
     51 C19        8.2143  -13.0323   16.7530 C.3       2 RES2    0.0000
     52 H22        8.9466  -13.4190   17.3130 H         2 RES2    0.0000
     53 O10        7.8619  -11.7124   17.2325 O.3       2 RES2    0.0000
     54 C20        8.2584  -11.3672   18.4882 C.2       2 RES2    0.0000
     55 O11        8.8939  -12.0974   19.1974 O.2       2 RES2    0.0000
     56 C21        7.7961   -9.9862   18.8096 C.3       2 RES2    0.0000
     57 H23        7.8207   -9.8520   19.7794 H         2 RES2    0.0000
     58 H24        6.8793   -9.8645   18.4853 H         2 RES2    0.0000
     59 H25        8.3846   -9.3342   18.3756 H         2 RES2    0.0000
     60 C22        8.6880  -12.8436   15.3267 C.3       2 RES2    0.0000
     61 H26        8.0495  -12.2451   14.8426 H         2 RES2    0.0000
     62 O12        9.9844  -12.2020   15.4017 O.3       2 RES2    0.0000
     63 C23       10.1272  -10.9902   14.8067 C.2       2 RES2    0.0000
     64 O13        9.2723  -10.4603   14.1617 O.2       2 RES2    0.0000
     65 C24       11.4721  -10.3927   15.1060 C.3       2 RES2    0.0000
     66 H27       11.6029   -9.5893   14.5589 H         2 RES2    0.0000
     67 H28       12.1737  -11.0462   14.8988 H         2 RES2    0.0000
     68 H29       11.5181  -10.1521   16.0551 H         2 RES2    0.0000
     69 C25        8.7855  -14.1716   14.5964 C.3       2 RES2    0.0000
     70 H30        9.5263  -14.7267   14.9764 H         2 RES2    0.0000
     71 O14        9.0776  -13.8053   13.2265 O.3       2 RES2    0.0000
     72 C26        9.3938  -14.7934   12.3521 C.2       2 RES2    0.0000
     73 O15        9.3371  -15.9674   12.6265 O.2       2 RES2    0.0000
     74 C27        9.7954  -14.2113   11.0382 C.3       2 RES2    0.0000
     75 H31        9.7542  -13.2340   11.0875 H         2 RES2    0.0000
     76 H32        9.1859  -14.5293   10.3394 H         2 RES2    0.0000
     77 H33       10.7102  -14.4888   10.8238 H         2 RES2    0.0000
     78 C28        7.4494  -14.9007   14.7301 C.3       2 RES2    0.0000
     79 H34        6.7239  -14.3536   14.3354 H         2 RES2    0.0000
     80 H35        7.4852  -15.7654   14.2484 H         2 RES2    0.0000
     81 O16        7.1880  -15.1282   16.1264 O.3       2 RES2    0.0000
     82 N3         6.6985  -14.2090   18.2081 N.pl3     2 RES2    0.0000
     83 H36        7.3342  -14.2463   18.6727 H         2 RES2    0.0000
     84 C29        5.5433  -14.8009   18.6508 C.ar      2 RES2    0.0000
     85 C30        5.3296  -15.2408   19.9814 C.ar      2 RES2    0.0000
     86 N4         6.3561  -15.1371   20.9968 N.pl3     2 RES2    0.0000
     87 O17        7.4458  -14.6296   20.7044 O.2       2 RES2    0.0000
     88 O18        6.1304  -15.5543   22.1277 O.2       2 RES2    0.0000
     89 C31        4.1131  -15.7886   20.3980 C.ar      2 RES2    0.0000
     90 H37        4.0068  -16.0686   21.2997 H         2 RES2    0.0000
     91 C32        3.0695  -15.9259   19.5131 C.ar      2 RES2    0.0000
     92 H38        2.2372  -16.2848   19.7955 H         2 RES2    0.0000
     93 C33        3.2628  -15.5258   18.1862 C.ar      2 RES2    0.0000
     94 H39        2.5534  -15.6255   17.5633 H         2 RES2    0.0000
     95 C34        4.4543  -14.9923   17.7635 C.ar      2 RES2    0.0000
     96 H40        4.5528  -14.7438   16.8513 H         2 RES2    0.0000
     97 C35        7.4101  -10.0758    9.9830 C.3       3 RES3    0.0000
     98 H41        8.2101   -9.6608   10.4170 H         3 RES3    0.0000
     99 C36        6.2275   -9.1239   10.0909 C.3       3 RES3    0.0000
    100 H42        5.4636   -9.4524    9.5351 H         3 RES3    0.0000
    101 O19        6.6526   -7.8227    9.6411 O.3       3 RES3    0.0000
    102 C37        6.2619   -7.4243    8.3968 C.2       3 RES3    0.0000
    103 O20        5.5835   -8.1122    7.6792 O.2       3 RES3    0.0000
    104 C38        6.7944   -6.0711    8.0888 C.3       3 RES3    0.0000
    105 H43        6.9271   -5.9849    7.1222 H         3 RES3    0.0000
    106 H44        7.6511   -5.9445    8.5488 H         3 RES3    0.0000
    107 H45        6.1572   -5.3925    8.3935 H         3 RES3    0.0000
    108 C39        5.7905   -8.9427   11.5410 C.3       3 RES3    0.0000
    109 H46        6.4888   -8.4246   12.0349 H         3 RES3    0.0000
    110 O21        4.5635   -8.1814   11.5136 O.3       3 RES3    0.0000
    111 C40        4.5617   -6.9614   12.1209 C.2       3 RES3    0.0000
    112 O22        5.4795   -6.5319   12.7553 O.2       3 RES3    0.0000
    113 C41        3.2827   -6.2364   11.8462 C.3       3 RES3    0.0000
    114 H47        3.1997   -5.4780   12.4605 H         3 RES3    0.0000
    115 H48        2.5273   -6.8464   11.9761 H         3 RES3    0.0000
    116 H49        3.2846   -5.9103   10.9215 H         3 RES3    0.0000
    117 C42        5.5896  -10.2795   12.2161 C.3       3 RES3    0.0000
    118 H50        4.8009  -10.7539   11.8262 H         3 RES3    0.0000
    119 O23        5.3530   -9.9596   13.6114 O.3       3 RES3    0.0000
    120 C43        4.9788  -10.9601   14.4409 C.2       3 RES3    0.0000
    121 O24        4.9479  -12.1225   14.1171 O.2       3 RES3    0.0000
    122 C44        4.6267  -10.4157   15.7936 C.3       3 RES3    0.0000
    123 H51        4.7315   -9.4415   15.7914 H         3 RES3    0.0000
    124 H52        5.2221  -10.8068   16.4673 H         3 RES3    0.0000
    125 H53        3.6979  -10.6435   16.0056 H         3 RES3    0.0000
    126 C45        6.8564  -11.1118   12.0351 C.3       3 RES3    0.0000
    127 H54        7.6245  -10.6482   12.4525 H         3 RES3    0.0000
    128 H55        6.7465  -11.9901   12.4779 H         3 RES3    0.0000
    129 O25        7.1038  -11.3003   10.6378 O.3       3 RES3    0.0000
    130 N5         7.7009  -10.3373    8.6129 N.pl3     3 RES3    0.0000
    131 H56        7.1206  -10.3776    8.1567 H         3 RES3    0.0000
    132 C46        8.8675  -10.9195    8.1810 C.ar      3 RES3    0.0000
    133 C47        9.1207  -11.3042    6.8445 C.ar      3 RES3    0.0000
    134 N6         8.1101  -11.2034    5.8114 N.pl3     3 RES3    0.0000
    135 O26        6.9997  -10.7435    6.1023 O.2       3 RES3    0.0000
    136 O27        8.3665  -11.5814    4.6716 O.2       3 RES3    0.0000
    137 C48       10.3651  -11.7929    6.4361 C.ar      3 RES3    0.0000
    138 H57       10.5031  -12.0305    5.5270 H         3 RES3    0.0000
    139 C49       11.3888  -11.9316    7.3406 C.ar      3 RES3    0.0000
    140 H58       12.2465  -12.2295    7.0606 H         3 RES3    0.0000
    141 C50       11.1440  -11.6257    8.6821 C.ar      3 RES3    0.0000
    142 H59       11.8341  -11.7537    9.3223 H         3 RES3    0.0000
    143 C51        9.9257  -11.1428    9.0913 C.ar      3 RES3    0.0000
    144 H60        9.7890  -10.9529   10.0128 H         3 RES3    0.0000
    145 C52        4.1623  -10.3404    3.7229 C.3       4 RES4    0.0000
    146 H61        3.3152   -9.9811    3.3296 H         4 RES4    0.0000
    147 C53        5.2607   -9.2792    3.6045 C.3       4 RES4    0.0000
    148 H62        6.0553   -9.5255    4.1593 H         4 RES4    0.0000
    149 O28        4.6276   -8.0838    4.1153 O.3       4 RES4    0.0000
    150 C54        5.4133   -7.1405    4.7022 C.2       4 RES4    0.0000
    151 O29        6.5951   -7.2513    4.8287 O.2       4 RES4    0.0000
    152 C55        4.5990   -5.9579    5.1044 C.3       4 RES4    0.0000
    153 H63        5.1021   -5.4174    5.7492 H         4 RES4    0.0000
    154 H64        3.7626   -6.2617    5.5163 H         4 RES4    0.0000
    155 H65        4.3950   -5.4174    4.3132 H         4 RES4    0.0000
    156 C56        5.6606   -9.0774    2.1395 C.3       4 RES4    0.0000
    157 H66        4.9226   -8.6112    1.6514 H         4 RES4    0.0000
    158 O30        6.8686   -8.2864    2.0624 O.3       4 RES4    0.0000
    159 C57        6.7051   -6.9543    1.8570 C.2       4 RES4    0.0000
    160 O31        5.6308   -6.4415    1.7031 O.2       4 RES4    0.0000
    161 C58        8.0181   -6.2365    1.8782 C.3       4 RES4    0.0000
    162 H67        7.9920   -5.4873    1.2473 H         4 RES4    0.0000
    163 H68        8.7326   -6.8557    1.6193 H         4 RES4    0.0000
    164 H69        8.1911   -5.8978    2.7809 H         4 RES4    0.0000
    165 C59        5.9460  -10.4043    1.4749 C.3       4 RES4    0.0000
    166 H70        6.7702  -10.8239    1.8562 H         4 RES4    0.0000
    167 O32        6.1049  -10.1528    0.0598 O.3       4 RES4    0.0000
    168 C60        7.2964  -10.4000   -0.5186 C.2       4 RES4    0.0000
    169 O33        8.2644  -10.7985    0.0744 O.2       4 RES4    0.0000
    170 C61        7.2179  -10.1176   -1.9848 C.3       4 RES4    0.0000
    171 H71        6.3169   -9.8007   -2.2081 H         4 RES4    0.0000
    172 H72        7.4090  -10.9374   -2.4865 H         4 RES4    0.0000
    173 H73        7.8739   -9.4291   -2.2202 H         4 RES4    0.0000
    174 C62        4.7448  -11.3235    1.6384 C.3       4 RES4    0.0000
    175 H74        3.9424  -10.9094    1.2312 H         4 RES4    0.0000
    176 H75        4.9147  -12.1860    1.1844 H         4 RES4    0.0000
    177 O34        4.5270  -11.5410    3.0369 O.3       4 RES4    0.0000
    178 N7         3.9434  -10.6541    5.0959 N.pl3     4 RES4    0.0000
    179 H76        4.5615  -10.6699    5.5725 H         4 RES4    0.0000
    180 C63        2.7734  -11.1994    5.5647 C.ar      4 RES4    0.0000
    181 C64        2.5241  -11.4833    6.9310 C.ar      4 RES4    0.0000
    182 N8         3.5417  -11.3061    7.9470 N.pl3     4 RES4    0.0000
    183 O35        4.7088  -11.1087    7.5890 O.2       4 RES4    0.0000
    184 O36        3.2232  -11.3566    9.1323 O.2       4 RES4    0.0000
    185 C65        1.2736  -11.9171    7.3767 C.ar      4 RES4    0.0000
    186 H77        1.1362  -12.0803    8.3025 H         4 RES4    0.0000
    187 C66        0.2397  -12.1101    6.4920 C.ar      4 RES4    0.0000
    188 H78       -0.6172  -12.3819    6.7983 H         4 RES4    0.0000
    189 C67        0.4772  -11.8982    5.1315 C.ar      4 RES4    0.0000
    190 H79       -0.2211  -12.0507    4.5059 H         4 RES4    0.0000
    191 C68        1.7095  -11.4724    4.6812 C.ar      4 RES4    0.0000
    192 H80        1.8442  -11.3603    3.7485 H         4 RES4    0.0000
    193 H81        3.8917   -9.1259   -5.2982 Du        5 SUP5    0.0000
    194 H82        5.1061  -10.1335   -5.5658 Du        5 SUP5    0.0000
    195 H83        4.8862   -9.5146   -4.1071 Du        5 SUP5    0.0000
    196 H84        1.1405   -9.0730   -1.5992 Du        5 SUP5    0.0000
    197 H85        0.3693  -10.3496   -1.0184 Du        5 SUP5    0.0000
    198 H86        0.5027  -10.1475   -2.6002 Du        5 SUP5    0.0000
    199 H87       10.0127  -14.9335   10.4130 Du        5 SUP5    0.0000
    200 H88       10.5810  -13.6383   11.1611 Du        5 SUP5    0.0000
    201 H89        9.0560  -13.6787   10.6780 Du        5 SUP5    0.0000
    202 H90        4.3685  -11.1535   16.3856 Du        5 SUP5    0.0000
    203 H91        3.8785   -9.7883   15.7085 Du        5 SUP5    0.0000
    204 H92        5.4027   -9.9500   16.1702 Du        5 SUP5    0.0000
    205 H93        8.0838  -10.3107   -2.4022 Du        5 SUP5    0.0000
    206 H94        6.9917   -9.1741   -2.1238 Du        5 SUP5    0.0000
    207 H95        6.5268  -10.6824   -2.3901 Du        5 SUP5    0.0000
@<TRIPOS>BOND
     1    1    2 1
     2    3    1 1
     3    4    3 1
     4    5    3 1
     5    6    5 1
     6    7    6 2
     7    8    6 1
     8    9    8 1
     9   10    8 1
    10   11    8 1
    11   12    3 1
    12   13   12 1
    13   14   12 1
    14   15   14 1
    15   16   15 2
    16   17   15 1
    17   18   17 1
    18   19   17 1
    19   20   17 1
    20   21   12 1
    21   22   21 1
    22   23   21 1
    23   24   23 1
    24   25   24 2
    25   26   24 1
    26   27   26 1
    27   28   26 1
    28   29   26 1
    29   30   21 1
    30   31   30 1
    31   32   30 1
    32   33    1 1
    33   34    1 1
    34   35   34 1
    35   36   34 1
    36   37   36 ar
    37   38   37 1
    38   39   38 2
    39   40   38 2
    40   41   37 ar
    41   42   41 1
    42   43   41 ar
    43   44   43 1
    44   45   43 ar
    45   46   45 1
    46   47   36 ar
    47   48   47 1
    48   49   50 1
    49   51   49 1
    50   52   51 1
    51   53   51 1
    52   54   53 1
    53   55   54 2
    54   56   54 1
    55   57   56 1
    56   58   56 1
    57   59   56 1
    58   60   51 1
    59   61   60 1
    60   62   60 1
    61   63   62 1
    62   64   63 2
    63   65   63 1
    64   66   65 1
    65   67   65 1
    66   68   65 1
    67   69   60 1
    68   70   69 1
    69   71   69 1
    70   72   71 1
    71   73   72 2
    72   74   72 1
    73   75   74 1
    74   76   74 1
    75   77   74 1
    76   78   69 1
    77   79   78 1
    78   80   78 1
    79   81   49 1
    80   82   49 1
    81   83   82 1
    82   84   82 1
    83   85   84 ar
    84   86   85 1
    85   87   86 2
    86   88   86 2
    87   89   85 ar
    88   90   89 1
    89   91   89 ar
    90   92   91 1
    91   93   91 ar
    92   94   93 1
    93   95   84 ar
    94   96   95 1
    95   97   98 1
    96   99   97 1
    97  100   99 1
    98  101   99 1
    99  102  101 1
   100  103  102 2
   101  104  102 1
   102  105  104 1
   103  106  104 1
   104  107  104 1
   105  108   99 1
   106  109  108 1
   107  110  108 1
   108  111  110 1
   109  112  111 2
   110  113  111 1
   111  114  113 1
   112  115  113 1
   113  116  113 1
   114  117  108 1
   115  118  117 1
   116  119  117 1
   117  120  119 1
   118  121  120 2
   119  122  120 1
   120  123  122 1
   121  124  122 1
   122  125  122 1
   123  126  117 1
   124  127  126 1
   125  128  126 1
   126  129   97 1
   127  130   97 1
   128  131  130 1
   129  132  130 1
   130  133  132 ar
   131  134  133 1
   132  135  134 2
   133  136  134 2
   134  137  133 ar
   135  138  137 1
   136  139  137 ar
   137  140  139 1
   138  141  139 ar
   139  142  141 1
   140  143  132 ar
   141  144  143 1
   142  145  146 1
   143  147  145 1
   144  148  147 1
   145  149  147 1
   146  150  149 1
   147  151  150 2
   148  152  150 1
   149  153  152 1
   150  154  152 1
   151  155  152 1
   152  156  147 1
   153  157  156 1
   154  158  156 1
   155  159  158 1
   156  160  159 2
   157  161  159 1
   158  162  161 1
   159  163  161 1
   160  164  161 1
   161  165  156 1
   162  166  165 1
   163  167  165 1
   164  168  167 1
   165  169  168 2
   166  170  168 1
   167  171  170 1
   168  172  170 1
   169  173  170 1
   170  174  165 1
   171  175  174 1
   172  176  174 1
   173  177  145 1
   174  178  145 1
   175  179  178 1
   176  180  178 1
   177  181  180 ar
   178  182  181 1
   179  183  182 2
   180  184  182 2
   181  185  181 ar
   182  186  185 1
   183  187  185 ar
   184  188  187 1
   185  189  187 ar
   186  190  189 1
   187  191  180 ar
   188  192  191 1
   189   30   33 1
   190   45   47 ar
   191   78   81 1
   192   93   95 ar
   193  126  129 1
   194  141  143 ar
   195  174  177 1
   196  189  191 ar
@<TRIPOS>SUBSTRUCTURE
     1 RES1 1
     2 RES2 49
     3 RES3 97
     4 RES4 145
     5 SUP5 193

@<TRIPOS>CRYSIN
  17.9353   15.5493   14.7476  90.0000 114.8460  90.0000   4 1

