# MOL2 file generated by ConQuest
# Please check atom types

@<TRIPOS>MOLECULE
HALMEO01
    69    49     2
SMALL
NO_CHARGES
****
Generated from CSD

@<TRIPOS>ATOM
      1 C1         4.3535    3.1177    3.6072 C.3       1 RES1    0.0000
      2 H1         3.5331    3.4830    3.2141 H         1 RES1    0.0000
      3 C2         5.4568    4.1494    3.5039 C.3       1 RES1    0.0000
      4 H2         6.2293    3.8827    4.0459 H         1 RES1    0.0000
      5 O1         4.8878    5.3879    4.0036 O.3       1 RES1    0.0000
      6 C3         5.5883    6.1392    4.8456 C.2       1 RES1    0.0000
      7 C4         4.8774    7.4001    5.1752 C.3       1 RES1    0.0000
      8 H3         5.4130    7.9224    5.7768 H         1 RES1    0.0000
      9 H4         4.0365    7.1942    5.5925 H         1 RES1    0.0000
     10 H5         4.7209    7.8992    4.3703 H         1 RES1    0.0000
     11 C5         5.8750    4.3729    2.0488 C.3       1 RES1    0.0000
     12 H6         5.1628    4.8544    1.5775 H         1 RES1    0.0000
     13 O2         7.0756    5.1716    2.0434 O.3       1 RES1    0.0000
     14 C6         6.9553    6.4693    1.6798 C.2       1 RES1    0.0000
     15 C7         8.2679    7.1814    1.7969 C.3       1 RES1    0.0000
     16 H7         8.1579    8.1002    1.5425 H         1 RES1    0.0000
     17 H8         8.9113    6.7649    1.2194 H         1 RES1    0.0000
     18 H9         8.5774    7.1358    2.7054 H         1 RES1    0.0000
     19 C8         6.1354    3.0616    1.3519 C.3       1 RES1    0.0000
     20 H10        6.9365    2.6323    1.7174 H         1 RES1    0.0000
     21 O3         6.3327    3.4037   -0.0370 O.3       1 RES1    0.0000
     22 C9         4.9344    2.1636    1.5146 C.3       1 RES1    0.0000
     23 H11        4.1533    2.5826    1.1225 H         1 RES1    0.0000
     24 H12        5.0880    1.3201    1.0606 H         1 RES1    0.0000
     25 O4         4.7138    1.9321    2.9148 O.3       1 RES1    0.0000
     26 N1         4.1151    2.8005    4.9717 N.pl3     1 RES1    0.0000
     27 H13        4.7888    2.8117    5.4807 H         1 RES1    0.0000
     28 C10        2.9503    2.2405    5.4363 C.ar      1 RES1    0.0000
     29 C11        2.7264    1.9025    6.7848 C.ar      1 RES1    0.0000
     30 N2         3.7446    2.0627    7.7971 N.pl3     1 RES1    0.0000
     31 O5         4.8633    2.3999    7.4695 O.2       1 RES1    0.0000
     32 O6         3.4665    1.8801    8.9622 O.2       1 RES1    0.0000
     33 C12        1.4910    1.4171    7.2221 C.ar      1 RES1    0.0000
     34 H14        1.3698    1.2080    8.1202 H         1 RES1    0.0000
     35 C13        0.4660    1.2472    6.3471 C.ar      1 RES1    0.0000
     36 H15       -0.3648    0.9508    6.6450 H         1 RES1    0.0000
     37 C14        0.6744    1.5236    5.0018 C.ar      1 RES1    0.0000
     38 H16       -0.0150    1.3890    4.3932 H         1 RES1    0.0000
     39 C15        1.8814    1.9922    4.5593 C.ar      1 RES1    0.0000
     40 H17        1.9979    2.1508    3.6502 H         1 RES1    0.0000
     41 O7         6.7455    6.0303    4.9706 O.2       1 RES1    0.0000
     42 O8         6.1391    6.8930    1.0418 O.2       1 RES1    0.0000
     43 O9         6.8036    1.3289   -0.6582 O.2       1 RES1    0.0000
     44 C16        6.6937    2.4961   -0.9287 C.2       1 RES1    0.0000
     45 C17        6.8973    3.0432   -2.2989 C.3       1 RES1    0.0000
     46 H18        6.7782    3.9956   -2.2841 H         1 RES1    0.0000
     47 H19        6.2600    2.6499   -2.8992 H         1 RES1    0.0000
     48 H20        7.7861    2.8365   -2.5964 H         1 RES1    0.0000
     49 O10        6.4629    5.5433    5.5561 Du        2 SUP2    0.0000
     50 O11        5.8024    6.9651    1.5425 Du        2 SUP2    0.0000
     51 C18        7.3646    2.8013   -0.6595 Du        2 SUP2    0.0000
     52 C19        7.4238    3.2362   -2.0714 Du        2 SUP2    0.0000
     53 H21        7.1044    2.3254   -2.9019 Du        2 SUP2    0.0000
     54 H22        7.6233    3.6712   -2.2881 Du        2 SUP2    0.0000
     55 H23        6.0966    3.4854   -2.5896 Du        2 SUP2    0.0000
     56 O12        7.7728    1.7503   -0.2907 Du        2 SUP2    0.0000
     57 H24        4.0352    7.4217    4.7162 Du        2 SUP2    0.0000
     58 H25        5.4116    8.1499    4.9006 Du        2 SUP2    0.0000
     59 H26        4.7272    7.4450    6.1228 Du        2 SUP2    0.0000
     60 H27        8.9392    6.5662    2.1010 Du        2 SUP2    0.0000
     61 H28        8.1871    7.9024    2.4254 Du        2 SUP2    0.0000
     62 H29        8.5210    7.5315    0.9395 Du        2 SUP2    0.0000
     63 H30        8.1395    2.7828   -2.5196 Du        2 SUP2    0.0000
     64 H31        7.5775    4.1871   -2.1064 Du        2 SUP2    0.0000
     65 H32        6.5920    3.0344   -2.5062 Du        2 SUP2    0.0000
     66 H33        6.7328    3.8867   -2.2356 Du        2 SUP2    0.0000
     67 H34        7.2960    2.4825   -2.6475 Du        2 SUP2    0.0000
     68 H35        8.2802    3.6352   -2.2491 Du        2 SUP2    0.0000
     69 O13        8.4303    2.4032    0.0202 Du        2 SUP2    0.0000
@<TRIPOS>BOND
     1    1    2 1
     2    3    1 1
     3    4    3 1
     4    5    3 1
     5    6    5 1
     6    7    6 1
     7    8    7 1
     8    9    7 1
     9   10    7 1
    10   11    3 1
    11   12   11 1
    12   13   11 1
    13   14   13 1
    14   15   14 1
    15   16   15 1
    16   17   15 1
    17   18   15 1
    18   19   11 1
    19   20   19 1
    20   21   19 1
    21   22   19 1
    22   23   22 1
    23   24   22 1
    24   25    1 1
    25   26    1 1
    26   27   26 1
    27   28   26 1
    28   29   28 ar
    29   30   29 1
    30   31   30 2
    31   32   30 2
    32   33   29 ar
    33   34   33 1
    34   35   33 ar
    35   36   35 1
    36   37   35 ar
    37   38   37 1
    38   39   28 ar
    39   40   39 1
    40   41    6 2
    41   42   14 2
    42   43   44 2
    43   44   21 1
    44   45   44 1
    45   46   45 1
    46   47   45 1
    47   48   45 1
    48   22   25 1
    49   37   39 ar
@<TRIPOS>SUBSTRUCTURE
     1 RES1 1
     2 SUP2 49

@<TRIPOS>CRYSIN
  18.1336    8.0105   14.7689  90.0000 114.3080  90.0000   5 1

