# MOL2 file generated by ConQuest
# Please check atom types

@<TRIPOS>MOLECULE
HALTAQ
   109    97     2
SMALL
NO_CHARGES
****
Generated from CSD

@<TRIPOS>ATOM
      1 C1         2.6592    7.2584    4.9711 C.ar      1 RES1    0.0000
      2 C2         1.9398    8.4057    4.6102 C.ar      1 RES1    0.0000
      3 O1         1.7534    9.4305    5.5063 O.3       1 RES1    0.0000
      4 C3         1.3661    8.5128    3.3463 C.ar      1 RES1    0.0000
      5 C4         1.4820    7.4382    2.4599 C.ar      1 RES1    0.0000
      6 O2         0.7681    7.5167    1.2763 O.3       1 RES1    0.0000
      7 C5         2.1988    6.2871    2.7770 C.ar      1 RES1    0.0000
      8 C6         2.7955    6.2514    4.0258 C.ar      1 RES1    0.0000
      9 H1         3.3268    5.4952    4.2478 H         1 RES1    0.0000
     10 C7         3.2726    6.9751    6.3121 C.2       1 RES1    0.0000
     11 O3         4.2826    6.2745    6.3560 O.2       1 RES1    0.0000
     12 C8         2.6261    7.4549    7.6032 C.3       1 RES1    0.0000
     13 H2         2.4473    8.4333    7.5050 H         1 RES1    0.0000
     14 C9         1.2809    6.7622    7.8674 C.3       1 RES1    0.0000
     15 H3         0.9257    7.0783    8.7478 H         1 RES1    0.0000
     16 O4         0.3221    7.0995    6.8335 O.3       1 RES1    0.0000
     17 C10        1.3204    5.2317    7.8810 C.3       1 RES1    0.0000
     18 H4         1.8418    4.9271    7.0958 H         1 RES1    0.0000
     19 H5         1.8066    4.9391    8.6919 H         1 RES1    0.0000
     20 C11       -0.0160    4.5503    7.8553 C.3       1 RES1    0.0000
     21 H6        -0.4800    4.8151    7.0218 H         1 RES1    0.0000
     22 H7         0.1400    3.5742    7.8070 H         1 RES1    0.0000
     23 C12       -0.9408    4.8168    9.0060 C.3       1 RES1    0.0000
     24 H8        -0.9402    5.7805    9.2355 H         1 RES1    0.0000
     25 H9        -1.8654    4.5462    8.7780 H         1 RES1    0.0000
     26 C13       -0.4232    4.0031   10.1536 C.2       1 RES1    0.0000
     27 H10       -0.1401    3.1125    9.9800 H         1 RES1    0.0000
     28 C14       -0.3320    4.4785   11.4674 C.2       1 RES1    0.0000
     29 H11       -0.6074    5.3645   11.6713 H         1 RES1    0.0000
     30 H12        0.0045    3.9154   12.1545 H         1 RES1    0.0000
     31 C15        1.3204    5.2317    7.8810 Du        2 SUP2    0.0000
     32 H13        1.2876    4.8893    6.9523 Du        2 SUP2    0.0000
     33 H14        2.1651    4.9233    8.2948 Du        2 SUP2    0.0000
     34 C16        0.1518    4.7046    8.6587 Du        2 SUP2    0.0000
     35 H15       -0.6714    5.0331    8.2162 Du        2 SUP2    0.0000
     36 H16        0.1555    3.7193    8.5666 Du        2 SUP2    0.0000
     37 C17        0.0329    5.0190   10.1204 Du        2 SUP2    0.0000
     38 H17        0.8439    4.7005   10.5900 Du        2 SUP2    0.0000
     39 H18       -0.0250    6.0009   10.2397 Du        2 SUP2    0.0000
     40 C18       -1.1772    4.3738   10.7290 Du        2 SUP2    0.0000
     41 H19       -2.0402    4.4341   10.3364 Du        2 SUP2    0.0000
     42 C19       -0.9335    3.6763   11.9174 Du        2 SUP2    0.0000
     43 H20       -0.0552    3.6410   12.2753 Du        2 SUP2    0.0000
     44 H21       -1.6481    3.2397   12.3659 Du        2 SUP2    0.0000
     45 C20        3.5647    7.2733    8.8006 C.3       1 RES1    0.0000
     46 H22        3.0499    7.4336    9.6312 H         1 RES1    0.0000
     47 H23        3.8750    6.3341    8.8187 H         1 RES1    0.0000
     48 C21        4.7884    8.1917    8.8021 C.3       1 RES1    0.0000
     49 H24        5.3109    8.0365    7.9761 H         1 RES1    0.0000
     50 H25        4.4862    9.1344    8.7961 H         1 RES1    0.0000
     51 C22        5.6830    7.9636   10.0057 C.3       1 RES1    0.0000
     52 H26        5.2047    8.2188   10.8226 H         1 RES1    0.0000
     53 H27        6.4937    8.5074    9.9181 H         1 RES1    0.0000
     54 H28        5.9285    7.0166   10.0555 H         1 RES1    0.0000
     55 C23       -0.4337    8.2064    6.9901 C.2       1 RES1    0.0000
     56 O5        -0.3711    8.9467    7.9348 O.2       1 RES1    0.0000
     57 C24       -1.3337    8.3846    5.8198 C.ar      1 RES1    0.0000
     58 C25       -1.5641    7.3747    4.9001 C.ar      1 RES1    0.0000
     59 H29       -1.1423    6.5308    5.0119 H         1 RES1    0.0000
     60 C26       -2.4028    7.5846    3.8250 C.ar      1 RES1    0.0000
     61 H30       -2.5799    6.8867    3.2059 H         1 RES1    0.0000
     62 C27       -2.9765    8.8231    3.6694 C.ar      1 RES1    0.0000
     63 C28       -2.7732    9.8493    4.5634 C.ar      1 RES1    0.0000
     64 H31       -3.1911   10.6934    4.4366 H         1 RES1    0.0000
     65 C29       -1.9449    9.6228    5.6506 C.ar      1 RES1    0.0000
     66 H32       -1.7933   10.3143    6.2834 H         1 RES1    0.0000
     67 N1        -3.8355    9.0637    2.4901 N.pl3     1 RES1    0.0000
     68 O6        -4.0419    8.1417    1.7381 O.2       1 RES1    0.0000
     69 O7        -4.2822   10.1958    2.3466 O.2       1 RES1    0.0000
     70 C30        2.8365   10.3570    5.5525 C.3       1 RES1    0.0000
     71 H33        3.6529    9.8911    5.8273 H         1 RES1    0.0000
     72 H34        2.6322   11.0673    6.1958 H         1 RES1    0.0000
     73 H35        2.9681   10.7499    4.6631 H         1 RES1    0.0000
     74 C31        0.6031    9.7389    2.9431 C.3       1 RES1    0.0000
     75 H36       -0.2883    9.4889    2.5913 H         1 RES1    0.0000
     76 H37        0.4765   10.3369    3.7223 H         1 RES1    0.0000
     77 O8         1.3808   10.4117    1.9146 O.3       1 RES1    0.0000
     78 C32        0.7822   11.4524    1.3138 C.2       1 RES1    0.0000
     79 O9        -0.2896   11.8797    1.6434 O.2       1 RES1    0.0000
     80 C33        1.5849   11.9726    0.1691 C.ar      1 RES1    0.0000
     81 C34        2.8812   11.5503   -0.0695 C.ar      1 RES1    0.0000
     82 H38        3.2797   10.8978    0.4938 H         1 RES1    0.0000
     83 C35        3.5937   12.0780   -1.1265 C.ar      1 RES1    0.0000
     84 H39        4.4967   11.8230   -1.2775 H         1 RES1    0.0000
     85 C36        2.9749   12.9790   -1.9570 C.ar      1 RES1    0.0000
     86 C37        1.6879   13.4157   -1.7607 C.ar      1 RES1    0.0000
     87 H40        1.2838   14.0420   -2.3512 H         1 RES1    0.0000
     88 C38        0.9995   12.9072   -0.6690 C.ar      1 RES1    0.0000
     89 H41        0.1150   13.2055   -0.4938 H         1 RES1    0.0000
     90 N2         3.7159   13.5283   -3.0971 N.pl3     1 RES1    0.0000
     91 O10        4.9339   13.4654   -3.0653 O.2       1 RES1    0.0000
     92 O11        3.0900   13.9981   -4.0346 O.2       1 RES1    0.0000
     93 C39        1.5284    7.8167    0.0997 C.3       1 RES1    0.0000
     94 H42        1.5576    8.7873   -0.0317 H         1 RES1    0.0000
     95 H43        1.1077    7.3952   -0.6780 H         1 RES1    0.0000
     96 H44        2.4403    7.4733    0.2039 H         1 RES1    0.0000
     97 C40        2.2564    5.1025    1.8438 C.3       1 RES1    0.0000
     98 H45        2.2961    5.4298    0.9106 H         1 RES1    0.0000
     99 H46        3.0894    4.5953    2.0205 H         1 RES1    0.0000
    100 C41        1.0908    4.1787    1.9827 C.3       1 RES1    0.0000
    101 H47        0.2690    4.7471    2.0054 H         1 RES1    0.0000
    102 C42        0.9630    3.2658    0.7883 C.3       1 RES1    0.0000
    103 H48        0.6068    3.7713    0.0287 H         1 RES1    0.0000
    104 H49        0.3548    2.5287    1.0057 H         1 RES1    0.0000
    105 H50        1.8444    2.9050    0.5572 H         1 RES1    0.0000
    106 C43        1.1187    3.4028    3.2557 C.3       1 RES1    0.0000
    107 H51        2.0162    3.0358    3.3946 H         1 RES1    0.0000
    108 H52        0.4696    2.6714    3.2059 H         1 RES1    0.0000
    109 H53        0.8890    3.9938    4.0032 H         1 RES1    0.0000
@<TRIPOS>BOND
     1    1    2 ar
     2    2    3 1
     3    3   70 1
     4    4    2 ar
     5    5    4 ar
     6    6    5 1
     7    7    5 ar
     8    8    1 ar
     9    9    8 1
    10   10    1 1
    11   11   10 2
    12   12   10 1
    13   13   12 1
    14   14   12 1
    15   15   14 1
    16   16   14 1
    17   17   14 1
    18   18   17 1
    19   19   17 1
    20   20   17 1
    21   21   20 1
    22   22   20 1
    23   23   20 1
    24   24   23 1
    25   25   23 1
    26   26   23 1
    27   27   26 1
    28   28   26 2
    29   29   28 1
    30   30   28 1
    31   45   12 1
    32   46   45 1
    33   47   45 1
    34   48   45 1
    35   49   48 1
    36   50   48 1
    37   51   48 1
    38   52   51 1
    39   53   51 1
    40   54   51 1
    41   55   16 1
    42   56   55 2
    43   57   55 1
    44   58   57 ar
    45   59   58 1
    46   60   58 ar
    47   61   60 1
    48   62   60 ar
    49   63   62 ar
    50   64   63 1
    51   65   57 ar
    52   66   65 1
    53   67   62 1
    54   68   67 2
    55   69   67 2
    56   70   71 1
    57   72   70 1
    58   73   70 1
    59   74    4 1
    60   75   74 1
    61   76   74 1
    62   77   74 1
    63   78   77 1
    64   79   78 2
    65   80   78 1
    66   81   80 ar
    67   82   81 1
    68   83   81 ar
    69   84   83 1
    70   85   83 ar
    71   86   85 ar
    72   87   86 1
    73   88   80 ar
    74   89   88 1
    75   90   85 1
    76   91   90 2
    77   92   90 2
    78   93    6 1
    79   94   93 1
    80   95   93 1
    81   96   93 1
    82   97    7 1
    83   98   97 1
    84   99   97 1
    85  100   97 1
    86  101  100 1
    87  102  100 1
    88  103  102 1
    89  104  102 1
    90  105  102 1
    91  106  100 1
    92  107  106 1
    93  108  106 1
    94  109  106 1
    95    7    8 ar
    96   63   65 ar
    97   86   88 ar
@<TRIPOS>SUBSTRUCTURE
     1 RES1 1
     2 SUP2 31

@<TRIPOS>CRYSIN
   8.9292   13.4390   16.3340 109.5180  99.4240  93.3480   2 1

