# MOL2 file generated by ConQuest
# Please check atom types

@<TRIPOS>MOLECULE
HALWUO
    55    58     1
SMALL
NO_CHARGES
****
Generated from CSD

@<TRIPOS>ATOM
      1 O1         4.7202    3.6117    3.1882 O.3       1 RES1    0.0000
      2 N1         3.6483    3.6417    4.1764 N.3       1 RES1    0.0000
      3 C1         2.4143    3.7440    3.4652 C.ar      1 RES1    0.0000
      4 C2         2.3768    4.2697    2.1852 C.ar      1 RES1    0.0000
      5 H1         3.1661    4.5124    1.7582 H         1 RES1    0.0000
      6 C3         1.1592    4.4335    1.5414 C.ar      1 RES1    0.0000
      7 H2         1.1404    4.7955    0.6853 H         1 RES1    0.0000
      8 C4        -0.0148    4.0728    2.1425 C.ar      1 RES1    0.0000
      9 H3        -0.8256    4.1757    1.6987 H         1 RES1    0.0000
     10 C5         0.0250    3.5581    3.4057 C.ar      1 RES1    0.0000
     11 H4        -0.7696    3.3136    3.8239 H         1 RES1    0.0000
     12 C6         1.2193    3.3916    4.0740 C.ar      1 RES1    0.0000
     13 H5         1.2231    3.0412    4.9356 H         1 RES1    0.0000
     14 C7         3.8974    2.4111    4.9695 C.3       1 RES1    0.0000
     15 H6         3.6445    1.6257    4.4406 H         1 RES1    0.0000
     16 C8         3.1562    2.3909    6.2778 C.ar      1 RES1    0.0000
     17 C9         3.1108    3.5072    7.0953 C.ar      1 RES1    0.0000
     18 H7         3.5651    4.2787    6.8471 H         1 RES1    0.0000
     19 C10        2.3934    3.4830    8.2815 C.ar      1 RES1    0.0000
     20 H8         2.3614    4.2401    8.8209 H         1 RES1    0.0000
     21 C11        1.7260    2.3360    8.6631 C.ar      1 RES1    0.0000
     22 H9         1.2418    2.3206    9.4565 H         1 RES1    0.0000
     23 C12        1.7799    1.2231    7.8683 C.ar      1 RES1    0.0000
     24 H10        1.3423    0.4461    8.1302 H         1 RES1    0.0000
     25 C13        2.4816    1.2491    6.6773 C.ar      1 RES1    0.0000
     26 H11        2.5012    0.4911    6.1384 H         1 RES1    0.0000
     27 C14        5.4093    2.4690    5.0968 C.2       1 RES1    0.0000
     28 C15        6.1330    1.9403    6.0579 C.2       1 RES1    0.0000
     29 C16        7.4751    1.6954    6.6371 C.3       1 RES1    0.0000
     30 C17        8.2242    2.8398    7.2935 C.3       1 RES1    0.0000
     31 H12        8.9926    3.0648    6.7642 H         1 RES1    0.0000
     32 H13        8.5071    2.5758    8.1717 H         1 RES1    0.0000
     33 H14        7.6474    3.6031    7.3593 H         1 RES1    0.0000
     34 C18        8.4014    0.7138    5.9500 C.3       1 RES1    0.0000
     35 H15        7.8851   -0.0021    5.5731 H         1 RES1    0.0000
     36 H16        9.0224    0.3582    6.5902 H         1 RES1    0.0000
     37 H17        8.8830    1.1624    5.2521 H         1 RES1    0.0000
     38 C19        6.1913    1.1590    7.3090 C.3       1 RES1    0.0000
     39 C20        5.7261    1.7846    8.6104 C.3       1 RES1    0.0000
     40 H18        5.9442    2.7195    8.6117 H         1 RES1    0.0000
     41 H19        6.1643    1.3533    9.3474 H         1 RES1    0.0000
     42 H20        4.7753    1.6772    8.6955 H         1 RES1    0.0000
     43 C21        5.8830   -0.3258    7.2547 C.3       1 RES1    0.0000
     44 H21        5.0507   -0.4954    7.7019 H         1 RES1    0.0000
     45 H22        6.5859   -0.8150    7.6893 H         1 RES1    0.0000
     46 H23        5.8175   -0.6048    6.3386 H         1 RES1    0.0000
     47 C22        5.9234    3.2955    3.9326 C.3       1 RES1    0.0000
     48 C23        6.7943    2.5217    2.9645 C.3       1 RES1    0.0000
     49 H24        7.6133    2.2734    3.3992 H         1 RES1    0.0000
     50 H25        6.9895    3.0712    2.2018 H         1 RES1    0.0000
     51 H26        6.3313    1.7308    2.6797 H         1 RES1    0.0000
     52 C24        6.5878    4.5779    4.3950 C.3       1 RES1    0.0000
     53 H27        7.3855    4.3666    4.8861 H         1 RES1    0.0000
     54 H28        5.9835    5.0658    4.9600 H         1 RES1    0.0000
     55 H29        6.8150    5.1130    3.6319 H         1 RES1    0.0000
@<TRIPOS>BOND
     1    1    2 1
     2    2    3 1
     3    3    4 ar
     4    4    5 1
     5    6    4 ar
     6    7    6 1
     7    8    6 ar
     8    9    8 1
     9   10    8 ar
    10   11   10 1
    11   12    3 ar
    12   13   12 1
    13   14    2 1
    14   15   14 1
    15   16   14 1
    16   17   16 ar
    17   18   17 1
    18   19   17 ar
    19   20   19 1
    20   21   19 ar
    21   22   21 1
    22   23   21 ar
    23   24   23 1
    24   25   16 ar
    25   26   25 1
    26   27   14 1
    27   28   27 2
    28   29   28 1
    29   30   29 1
    30   31   30 1
    31   32   30 1
    32   33   30 1
    33   34   29 1
    34   35   34 1
    35   36   34 1
    36   37   34 1
    37   38   28 1
    38   39   38 1
    39   40   39 1
    40   41   39 1
    41   42   39 1
    42   43   38 1
    43   44   43 1
    44   45   43 1
    45   46   43 1
    46   47    1 1
    47   48   47 1
    48   49   48 1
    49   50   48 1
    50   51   48 1
    51   52   47 1
    52   53   52 1
    53   54   52 1
    54   55   52 1
    55   10   12 ar
    56   23   25 ar
    57   27   47 1
    58   29   38 1
@<TRIPOS>SUBSTRUCTURE
     1 RES1 1

@<TRIPOS>CRYSIN
  10.4952   21.4470    9.4397  90.0000 107.2210  90.0000  14 1

