# MOL2 file generated by ConQuest
# Please check atom types

@<TRIPOS>MOLECULE
HALXEZ
   148   160     2
SMALL
NO_CHARGES
****
Generated from CSD

@<TRIPOS>ATOM
      1 O1        -0.3088  -13.2102    2.5134 O.3       1 RES1    0.0000
      2 N1         0.5317  -14.0457    3.3849 N.3       1 RES1    0.0000
      3 C1         1.7458  -14.3370    2.7055 C.ar      1 RES1    0.0000
      4 C2         1.7599  -14.6019    1.3453 C.ar      1 RES1    0.0000
      5 H1         0.9711  -14.5545    0.8550 H         1 RES1    0.0000
      6 C3         2.9400  -14.9348    0.7206 C.ar      1 RES1    0.0000
      7 H2         2.9358  -15.0839   -0.1974 H         1 RES1    0.0000
      8 C4         4.1288  -15.0548    1.4099 C.ar      1 RES1    0.0000
      9 C5         4.0952  -14.8011    2.7617 C.ar      1 RES1    0.0000
     10 H3         4.8832  -14.8730    3.2517 H         1 RES1    0.0000
     11 C6         2.9379  -14.4435    3.4155 C.ar      1 RES1    0.0000
     12 H4         2.9530  -14.2740    4.3298 H         1 RES1    0.0000
     13 C7         5.3984  -15.4820    0.7080 C.3       1 RES1    0.0000
     14 H5         5.2208  -15.6061   -0.2266 H         1 RES1    0.0000
     15 H6         5.7110  -16.3076    1.0868 H         1 RES1    0.0000
     16 H7         6.0693  -14.8058    0.8206 H         1 RES1    0.0000
     17 C8         0.6245  -13.3027    4.6497 C.3       1 RES1    0.0000
     18 H8         1.3918  -12.6931    4.6268 H         1 RES1    0.0000
     19 C9         0.7439  -14.2521    5.8381 C.2       1 RES1    0.0000
     20 O2         1.4084  -13.9480    6.8064 O.2       1 RES1    0.0000
     21 N2         0.0295  -15.3901    5.7038 N.am      1 RES1    0.0000
     22 H9        -0.3532  -15.4956    4.9410 H         1 RES1    0.0000
     23 C10       -0.1807  -16.4315    6.6306 C.ar      1 RES1    0.0000
     24 C11        0.6183  -16.6059    7.7501 C.ar      1 RES1    0.0000
     25 H10        1.3144  -16.0163    7.9300 H         1 RES1    0.0000
     26 C12        0.3644  -17.6683    8.5939 C.ar      1 RES1    0.0000
     27 H11        0.8953  -17.7875    9.3481 H         1 RES1    0.0000
     28 C13       -0.6579  -18.5561    8.3427 C.ar      1 RES1    0.0000
     29 H12       -0.8086  -19.2731    8.9155 H         1 RES1    0.0000
     30 C14       -1.4496  -18.3710    7.2364 C.ar      1 RES1    0.0000
     31 H13       -2.1535  -18.9556    7.0665 H         1 RES1    0.0000
     32 C15       -1.2050  -17.3178    6.3720 C.ar      1 RES1    0.0000
     33 H14       -1.7343  -17.2077    5.6140 H         1 RES1    0.0000
     34 C16       -0.6665  -12.5133    4.6705 C.2       1 RES1    0.0000
     35 C17       -0.9988  -11.6605    5.6111 C.2       1 RES1    0.0000
     36 C18       -1.8807  -10.6269    6.1787 C.3       1 RES1    0.0000
     37 H15       -2.7107  -10.9555    6.5823 H         1 RES1    0.0000
     38 C19       -1.9578   -9.2531    5.5666 C.3       1 RES1    0.0000
     39 H16       -2.4547   -8.6710    6.1634 H         1 RES1    0.0000
     40 H17       -2.4483   -9.3088    4.7316 H         1 RES1    0.0000
     41 C20       -0.5970   -8.6363    5.2974 C.3       1 RES1    0.0000
     42 H18       -0.1782   -9.0995    4.5547 H         1 RES1    0.0000
     43 H19       -0.7128   -7.7073    5.0423 H         1 RES1    0.0000
     44 C21        0.3013   -8.7110    6.4939 C.3       1 RES1    0.0000
     45 H20       -0.1194   -8.2440    7.2330 H         1 RES1    0.0000
     46 H21        1.1321   -8.2529    6.2905 H         1 RES1    0.0000
     47 C22        0.6162  -10.1289    6.9248 C.3       1 RES1    0.0000
     48 H22        1.3078  -10.4848    6.3454 H         1 RES1    0.0000
     49 H23        0.9710  -10.1091    7.8270 H         1 RES1    0.0000
     50 C23       -0.5751  -11.0623    6.8917 C.3       1 RES1    0.0000
     51 H24       -0.6932  -11.6279    7.6828 H         1 RES1    0.0000
     52 C24       -1.4059  -12.8616    3.3823 C.3       1 RES1    0.0000
     53 C25       -2.1380  -11.6801    2.7710 C.ar      1 RES1    0.0000
     54 C26       -1.5086  -10.8205    1.9000 C.ar      1 RES1    0.0000
     55 H25       -0.6242  -10.9749    1.6585 H         1 RES1    0.0000
     56 C27       -2.1829   -9.7269    1.3805 C.ar      1 RES1    0.0000
     57 H26       -1.7497   -9.1599    0.7846 H         1 RES1    0.0000
     58 C28       -3.4824   -9.4722    1.7345 C.ar      1 RES1    0.0000
     59 H27       -3.9335   -8.7372    1.3838 H         1 RES1    0.0000
     60 C29       -4.1062  -10.3179    2.6128 C.ar      1 RES1    0.0000
     61 H28       -4.9838  -10.1483    2.8723 H         1 RES1    0.0000
     62 C30       -3.4455  -11.4195    3.1178 C.ar      1 RES1    0.0000
     63 H29       -3.8893  -11.9931    3.6998 H         1 RES1    0.0000
     64 C31       -2.3364  -14.0712    3.5384 C.ar      1 RES1    0.0000
     65 C32       -2.5314  -14.9273    2.4709 C.ar      1 RES1    0.0000
     66 H30       -2.0455  -14.8037    1.6876 H         1 RES1    0.0000
     67 C33       -3.4425  -15.9658    2.5572 C.ar      1 RES1    0.0000
     68 H31       -3.5592  -16.5430    1.8370 H         1 RES1    0.0000
     69 C34       -4.1744  -16.1449    3.7077 C.ar      1 RES1    0.0000
     70 H32       -4.7919  -16.8372    3.7616 H         1 RES1    0.0000
     71 C35       -3.9944  -15.3052    4.7742 C.ar      1 RES1    0.0000
     72 H33       -4.4935  -15.4211    5.5505 H         1 RES1    0.0000
     73 C36       -3.0614  -14.2783    4.6923 C.ar      1 RES1    0.0000
     74 H34       -2.9245  -13.7237    5.4252 H         1 RES1    0.0000
     75 O3         5.8889   -7.3727    2.5294 O.3       2 RES2    0.0000
     76 N3         6.7274   -6.4996    3.3653 N.3       2 RES2    0.0000
     77 C37        7.9458   -6.2202    2.6896 C.ar      2 RES2    0.0000
     78 C38        7.9713   -6.0184    1.3292 C.ar      2 RES2    0.0000
     79 H35        7.1894   -6.1000    0.8327 H         2 RES2    0.0000
     80 C39        9.1642   -5.6918    0.6982 C.ar      2 RES2    0.0000
     81 H36        9.1756   -5.5838   -0.2249 H         2 RES2    0.0000
     82 C40       10.3386   -5.5239    1.4107 C.ar      2 RES2    0.0000
     83 C41       10.2880   -5.7220    2.7644 C.ar      2 RES2    0.0000
     84 H37       11.0648   -5.6175    3.2654 H         2 RES2    0.0000
     85 C42        9.1212   -6.0705    3.4077 C.ar      2 RES2    0.0000
     86 H38        9.1224   -6.2054    4.3281 H         2 RES2    0.0000
     87 C43       11.6142   -5.1139    0.7080 C.3       2 RES2    0.0000
     88 H39       11.4501   -5.0379   -0.2352 H         2 RES2    0.0000
     89 H40       12.2915   -5.7769    0.8618 H         2 RES2    0.0000
     90 H41       11.9104   -4.2670    1.0507 H         2 RES2    0.0000
     91 C44        6.8077   -7.1681    4.6751 C.3       2 RES2    0.0000
     92 H42        7.5827   -7.7681    4.7024 H         2 RES2    0.0000
     93 C45        6.9034   -6.1341    5.7929 C.2       2 RES2    0.0000
     94 O4         7.5165   -6.3759    6.8072 O.2       2 RES2    0.0000
     95 N4         6.2366   -4.9922    5.5326 N.am      2 RES2    0.0000
     96 H43        5.8553   -4.9584    4.7625 H         2 RES2    0.0000
     97 C46        6.0711   -3.8438    6.3372 C.ar      2 RES2    0.0000
     98 C47        6.8628   -3.5843    7.4416 C.ar      2 RES2    0.0000
     99 H44        7.5257   -4.1836    7.6983 H         2 RES2    0.0000
    100 C48        6.6563   -2.4275    8.1544 C.ar      2 RES2    0.0000
    101 H45        7.1863   -2.2500    8.8983 H         2 RES2    0.0000
    102 C49        5.6847   -1.5297    7.7915 C.ar      2 RES2    0.0000
    103 H46        5.5688   -0.7448    8.2768 H         2 RES2    0.0000
    104 C50        4.8851   -1.7983    6.7042 C.ar      2 RES2    0.0000
    105 H47        4.2106   -1.2039    6.4656 H         2 RES2    0.0000
    106 C51        5.0818   -2.9457    5.9708 C.ar      2 RES2    0.0000
    107 H48        4.5497   -3.1189    5.2277 H         2 RES2    0.0000
    108 C52        5.5217   -7.9716    4.7197 C.2       2 RES2    0.0000
    109 C53        5.1898   -8.7616    5.7119 C.2       2 RES2    0.0000
    110 C54        4.3028   -9.7681    6.3562 C.3       2 RES2    0.0000
    111 H49        3.4749   -9.4116    6.7420 H         2 RES2    0.0000
    112 C55        4.2159  -11.1640    5.8329 C.3       2 RES2    0.0000
    113 H50        3.7118  -11.1608    5.0045 H         2 RES2    0.0000
    114 H51        3.7333  -11.7124    6.4707 H         2 RES2    0.0000
    115 C56        5.5754  -11.7793    5.5821 C.3       2 RES2    0.0000
    116 H52        5.9976  -11.3313    4.8312 H         2 RES2    0.0000
    117 H53        5.4677  -12.7138    5.3513 H         2 RES2    0.0000
    118 C57        6.4690  -11.6633    6.8007 C.3       2 RES2    0.0000
    119 H54        7.2957  -12.1432    6.6390 H         2 RES2    0.0000
    120 H55        6.0280  -12.0752    7.5609 H         2 RES2    0.0000
    121 C58        6.7887  -10.2069    7.1327 C.3       2 RES2    0.0000
    122 H56        7.1437  -10.1625    8.0347 H         2 RES2    0.0000
    123 H57        7.4793   -9.8934    6.5291 H         2 RES2    0.0000
    124 C59        5.6093   -9.2876    7.0345 C.3       2 RES2    0.0000
    125 H58        5.4912   -8.6731    7.7892 H         2 RES2    0.0000
    126 C60        4.7908   -7.6776    3.4220 C.3       2 RES2    0.0000
    127 C61        3.8632   -6.4623    3.5384 C.ar      2 RES2    0.0000
    128 C62        3.6825   -5.6235    2.4547 C.ar      2 RES2    0.0000
    129 H59        4.1625   -5.7709    1.6722 H         2 RES2    0.0000
    130 C63        2.7949   -4.5697    2.5256 C.ar      2 RES2    0.0000
    131 H60        2.6865   -4.0069    1.7924 H         2 RES2    0.0000
    132 C64        2.0672   -4.3453    3.6711 C.ar      2 RES2    0.0000
    133 H61        1.4612   -3.6419    3.7101 H         2 RES2    0.0000
    134 C65        2.2440   -5.1632    4.7517 C.ar      2 RES2    0.0000
    135 H62        1.7536   -5.0163    5.5282 H         2 RES2    0.0000
    136 C66        3.1460   -6.2096    4.6938 C.ar      2 RES2    0.0000
    137 H63        3.2725   -6.7491    5.4406 H         2 RES2    0.0000
    138 C67        4.0552   -8.8748    2.8480 C.ar      2 RES2    0.0000
    139 C68        2.7545   -9.1384    3.2024 C.ar      2 RES2    0.0000
    140 H64        2.3166   -8.5616    3.7856 H         2 RES2    0.0000
    141 C69        2.0822  -10.2420    2.7112 C.ar      2 RES2    0.0000
    142 H65        1.2068  -10.4101    2.9787 H         2 RES2    0.0000
    143 C70        2.6993  -11.0888    1.8315 C.ar      2 RES2    0.0000
    144 H66        2.2453  -11.8262    1.4936 H         2 RES2    0.0000
    145 C71        3.9879  -10.8412    1.4554 C.ar      2 RES2    0.0000
    146 H67        4.4136  -11.4142    0.8584 H         2 RES2    0.0000
    147 C72        4.6666   -9.7403    1.9586 C.ar      2 RES2    0.0000
    148 H68        5.5442   -9.5819    1.6945 H         2 RES2    0.0000
@<TRIPOS>BOND
     1    1    2 1
     2    2    3 1
     3    3    4 ar
     4    4    5 1
     5    6    4 ar
     6    7    6 1
     7    8    6 ar
     8    9    8 ar
     9   10    9 1
    10   11    3 ar
    11   12   11 1
    12   13    8 1
    13   14   13 1
    14   15   13 1
    15   16   13 1
    16   17    2 1
    17   18   17 1
    18   19   17 1
    19   20   19 2
    20   21   19 1
    21   22   21 1
    22   23   21 1
    23   24   23 ar
    24   25   24 1
    25   26   24 ar
    26   27   26 1
    27   28   26 ar
    28   29   28 1
    29   30   28 ar
    30   31   30 1
    31   32   23 ar
    32   33   32 1
    33   34   17 1
    34   35   34 2
    35   36   35 1
    36   37   36 1
    37   38   36 1
    38   39   38 1
    39   40   38 1
    40   41   38 1
    41   42   41 1
    42   43   41 1
    43   44   41 1
    44   45   44 1
    45   46   44 1
    46   47   44 1
    47   48   47 1
    48   49   47 1
    49   50   35 1
    50   51   50 1
    51   52    1 1
    52   53   52 1
    53   54   53 ar
    54   55   54 1
    55   56   54 ar
    56   57   56 1
    57   58   56 ar
    58   59   58 1
    59   60   58 ar
    60   61   60 1
    61   62   53 ar
    62   63   62 1
    63   64   52 1
    64   65   64 ar
    65   66   65 1
    66   67   65 ar
    67   68   67 1
    68   69   67 ar
    69   70   69 1
    70   71   69 ar
    71   72   71 1
    72   73   64 ar
    73   74   73 1
    74   75   76 1
    75   76   77 1
    76   77   78 ar
    77   78   79 1
    78   80   78 ar
    79   81   80 1
    80   82   80 ar
    81   83   82 ar
    82   84   83 1
    83   85   77 ar
    84   86   85 1
    85   87   82 1
    86   88   87 1
    87   89   87 1
    88   90   87 1
    89   91   76 1
    90   92   91 1
    91   93   91 1
    92   94   93 2
    93   95   93 1
    94   96   95 1
    95   97   95 1
    96   98   97 ar
    97   99   98 1
    98  100   98 ar
    99  101  100 1
   100  102  100 ar
   101  103  102 1
   102  104  102 ar
   103  105  104 1
   104  106   97 ar
   105  107  106 1
   106  108   91 1
   107  109  108 2
   108  110  109 1
   109  111  110 1
   110  112  110 1
   111  113  112 1
   112  114  112 1
   113  115  112 1
   114  116  115 1
   115  117  115 1
   116  118  115 1
   117  119  118 1
   118  120  118 1
   119  121  118 1
   120  122  121 1
   121  123  121 1
   122  124  109 1
   123  125  124 1
   124  126   75 1
   125  127  126 1
   126  128  127 ar
   127  129  128 1
   128  130  128 ar
   129  131  130 1
   130  132  130 ar
   131  133  132 1
   132  134  132 ar
   133  135  134 1
   134  136  127 ar
   135  137  136 1
   136  138  126 1
   137  139  138 ar
   138  140  139 1
   139  141  139 ar
   140  142  141 1
   141  143  141 ar
   142  144  143 1
   143  145  143 ar
   144  146  145 1
   145  147  138 ar
   146  148  147 1
   147    9   11 ar
   148   30   32 ar
   149   34   52 1
   150   36   50 1
   151   47   50 1
   152   60   62 ar
   153   71   73 ar
   154   83   85 ar
   155  104  106 ar
   156  108  126 1
   157  110  124 1
   158  121  124 1
   159  134  136 ar
   160  145  147 ar
@<TRIPOS>SUBSTRUCTURE
     1 RES1 1
     2 RES2 75

@<TRIPOS>CRYSIN
  12.3915   13.7350   17.8705  78.8700  78.3860  89.4460   2 1

