# MOL2 file generated by ConQuest
# Please check atom types

@<TRIPOS>MOLECULE
HAMDEF
   194   192     5
SMALL
NO_CHARGES
****
Generated from CSD

@<TRIPOS>ATOM
      1 C1         8.6055   15.4035    7.5415 C.3       1 RES1    0.0000
      2 H1         9.0100   16.2020    7.9658 H         1 RES1    0.0000
      3 H2         9.2518   14.6549    7.5935 H         1 RES1    0.0000
      4 C2         7.3037   15.0332    8.2323 C.3       1 RES1    0.0000
      5 H3         7.4499   14.3195    8.9159 H         1 RES1    0.0000
      6 C3         6.4271   14.5182    7.0677 C.3       1 RES1    0.0000
      7 H4         6.1833   13.5588    7.2063 H         1 RES1    0.0000
      8 C4         5.4515   16.0933    5.6441 C.3       1 RES1    0.0000
      9 H5         5.8885   16.9553    5.8558 H         1 RES1    0.0000
     10 H6         4.5882   16.2698    5.1923 H         1 RES1    0.0000
     11 C5         6.3495   15.2208    4.7876 C.3       1 RES1    0.0000
     12 H7         5.8102   14.4643    4.4181 H         1 RES1    0.0000
     13 C6         7.3093   14.6782    5.8314 C.3       1 RES1    0.0000
     14 H8         7.7378   13.8191    5.5514 H         1 RES1    0.0000
     15 C7         7.8189   15.0717    2.9968 C.3       1 RES1    0.0000
     16 H9         7.3533   14.2223    2.7912 H         1 RES1    0.0000
     17 H10        8.6066   14.8602    3.5581 H         1 RES1    0.0000
     18 C8         8.2761   15.7078    1.7189 C.ar      1 RES1    0.0000
     19 C9         9.5699   15.4902    1.2802 C.ar      1 RES1    0.0000
     20 H11       10.1744   15.0069    1.8308 H         1 RES1    0.0000
     21 C10        9.9954   15.9648    0.0560 C.ar      1 RES1    0.0000
     22 H12       10.8818   15.7895   -0.2364 H         1 RES1    0.0000
     23 C11        9.1465   16.6890   -0.7422 C.ar      1 RES1    0.0000
     24 H13        9.4397   17.0177   -1.5840 H         1 RES1    0.0000
     25 C12        7.8566   16.9330   -0.3022 C.ar      1 RES1    0.0000
     26 H14        7.2638   17.4429   -0.8422 H         1 RES1    0.0000
     27 C13        7.4227   16.4458    0.9098 C.ar      1 RES1    0.0000
     28 H15        6.5327   16.6162    1.1954 H         1 RES1    0.0000
     29 C14        5.6082   16.1131    9.5388 C.ar      1 RES1    0.0000
     30 C15        5.0055   14.9075    9.8770 C.ar      1 RES1    0.0000
     31 H16        5.4116   14.0830    9.6370 H         1 RES1    0.0000
     32 C16        3.8074   14.9229   10.5676 C.ar      1 RES1    0.0000
     33 H17        3.3760   14.1068   10.7925 H         1 RES1    0.0000
     34 C17        3.2415   16.1279   10.9289 C.ar      1 RES1    0.0000
     35 C18        3.8616   17.3282   10.6393 C.ar      1 RES1    0.0000
     36 H18        3.4752   18.1486   10.9225 H         1 RES1    0.0000
     37 C19        5.0434   17.3223    9.9379 C.ar      1 RES1    0.0000
     38 H19        5.4751   18.1413    9.7257 H         1 RES1    0.0000
     39 N1         1.9658   16.1386   11.6286 N.pl3     1 RES1    0.0000
     40 O1         8.2639   15.6774    6.1850 O.3       1 RES1    0.0000
     41 O2         5.2655   15.3029    6.8273 O.3       1 RES1    0.0000
     42 O3         6.9422   15.9259    3.7196 O.3       1 RES1    0.0000
     43 O4         6.7706   16.2194    8.8313 O.3       1 RES1    0.0000
     44 O5         1.4874   17.2228   11.9578 O.2       1 RES1    0.0000
     45 O6         1.4206   15.0659   11.8546 O.2       1 RES1    0.0000
     46 C20        2.2685   15.5480    7.6094 C.3       2 RES2    0.0000
     47 H20        2.6379   16.3523    8.0545 H         2 RES2    0.0000
     48 H21        2.9286   14.8144    7.6792 H         2 RES2    0.0000
     49 C21        0.9474   15.1434    8.2424 C.3       2 RES2    0.0000
     50 H22        1.0840   14.4698    8.9677 H         2 RES2    0.0000
     51 C22        0.1693   14.5354    7.0479 C.3       2 RES2    0.0000
     52 H23        0.0079   13.5588    7.1916 H         2 RES2    0.0000
     53 C23       -0.8757   16.0046    5.5687 C.3       2 RES2    0.0000
     54 H24       -0.5400   16.9077    5.7967 H         2 RES2    0.0000
     55 H25       -1.7271   16.0938    5.0712 H         2 RES2    0.0000
     56 C24        0.1485   15.2329    4.7584 C.3       2 RES2    0.0000
     57 H26       -0.2927   14.4405    4.3368 H         2 RES2    0.0000
     58 C25        1.0942   14.7603    5.8494 C.3       2 RES2    0.0000
     59 H27        1.5945   13.9327    5.5913 H         2 RES2    0.0000
     60 C26        1.7833   15.3449    3.0786 C.3       2 RES2    0.0000
     61 H28        1.5128   14.4056    2.9168 H         2 RES2    0.0000
     62 H29        2.5913   15.3368    3.6497 H         2 RES2    0.0000
     63 C27        2.1030   16.0047    1.7731 C.ar      2 RES2    0.0000
     64 C28        1.1430   16.6875    1.0442 C.ar      2 RES2    0.0000
     65 H30        0.2654   16.7922    1.3934 H         2 RES2    0.0000
     66 C29        1.4671   17.2215   -0.2026 C.ar      2 RES2    0.0000
     67 H31        0.8131   17.7050   -0.6930 H         2 RES2    0.0000
     68 C30        2.7292   17.0530   -0.7270 C.ar      2 RES2    0.0000
     69 H32        2.9415   17.4063   -1.5825 H         2 RES2    0.0000
     70 C31        3.6780   16.3724   -0.0072 C.ar      2 RES2    0.0000
     71 H33        4.5491   16.2515   -0.3679 H         2 RES2    0.0000
     72 C32        3.3743   15.8598    1.2416 C.ar      2 RES2    0.0000
     73 H34        4.0439   15.4046    1.7392 H         2 RES2    0.0000
     74 C33       -0.8014   16.2337    9.4866 C.ar      2 RES2    0.0000
     75 C34       -1.3175   17.4431    9.9271 C.ar      2 RES2    0.0000
     76 H35       -0.8676   18.2531    9.7198 H         2 RES2    0.0000
     77 C35       -2.4803   17.4728   10.6641 C.ar      2 RES2    0.0000
     78 H36       -2.8415   18.2989   10.9610 H         2 RES2    0.0000
     79 C36       -3.1100   16.2868   10.9630 C.ar      2 RES2    0.0000
     80 C37       -2.5893   15.0703   10.5642 C.ar      2 RES2    0.0000
     81 H37       -3.0253   14.2608   10.8014 H         2 RES2    0.0000
     82 C38       -1.4217   15.0448    9.8140 C.ar      2 RES2    0.0000
     83 H38       -1.0531   14.2168    9.5292 H         2 RES2    0.0000
     84 N2        -4.3610   16.3263   11.7109 N.pl3     2 RES2    0.0000
     85 O7         1.9634   15.8238    6.2456 O.3       2 RES2    0.0000
     86 O8        -1.0524   15.2111    6.7478 O.3       2 RES2    0.0000
     87 O9         0.7300   16.0333    3.7546 O.3       2 RES2    0.0000
     88 O10        0.3417   16.3347    8.7475 O.3       2 RES2    0.0000
     89 O11       -4.8277   17.4158   12.0059 O.2       2 RES2    0.0000
     90 O12       -4.8915   15.2719   11.9953 O.2       2 RES2    0.0000
     91 C39        1.7363   10.5510   11.4713 C.3       3 RES3    0.0000
     92 H39        2.2202   11.3683   11.7530 H         3 RES3    0.0000
     93 H40        2.3303    9.7699   11.5993 H         3 RES3    0.0000
     94 C40        0.4692   10.3886   12.2613 C.3       3 RES3    0.0000
     95 H41        0.6247    9.8304   13.0769 H         3 RES3    0.0000
     96 C41       -0.4755    9.6862   11.2896 C.3       3 RES3    0.0000
     97 H42       -0.6245    8.7380   11.5697 H         3 RES3    0.0000
     98 C42       -1.5763   11.1892    9.9662 C.3       3 RES3    0.0000
     99 H43       -1.0938   12.0227   10.1941 H         3 RES3    0.0000
    100 H44       -2.4589   11.4215    9.5824 H         3 RES3    0.0000
    101 C43       -0.7729   10.3426    9.0056 C.3       3 RES3    0.0000
    102 H45       -1.3524    9.6160    8.6352 H         3 RES3    0.0000
    103 C44        0.2587    9.7393    9.9430 C.3       3 RES3    0.0000
    104 H46        0.5691    8.8388    9.6415 H         3 RES3    0.0000
    105 C45        0.2247   10.2971    6.8684 C.3       3 RES3    0.0000
    106 H47       -0.5156   10.1384    6.2311 H         3 RES3    0.0000
    107 H48        0.5262    9.4198    7.2167 H         3 RES3    0.0000
    108 C46        1.3641   10.9788    6.1602 C.ar      3 RES3    0.0000
    109 C47        1.3709   11.1211    4.7828 C.ar      3 RES3    0.0000
    110 H49        0.6066   10.8661    4.2807 H         3 RES3    0.0000
    111 C48        2.4803   11.6315    4.1288 C.ar      3 RES3    0.0000
    112 H50        2.4769   11.7184    3.1828 H         3 RES3    0.0000
    113 C49        3.5859   12.0121    4.8519 C.ar      3 RES3    0.0000
    114 H51        4.3510   12.3563    4.4063 H         3 RES3    0.0000
    115 C50        3.5807   11.8918    6.2258 C.ar      3 RES3    0.0000
    116 H52        4.3424   12.1584    6.7261 H         3 RES3    0.0000
    117 C51        2.4762   11.3872    6.8777 C.ar      3 RES3    0.0000
    118 H53        2.4780   11.3188    7.8255 H         3 RES3    0.0000
    119 C52       -1.0631   11.7745   13.4924 C.ar      3 RES3    0.0000
    120 C53       -1.5725   10.6866   14.1915 C.ar      3 RES3    0.0000
    121 H54       -1.2013    9.8231   14.0581 H         3 RES3    0.0000
    122 C54       -2.6138   10.8580   15.0772 C.ar      3 RES3    0.0000
    123 H55       -2.9580   10.1182   15.5652 H         3 RES3    0.0000
    124 C55       -3.1479   12.1145   15.2447 C.ar      3 RES3    0.0000
    125 C56       -2.6496   13.2116   14.5587 C.ar      3 RES3    0.0000
    126 H56       -3.0279   14.0739   14.6905 H         3 RES3    0.0000
    127 C57       -1.6012   13.0384   13.6845 C.ar      3 RES3    0.0000
    128 H57       -1.2462   13.7824   13.2129 H         3 RES3    0.0000
    129 N3        -4.2604   12.2639   16.1858 N.pl3     3 RES3    0.0000
    130 O13        1.3270   10.6533   10.1085 O.3       3 RES3    0.0000
    131 O14       -1.7189   10.3543   11.1073 O.3       3 RES3    0.0000
    132 O15       -0.2392   11.1068    7.9477 O.3       3 RES3    0.0000
    133 O16       -0.0248   11.6904   12.6140 O.3       3 RES3    0.0000
    134 O17       -4.6119   13.4000   16.4655 O.2       3 RES3    0.0000
    135 O18       -4.7770   11.2539   16.6612 O.2       3 RES3    0.0000
    136 C58        0.7872    2.7596    2.8505 C.3       4 RES4    0.0000
    137 H58        0.7311    3.7265    2.6420 H         4 RES4    0.0000
    138 H59       -0.0514    2.3206    2.5622 H         4 RES4    0.0000
    139 C59        1.9879    2.1301    2.1703 C.3       4 RES4    0.0000
    140 H60        1.7421    1.7597    1.2752 H         4 RES4    0.0000
    141 C60        2.3978    1.0049    3.1451 C.3       4 RES4    0.0000
    142 H61        2.2271    0.1081    2.7380 H         4 RES4    0.0000
    143 C61        3.7484    1.6261    4.9237 C.3       4 RES4    0.0000
    144 H62        3.7531    2.6157    4.9086 H         4 RES4    0.0000
    145 H63        4.5331    1.3088    5.4376 H         4 RES4    0.0000
    146 C62        2.4660    1.1024    5.5193 C.3       4 RES4    0.0000
    147 H64        2.5813    0.1375    5.7553 H         4 RES4    0.0000
    148 C63        1.5013    1.2201    4.3603 C.3       4 RES4    0.0000
    149 H65        0.7616    0.5499    4.4107 H         4 RES4    0.0000
    150 C64        0.7348    1.3088    7.0881 C.3       4 RES4    0.0000
    151 H66        0.0563    1.5764    6.4188 H         4 RES4    0.0000
    152 H67        0.7504    0.3208    7.1428 H         4 RES4    0.0000
    153 C65        0.4036    1.8953    8.4224 C.ar      4 RES4    0.0000
    154 C66        1.2795    1.6895    9.4819 C.ar      4 RES4    0.0000
    155 H68        2.1282    1.2923    9.3267 H         4 RES4    0.0000
    156 C67        0.9129    2.0658   10.7689 C.ar      4 RES4    0.0000
    157 H69        1.5119    1.9247   11.4929 H         4 RES4    0.0000
    158 C68       -0.3296    2.6450   10.9964 C.ar      4 RES4    0.0000
    159 H70       -0.5797    2.9017   11.8771 H         4 RES4    0.0000
    160 C69       -1.2055    2.8503    9.9370 C.ar      4 RES4    0.0000
    161 H71       -2.0542    3.2463   10.0921 H         4 RES4    0.0000
    162 C70       -0.8389    2.4746    8.6500 C.ar      4 RES4    0.0000
    163 H72       -1.4380    2.6157    7.9259 H         4 RES4    0.0000
    164 C71        4.0248    2.9401    1.2196 C.ar      4 RES4    0.0000
    165 C72        4.8601    4.0319    1.0358 C.ar      4 RES4    0.0000
    166 H73        4.6786    4.8465    1.4894 H         4 RES4    0.0000
    167 C73        5.9481    3.9406    0.2018 C.ar      4 RES4    0.0000
    168 H74        6.5269    4.6833    0.0798 H         4 RES4    0.0000
    169 C74        6.1864    2.7517   -0.4554 C.ar      4 RES4    0.0000
    170 C75        5.3642    1.6530   -0.2906 C.ar      4 RES4    0.0000
    171 H75        5.5448    0.8450   -0.7565 H         4 RES4    0.0000
    172 C76        4.2801    1.7426    0.5560 C.ar      4 RES4    0.0000
    173 H76        3.7118    0.9935    0.6856 H         4 RES4    0.0000
    174 N4         7.3204    2.6626   -1.3761 N.pl3     4 RES4    0.0000
    175 O19        1.0193    2.5503    4.2575 O.3       4 RES4    0.0000
    176 O20        3.7577    1.0993    3.6070 O.3       4 RES4    0.0000
    177 O21        2.0919    1.8275    6.6847 O.3       4 RES4    0.0000
    178 O22        2.9777    3.1443    2.0521 O.3       4 RES4    0.0000
    179 O23        7.5941    1.5852   -1.8652 O.2       4 RES4    0.0000
    180 O24        7.9351    3.6831   -1.6388 O.2       4 RES4    0.0000
    181 C77        1.9172    1.1255    7.9245 Du        5 SUP5    0.0000
    182 H77        2.7761    1.0851    8.4150 Du        5 SUP5    0.0000
    183 H78        1.6161    0.1980    7.7486 Du        5 SUP5    0.0000
    184 C78        0.8925    1.8513    8.7431 Du        5 SUP5    0.0000
    185 C79        1.0157    1.8807   10.1276 Du        5 SUP5    0.0000
    186 H79        1.7910    1.5214   10.5428 Du        5 SUP5    0.0000
    187 C80        0.0060    2.4361   10.9048 Du        5 SUP5    0.0000
    188 H80        0.0908    2.4562   11.8505 Du        5 SUP5    0.0000
    189 C81       -1.1282    2.9621   10.2975 Du        5 SUP5    0.0000
    190 H81       -1.8186    3.3416   10.8280 Du        5 SUP5    0.0000
    191 C82       -1.2527    2.9310    8.9130 Du        5 SUP5    0.0000
    192 H82       -2.0280    3.2903    8.4978 Du        5 SUP5    0.0000
    193 C83       -0.2430    2.3774    8.1358 Du        5 SUP5    0.0000
    194 H83       -0.3278    2.3554    7.1901 Du        5 SUP5    0.0000
@<TRIPOS>BOND
     1    1    2 1
     2    3    1 1
     3    4    1 1
     4    5    4 1
     5    6    4 1
     6    7    6 1
     7    8    9 1
     8   10    8 1
     9   11    8 1
    10   12   11 1
    11   13    6 1
    12   14   13 1
    13   15   16 1
    14   17   15 1
    15   18   15 1
    16   19   18 ar
    17   20   19 1
    18   21   19 ar
    19   22   21 1
    20   23   21 ar
    21   24   23 1
    22   25   23 ar
    23   26   25 1
    24   27   18 ar
    25   28   27 1
    26   29   30 ar
    27   30   31 1
    28   32   30 ar
    29   33   32 1
    30   34   32 ar
    31   35   34 ar
    32   36   35 1
    33   37   29 ar
    34   38   37 1
    35   39   34 1
    36   40    1 1
    37   41    6 1
    38   42   11 1
    39   43    4 1
    40   44   39 2
    41   45   39 2
    42   46   47 1
    43   48   46 1
    44   49   46 1
    45   50   49 1
    46   51   49 1
    47   52   51 1
    48   53   54 1
    49   55   53 1
    50   56   53 1
    51   57   56 1
    52   58   51 1
    53   59   58 1
    54   60   61 1
    55   62   60 1
    56   63   60 1
    57   64   63 ar
    58   65   64 1
    59   66   64 ar
    60   67   66 1
    61   68   66 ar
    62   69   68 1
    63   70   68 ar
    64   71   70 1
    65   72   63 ar
    66   73   72 1
    67   74   75 ar
    68   75   76 1
    69   77   75 ar
    70   78   77 1
    71   79   77 ar
    72   80   79 ar
    73   81   80 1
    74   82   74 ar
    75   83   82 1
    76   84   79 1
    77   85   46 1
    78   86   51 1
    79   87   56 1
    80   88   49 1
    81   89   84 2
    82   90   84 2
    83   91   92 1
    84   93   91 1
    85   94   91 1
    86   95   94 1
    87   96   94 1
    88   97   96 1
    89   98   99 1
    90  100   98 1
    91  101   98 1
    92  102  101 1
    93  103   96 1
    94  104  103 1
    95  105  106 1
    96  107  105 1
    97  108  105 1
    98  109  108 ar
    99  110  109 1
   100  111  109 ar
   101  112  111 1
   102  113  111 ar
   103  114  113 1
   104  115  113 ar
   105  116  115 1
   106  117  108 ar
   107  118  117 1
   108  119  120 ar
   109  120  121 1
   110  122  120 ar
   111  123  122 1
   112  124  122 ar
   113  125  124 ar
   114  126  125 1
   115  127  119 ar
   116  128  127 1
   117  129  124 1
   118  130   91 1
   119  131   96 1
   120  132  101 1
   121  133   94 1
   122  134  129 2
   123  135  129 2
   124  136  137 1
   125  138  136 1
   126  139  136 1
   127  140  139 1
   128  141  139 1
   129  142  141 1
   130  143  144 1
   131  145  143 1
   132  146  143 1
   133  147  146 1
   134  148  141 1
   135  149  148 1
   136  150  151 1
   137  152  150 1
   138  153  150 1
   139  154  153 ar
   140  155  154 1
   141  156  154 ar
   142  157  156 1
   143  158  156 ar
   144  159  158 1
   145  160  158 ar
   146  161  160 1
   147  162  153 ar
   148  163  162 1
   149  164  165 ar
   150  165  166 1
   151  167  165 ar
   152  168  167 1
   153  169  167 ar
   154  170  169 ar
   155  171  170 1
   156  172  164 ar
   157  173  172 1
   158  174  169 1
   159  175  136 1
   160  176  141 1
   161  177  146 1
   162  178  139 1
   163  179  174 2
   164  180  174 2
   165    8   41 1
   166   11   13 1
   167   13   40 1
   168   15   42 1
   169   25   27 ar
   170   29   43 1
   171   35   37 ar
   172   53   86 1
   173   56   58 1
   174   58   85 1
   175   60   87 1
   176   70   72 ar
   177   74   88 1
   178   80   82 ar
   179   98  131 1
   180  101  103 1
   181  103  130 1
   182  105  132 1
   183  115  117 ar
   184  119  133 1
   185  125  127 ar
   186  143  176 1
   187  146  148 1
   188  148  175 1
   189  150  177 1
   190  160  162 ar
   191  164  178 1
   192  170  172 ar
@<TRIPOS>SUBSTRUCTURE
     1 RES1 1
     2 RES2 46
     3 RES3 91
     4 RES4 136
     5 SUP5 181

@<TRIPOS>CRYSIN
  12.6835   18.3301   15.3093  90.0000 105.1650  90.0000   4 1

