# MOL2 file generated by ConQuest
# Please check atom types

@<TRIPOS>MOLECULE
HAMJEM
    44    45     1
SMALL
NO_CHARGES
****
Generated from CSD

@<TRIPOS>ATOM
      1 O1         9.1617    8.3177   13.2512 O.2       1 RES1    0.0000
      2 O2         7.9056    6.7153   12.6367 O.2       1 RES1    0.0000
      3 O3         4.8514    4.5477    2.3230 O.3       1 RES1    0.0000
      4 O4         3.6343    4.7948    4.1245 O.2       1 RES1    0.0000
      5 O5         9.7418    4.9681    6.1162 O.3       1 RES1    0.0000
      6 N1         8.9457    7.2956   12.5953 N.pl3     1 RES1    0.0000
      7 H1        10.3581    4.8389    5.4892 H         1 RES1    0.0000
      8 C1         7.3994    5.2275    6.2777 C.ar      1 RES1    0.0000
      9 C2         6.0252    4.8448    4.3158 C.ar      1 RES1    0.0000
     10 C3         6.1331    5.1923    5.6660 C.ar      1 RES1    0.0000
     11 C4         8.5266    4.9335    5.5121 C.ar      1 RES1    0.0000
     12 C5         7.1770    4.5642    3.5944 C.ar      1 RES1    0.0000
     13 H2         7.1070    4.3409    2.6947 H         1 RES1    0.0000
     14 C6         8.4137    4.6087    4.1790 C.ar      1 RES1    0.0000
     15 H3         9.1746    4.4214    3.6785 H         1 RES1    0.0000
     16 C7         4.7159    4.7373    3.6229 C.2       1 RES1    0.0000
     17 C8        11.3049    6.9091   12.2403 C.ar      1 RES1    0.0000
     18 H4        11.4469    7.2748   13.0829 H         1 RES1    0.0000
     19 C9         9.7469    6.2879   10.4809 C.ar      1 RES1    0.0000
     20 C10        8.3434    6.2217    9.9077 C.3       1 RES1    0.0000
     21 H5         7.8522    5.5265   10.3725 H         1 RES1    0.0000
     22 H6         7.8970    7.0644   10.0845 H         1 RES1    0.0000
     23 C11       10.0370    6.8005   11.7356 C.ar      1 RES1    0.0000
     24 C12        4.9269    5.5291    6.5044 C.3       1 RES1    0.0000
     25 H7         4.4569    4.7231    6.7282 H         1 RES1    0.0000
     26 H8         4.3462    6.1120    6.0097 H         1 RES1    0.0000
     27 H9         5.2108    5.9686    7.3100 H         1 RES1    0.0000
     28 C13       10.8507    5.8785    9.7423 C.ar      1 RES1    0.0000
     29 H10       10.7234    5.5338    8.8883 H         1 RES1    0.0000
     30 C14        3.6353    4.4111    1.5413 C.3       1 RES1    0.0000
     31 H11        3.0369    5.1529    1.7195 H         1 RES1    0.0000
     32 H12        3.1797    3.5857    1.7708 H         1 RES1    0.0000
     33 C15       12.1283    5.9723   10.2471 C.ar      1 RES1    0.0000
     34 H13       12.8461    5.6882    9.7281 H         1 RES1    0.0000
     35 C16        7.5340    5.5137    7.7163 C.2       1 RES1    0.0000
     36 H14        6.7611    5.2554    8.1654 H         1 RES1    0.0000
     37 C17       12.3609    6.4711   11.4861 C.ar      1 RES1    0.0000
     38 H15       13.2272    6.5147   11.8197 H         1 RES1    0.0000
     39 C18        8.2859    5.9513    8.4520 C.2       1 RES1    0.0000
     40 H16        9.0722    6.2070    8.0257 H         1 RES1    0.0000
     41 C19        4.0175    4.3987    0.1340 C.3       1 RES1    0.0000
     42 H17        4.4853    5.2097   -0.0770 H         1 RES1    0.0000
     43 H18        3.2300    4.3329   -0.4106 H         1 RES1    0.0000
     44 H19        4.5888    3.6464   -0.0356 H         1 RES1    0.0000
@<TRIPOS>BOND
     1    1    6 2
     2    2    6 2
     3    3   16 1
     4    4   16 2
     5    5    7 1
     6    6   23 1
     7    8   10 ar
     8    9   10 ar
     9   10   24 1
    10   11    5 1
    11   12    9 ar
    12   13   12 1
    13   14   11 ar
    14   15   14 1
    15   16    9 1
    16   17   18 1
    17   19   20 1
    18   20   21 1
    19   22   20 1
    20   23   17 ar
    21   24   25 1
    22   26   24 1
    23   27   24 1
    24   28   19 ar
    25   29   28 1
    26   30    3 1
    27   31   30 1
    28   32   30 1
    29   33   28 ar
    30   34   33 1
    31   35    8 1
    32   36   35 1
    33   37   17 ar
    34   38   37 1
    35   39   20 1
    36   40   39 1
    37   41   30 1
    38   42   41 1
    39   43   41 1
    40   44   41 1
    41    8   11 ar
    42   12   14 ar
    43   19   23 ar
    44   33   37 ar
    45   35   39 2
@<TRIPOS>SUBSTRUCTURE
     1 RES1 1

@<TRIPOS>CRYSIN
   8.0250    8.4150   14.3510  87.6330  83.5140  61.7600   2 1

