# MOL2 file generated by ConQuest
# Please check atom types

@<TRIPOS>MOLECULE
HAMKUD
    47    50     1
SMALL
NO_CHARGES
****
Generated from CSD

@<TRIPOS>ATOM
      1 O1         6.1040   10.7017    2.4821 O.3       1 RES1    0.0000
      2 N1         7.5352   11.6970   -0.5173 N.pl3     1 RES1    0.0000
      3 H1         8.2687   11.4988   -0.6898 H         1 RES1    0.0000
      4 N2         8.0767   10.6080    1.4948 N.2       1 RES1    0.0000
      5 N3         5.9281   11.3155    1.1946 N.2       1 RES1    0.0000
      6 C1         7.1362   11.2216    0.6976 C.2       1 RES1    0.0000
      7 C2         7.3867   10.3169    2.5600 C.2       1 RES1    0.0000
      8 C3         6.8084   12.3851   -1.4971 C.ar      1 RES1    0.0000
      9 C4         5.4543   12.5610   -1.4148 C.ar      1 RES1    0.0000
     10 H2         4.9766   12.2200   -0.6678 H         1 RES1    0.0000
     11 C5         4.7685   13.2463   -2.4346 C.ar      1 RES1    0.0000
     12 H3         3.8278   13.3659   -2.3664 H         1 RES1    0.0000
     13 C6         5.4287   13.7409   -3.5186 C.ar      1 RES1    0.0000
     14 H4         4.9459   14.1912   -4.2013 H         1 RES1    0.0000
     15 C7         6.8303   13.5880   -3.6330 C.ar      1 RES1    0.0000
     16 C8         7.5475   14.1045   -4.7398 C.ar      1 RES1    0.0000
     17 H5         7.0735   14.5398   -5.4382 H         1 RES1    0.0000
     18 C9         8.8962   13.9893   -4.8237 C.ar      1 RES1    0.0000
     19 H6         9.3559   14.3395   -5.5777 H         1 RES1    0.0000
     20 C10        9.6137   13.3543   -3.7976 C.ar      1 RES1    0.0000
     21 H7        10.5593   13.2898   -3.8502 H         1 RES1    0.0000
     22 C11        8.9549   12.8284   -2.7262 C.ar      1 RES1    0.0000
     23 H8         9.4540   12.3943   -2.0450 H         1 RES1    0.0000
     24 C12        7.5455   12.9117   -2.6007 C.ar      1 RES1    0.0000
     25 C13        7.8297    9.6169    3.7561 C.ar      1 RES1    0.0000
     26 C14        6.9687    9.3721    4.8174 C.ar      1 RES1    0.0000
     27 H9         6.0836    9.7159    4.7955 H         1 RES1    0.0000
     28 C15        7.3873    8.6339    5.9014 C.ar      1 RES1    0.0000
     29 H10        6.7827    8.4739    6.6163 H         1 RES1    0.0000
     30 C16        8.6819    8.1145    5.9743 C.ar      1 RES1    0.0000
     31 C17        9.5444    8.4072    4.9279 C.ar      1 RES1    0.0000
     32 H11       10.4424    8.0973    4.9655 H         1 RES1    0.0000
     33 C18        9.1252    9.1440    3.8243 C.ar      1 RES1    0.0000
     34 H12        9.7332    9.3233    3.1157 H         1 RES1    0.0000
     35 C19        9.1003    7.2471    7.1681 C.3       1 RES1    0.0000
     36 C20       10.4877    6.6493    7.0043 C.3       1 RES1    0.0000
     37 H13       11.1412    7.3701    6.8844 H         1 RES1    0.0000
     38 H14       10.4998    6.0639    6.2189 H         1 RES1    0.0000
     39 H15       10.7159    6.1300    7.8030 H         1 RES1    0.0000
     40 C21        9.0745    8.0776    8.4387 C.3       1 RES1    0.0000
     41 H16        9.7367    8.7964    8.3721 H         1 RES1    0.0000
     42 H17        9.2883    7.5063    9.2061 H         1 RES1    0.0000
     43 H18        8.1830    8.4639    8.5570 H         1 RES1    0.0000
     44 C22        8.1223    6.0577    7.2739 C.3       1 RES1    0.0000
     45 H19        7.2188    6.3925    7.4526 H         1 RES1    0.0000
     46 H20        8.4027    5.4690    8.0052 H         1 RES1    0.0000
     47 H21        8.1253    5.5571    6.4313 H         1 RES1    0.0000
@<TRIPOS>BOND
     1    1    5 1
     2    2    3 1
     3    4    6 1
     4    5    6 2
     5    6    2 1
     6    7    1 1
     7    8    2 1
     8    9    8 ar
     9   10    9 1
    10   11    9 ar
    11   12   11 1
    12   13   11 ar
    13   14   13 1
    14   15   13 ar
    15   16   15 ar
    16   17   16 1
    17   18   16 ar
    18   19   18 1
    19   20   18 ar
    20   21   20 1
    21   22   20 ar
    22   23   22 1
    23   24    8 ar
    24   25    7 1
    25   26   25 ar
    26   27   26 1
    27   28   26 ar
    28   29   28 1
    29   30   28 ar
    30   31   30 ar
    31   32   31 1
    32   33   25 ar
    33   34   33 1
    34   35   30 1
    35   36   35 1
    36   37   36 1
    37   38   36 1
    38   39   36 1
    39   40   35 1
    40   41   40 1
    41   42   40 1
    42   43   40 1
    43   44   35 1
    44   45   44 1
    45   46   44 1
    46   47   44 1
    47    4    7 2
    48   15   24 ar
    49   22   24 ar
    50   31   33 ar
@<TRIPOS>SUBSTRUCTURE
     1 RES1 1

@<TRIPOS>CRYSIN
  11.4037   20.0328    7.9932  90.0000 101.2990  90.0000  14 1

