# MOL2 file generated by ConQuest
# Please check atom types

@<TRIPOS>MOLECULE
HAMYIG
    48    50     1
SMALL
NO_CHARGES
****
Generated from CSD

@<TRIPOS>ATOM
      1 O1         2.2924    0.6654   -5.7557 O.2       1 RES1    0.0000
      2 O2         2.4842   -1.1426   -4.6645 O.2       1 RES1    0.0000
      3 O3         5.4564   -1.4852   -1.0106 O.2       1 RES1    0.0000
      4 O4         6.9609    2.8490    1.0413 O.2       1 RES1    0.0000
      5 O5         8.3959    2.6337    2.7955 O.3       1 RES1    0.0000
      6 N1         2.6839    0.0420   -4.8043 N.pl3     1 RES1    0.0000
      7 N2         6.3202    0.3210    0.0739 N.am      1 RES1    0.0000
      8 H1         6.3545    1.2103    0.0504 H         1 RES1    0.0000
      9 N3         8.1386   -3.5969    2.2366 N.3       1 RES1    0.0000
     10 N4         8.5757    0.4074    2.9704 N.2       1 RES1    0.0000
     11 C1         4.8929    0.6300   -1.8681 C.ar      1 RES1    0.0000
     12 C2         4.1224   -0.0019   -2.8406 C.ar      1 RES1    0.0000
     13 H2         4.0529   -0.9292   -2.8539 H         1 RES1    0.0000
     14 C3         3.4705    0.7511   -3.7752 C.ar      1 RES1    0.0000
     15 C4         3.5363    2.1272   -3.8057 C.ar      1 RES1    0.0000
     16 H3         3.0914    2.6155   -4.4605 H         1 RES1    0.0000
     17 C5         4.2887    2.7596   -2.8263 C.ar      1 RES1    0.0000
     18 H4         4.3424    3.6875   -2.8138 H         1 RES1    0.0000
     19 C6         4.9595    2.0200   -1.8665 C.ar      1 RES1    0.0000
     20 H5         5.4598    2.4562   -1.2150 H         1 RES1    0.0000
     21 C7         5.5797   -0.2811   -0.9004 C.2       1 RES1    0.0000
     22 C8         7.1039   -0.2537    1.0769 C.2       1 RES1    0.0000
     23 C9         7.2402   -1.6540    1.1590 C.2       1 RES1    0.0000
     24 H6         6.8161   -2.1752    0.5157 H         1 RES1    0.0000
     25 C10        7.9653   -2.2903    2.1369 C.2       1 RES1    0.0000
     26 H7         8.3685   -1.7570    2.7828 H         1 RES1    0.0000
     27 C11        7.5984   -4.5215    1.2576 C.3       1 RES1    0.0000
     28 H8         7.8300   -5.4203    1.5032 H         1 RES1    0.0000
     29 H9         6.6430   -4.4344    1.2266 H         1 RES1    0.0000
     30 H10        7.9659   -4.3230    0.3929 H         1 RES1    0.0000
     31 C12        8.9441   -4.1745    3.2936 C.3       1 RES1    0.0000
     32 H11        8.9527   -5.1303    3.2029 H         1 RES1    0.0000
     33 H12        9.8414   -3.8389    3.2326 H         1 RES1    0.0000
     34 H13        8.5710   -3.9372    4.1464 H         1 RES1    0.0000
     35 C13        7.7112    0.6920    1.9110 C.2       1 RES1    0.0000
     36 C14        7.5860    2.1046    1.7880 C.2       1 RES1    0.0000
     37 C15        8.9379    1.5465    3.4421 C.2       1 RES1    0.0000
     38 C16        9.8530    1.7872    4.5455 C.ar      1 RES1    0.0000
     39 C17       10.2708    0.7278    5.3361 C.ar      1 RES1    0.0000
     40 H14        9.9596   -0.1315    5.1650 H         1 RES1    0.0000
     41 C18       11.1519    0.9499    6.3814 C.ar      1 RES1    0.0000
     42 H15       11.4330    0.2374    6.9086 H         1 RES1    0.0000
     43 C19       11.6142    2.2253    6.6459 C.ar      1 RES1    0.0000
     44 H16       12.2106    2.3674    7.3455 H         1 RES1    0.0000
     45 C20       11.1929    3.2810    5.8791 C.ar      1 RES1    0.0000
     46 H17       11.4921    4.1406    6.0684 H         1 RES1    0.0000
     47 C21       10.3234    3.0669    4.8222 C.ar      1 RES1    0.0000
     48 H18       10.0522    3.7824    4.2938 H         1 RES1    0.0000
@<TRIPOS>BOND
     1    1    6 2
     2    2    6 2
     3    3   21 2
     4    4   36 2
     5    5   36 1
     6    6   14 1
     7    7    8 1
     8    9   25 1
     9   10   35 1
    10   11   12 ar
    11   12   13 1
    12   14   12 ar
    13   15   14 ar
    14   16   15 1
    15   17   15 ar
    16   18   17 1
    17   19   11 ar
    18   20   19 1
    19   21    7 1
    20   22    7 1
    21   23   22 1
    22   24   23 1
    23   25   23 2
    24   26   25 1
    25   27    9 1
    26   28   27 1
    27   29   27 1
    28   30   27 1
    29   31    9 1
    30   32   31 1
    31   33   31 1
    32   34   31 1
    33   35   22 2
    34   36   35 1
    35   37    5 1
    36   38   37 1
    37   39   38 ar
    38   40   39 1
    39   41   39 ar
    40   42   41 1
    41   43   41 ar
    42   44   43 1
    43   45   43 ar
    44   46   45 1
    45   47   38 ar
    46   48   47 1
    47   10   37 2
    48   11   21 1
    49   17   19 ar
    50   45   47 ar
@<TRIPOS>SUBSTRUCTURE
     1 RES1 1

@<TRIPOS>CRYSIN
   8.3318    9.7585   13.4755  97.5810 100.3000 112.9810   2 1

