# MOL2 file generated by ConQuest
# Please check atom types

@<TRIPOS>MOLECULE
HAMYAY
    39    41     1
SMALL
NO_CHARGES
****
Generated from CSD

@<TRIPOS>ATOM
      1 O1         7.1582    5.1146   11.4648 O.2       1 RES1    0.0000
      2 O2         6.6734    5.8379    9.5059 O.2       1 RES1    0.0000
      3 O3         2.1479    6.1882    8.0775 O.2       1 RES1    0.0000
      4 O4        -1.3687    6.5005   11.7117 O.2       1 RES1    0.0000
      5 O5        -3.5042    6.3876   10.9396 O.3       1 RES1    0.0000
      6 N1         6.3627    5.5129   10.6407 N.pl3     1 RES1    0.0000
      7 N2         0.4127    6.2510    9.5597 N.am      1 RES1    0.0000
      8 N3        -3.1554    6.2344    8.7124 N.2       1 RES1    0.0000
      9 C1         2.2953    5.6637   11.6717 C.ar      1 RES1    0.0000
     10 H1         1.3950    5.6932   11.9056 H         1 RES1    0.0000
     11 C2         3.2436    5.3559   12.6267 C.ar      1 RES1    0.0000
     12 H2         2.9733    5.1914   13.5009 H         1 RES1    0.0000
     13 C3         4.5776    5.2894   12.3116 C.ar      1 RES1    0.0000
     14 H3         5.2141    5.0611   12.9504 H         1 RES1    0.0000
     15 C4         4.9395    5.5726   11.0173 C.ar      1 RES1    0.0000
     16 C5         4.0254    5.9016   10.0497 C.ar      1 RES1    0.0000
     17 H4         4.3088    6.1053    9.1879 H         1 RES1    0.0000
     18 C6         2.6762    5.9277   10.3675 C.ar      1 RES1    0.0000
     19 C7         1.7417    6.1464    9.2145 C.2       1 RES1    0.0000
     20 C8        -0.6950    6.2314    8.7459 C.2       1 RES1    0.0000
     21 C9        -0.5690    6.1121    7.2759 C.3       1 RES1    0.0000
     22 H5        -1.4163    5.8605    6.9021 H         1 RES1    0.0000
     23 H6         0.0868    5.4430    7.0639 H         1 RES1    0.0000
     24 H7        -0.2944    6.9561    6.9084 H         1 RES1    0.0000
     25 C10       -1.9125    6.2993    9.3545 C.2       1 RES1    0.0000
     26 C11       -2.1311    6.4056   10.7780 C.2       1 RES1    0.0000
     27 C12       -4.0241    6.2808    9.6569 C.2       1 RES1    0.0000
     28 C13       -5.4760    6.2033    9.5232 C.ar      1 RES1    0.0000
     29 C14       -6.3040    6.2122   10.6421 C.ar      1 RES1    0.0000
     30 H8        -5.9409    6.2897   11.4941 H         1 RES1    0.0000
     31 C15       -7.6728    6.1039   10.4754 C.ar      1 RES1    0.0000
     32 H9        -8.2298    6.1094   11.2202 H         1 RES1    0.0000
     33 C16       -8.2135    5.9894    9.2261 C.ar      1 RES1    0.0000
     34 H10       -9.1352    5.9147    9.1255 H         1 RES1    0.0000
     35 C17       -7.3974    5.9839    8.1111 C.ar      1 RES1    0.0000
     36 H11       -7.7696    5.9058    7.2626 H         1 RES1    0.0000
     37 C18       -6.0305    6.0943    8.2567 C.ar      1 RES1    0.0000
     38 H12       -5.4819    6.0950    7.5060 H         1 RES1    0.0000
     39 H13        0.1978    6.2938   10.4085 H         1 RES1    0.0000
@<TRIPOS>BOND
     1    1    6 2
     2    2    6 2
     3    3   19 2
     4    4   26 2
     5    5   26 1
     6    6   15 1
     7    7   19 1
     8    8   25 1
     9    9   10 1
    10   11    9 ar
    11   12   11 1
    12   13   11 ar
    13   14   13 1
    14   15   13 ar
    15   16   15 ar
    16   17   16 1
    17   18    9 ar
    18   19   18 1
    19   20    7 1
    20   21   20 1
    21   22   21 1
    22   23   21 1
    23   24   21 1
    24   25   20 2
    25   26   25 1
    26   27    5 1
    27   28   27 1
    28   29   28 ar
    29   30   29 1
    30   31   29 ar
    31   32   31 1
    32   33   31 ar
    33   34   33 1
    34   35   33 ar
    35   36   35 1
    36   37   28 ar
    37   38   37 1
    38   39    7 1
    39    8   27 2
    40   16   18 ar
    41   35   37 ar
@<TRIPOS>SUBSTRUCTURE
     1 RES1 1

@<TRIPOS>CRYSIN
  18.4263    6.8560   13.3842  90.0000 107.8280  90.0000  14 1

