# MOL2 file generated by ConQuest
# Please check atom types

@<TRIPOS>MOLECULE
HANCUW
    94    98     2
SMALL
NO_CHARGES
****
Generated from CSD

@<TRIPOS>ATOM
      1 C1        18.4176    8.5820    7.9897 C.ar      1 RES1    0.0000
      2 H1        18.0329    7.7703    7.7511 H         1 RES1    0.0000
      3 C2        19.6553    8.6121    8.5993 C.ar      1 RES1    0.0000
      4 H2        20.0882    7.8099    8.7813 H         1 RES1    0.0000
      5 C3        20.2708    9.8033    8.9467 C.ar      1 RES1    0.0000
      6 C4        21.6249    9.8090    9.6028 C.3       1 RES1    0.0000
      7 H3        22.3042    9.6962    8.9344 H         1 RES1    0.0000
      8 H4        21.6758    9.0895   10.2363 H         1 RES1    0.0000
      9 H5        21.7572   10.6449   10.0566 H         1 RES1    0.0000
     10 C5        19.5928   10.9778    8.6832 C.ar      1 RES1    0.0000
     11 H6        19.9862   11.7895    8.9105 H         1 RES1    0.0000
     12 C6        18.3397   10.9749    8.0882 C.ar      1 RES1    0.0000
     13 H7        17.8966   11.7767    7.9281 H         1 RES1    0.0000
     14 C7        17.7526    9.7721    7.7352 C.ar      1 RES1    0.0000
     15 C8        16.0673   10.3237    5.9708 C.2       1 RES1    0.0000
     16 C9        14.7744   10.2645    5.5390 C.2       1 RES1    0.0000
     17 C10       14.4325   10.8259    4.2829 C.1       1 RES1    0.0000
     18 C11       13.6302    9.6091    6.2990 C.3       1 RES1    0.0000
     19 H8        13.1980    8.9628    5.7038 H         1 RES1    0.0000
     20 C12       14.1979    8.8595    7.4777 C.2       1 RES1    0.0000
     21 C13       15.4741    8.9613    7.8481 C.2       1 RES1    0.0000
     22 H9        15.7476    8.4831    8.5977 H         1 RES1    0.0000
     23 C14       13.3534    7.9427    8.2609 C.2       1 RES1    0.0000
     24 C15       11.3512    6.6886    8.2582 C.3       1 RES1    0.0000
     25 H10       11.7950    5.8379    8.2156 H         1 RES1    0.0000
     26 H11       10.5142    6.6376    7.7910 H         1 RES1    0.0000
     27 H12       11.1916    6.9204    9.1767 H         1 RES1    0.0000
     28 C16       12.5835   10.6454    6.7242 C.ar      1 RES1    0.0000
     29 C17       11.4015   10.7872    6.0189 C.ar      1 RES1    0.0000
     30 H13       11.2146   10.2392    5.2912 H         1 RES1    0.0000
     31 C18       10.5002   11.7633    6.4202 C.ar      1 RES1    0.0000
     32 C19       10.7254   12.5990    7.4871 C.ar      1 RES1    0.0000
     33 H14       10.1004   13.2442    7.7298 H         1 RES1    0.0000
     34 C20       11.8999   12.4549    8.1865 C.ar      1 RES1    0.0000
     35 H15       12.0770   13.0019    8.9171 H         1 RES1    0.0000
     36 C21       12.8182   11.4934    7.8009 C.ar      1 RES1    0.0000
     37 H16       13.6141   11.4122    8.2755 H         1 RES1    0.0000
     38 C22        8.2246    3.8859    1.5143 C.ar      2 RES2    0.0000
     39 H17        8.6977    4.6790    1.4017 H         2 RES2    0.0000
     40 C23        6.9596    3.8960    2.0904 C.ar      2 RES2    0.0000
     41 H18        6.5893    4.7062    2.3574 H         2 RES2    0.0000
     42 C24        6.2378    2.7278    2.2755 C.ar      2 RES2    0.0000
     43 C25        4.8784    2.7474    2.9290 C.3       2 RES2    0.0000
     44 H19        4.6820    3.6368    3.2319 H         2 RES2    0.0000
     45 H20        4.8743    2.1451    3.6765 H         2 RES2    0.0000
     46 H21        4.2136    2.4715    2.2935 H         2 RES2    0.0000
     47 C26        6.8170    1.5350    1.8722 C.ar      2 RES2    0.0000
     48 H22        6.3527    0.7390    1.9967 H         2 RES2    0.0000
     49 C27        8.0710    1.5020    1.2896 C.ar      2 RES2    0.0000
     50 H23        8.4418    0.6934    1.0196 H         2 RES2    0.0000
     51 C28        8.7697    2.6846    1.1123 C.ar      2 RES2    0.0000
     52 C29       10.5016    3.2002   -0.6198 C.2       2 RES2    0.0000
     53 C30       11.7699    3.0186   -1.0841 C.2       2 RES2    0.0000
     54 C31       12.1098    3.6331   -2.3205 C.1       2 RES2    0.0000
     55 C32       12.8804    2.2687   -0.3581 C.3       2 RES2    0.0000
     56 H24       13.2176    1.5622   -0.9478 H         2 RES2    0.0000
     57 C33       12.2909    1.6233    0.8807 C.2       2 RES2    0.0000
     58 C34       11.0270    1.8283    1.2584 C.2       2 RES2    0.0000
     59 H25       10.7370    1.4013    2.0326 H         2 RES2    0.0000
     60 C35       13.0916    0.7540    1.7517 C.2       2 RES2    0.0000
     61 C36       15.1004   -0.4195    2.0540 C.3       2 RES2    0.0000
     62 H26       15.2504    0.0236    2.8925 H         2 RES2    0.0000
     63 H27       15.9416   -0.5700    1.6173 H         2 RES2    0.0000
     64 H28       14.6660   -1.2617    2.2110 H         2 RES2    0.0000
     65 C37       14.0255    3.2204   -0.0334 C.ar      2 RES2    0.0000
     66 C38       15.2070    3.1686   -0.7571 C.ar      2 RES2    0.0000
     67 H29       15.3357    2.5162   -1.4070 H         2 RES2    0.0000
     68 C39       16.1925    4.1043   -0.4944 C.ar      2 RES2    0.0000
     69 C40       16.0628    5.0778    0.4526 C.ar      2 RES2    0.0000
     70 H30       16.7400    5.6994    0.5963 H         2 RES2    0.0000
     71 C41       14.8965    5.1136    1.1919 C.ar      2 RES2    0.0000
     72 H31       14.7879    5.7532    1.8582 H         2 RES2    0.0000
     73 C42       13.8897    4.1972    0.9427 C.ar      2 RES2    0.0000
     74 H32       13.1044    4.2367    1.4403 H         2 RES2    0.0000
     75 N1        16.4185    9.7299    7.1944 N.pl3     1 RES1    0.0000
     76 N2        17.0770   10.9083    5.2868 N.3       1 RES1    0.0000
     77 N3        14.0821   11.2791    3.2873 N.1       1 RES1    0.0000
     78 N4         9.2460   11.9095    5.6745 N.pl3     1 RES1    0.0000
     79 N5        10.1176    2.6214    0.5946 N.pl3     2 RES2    0.0000
     80 N6         9.5542    3.9276   -1.2662 N.3       2 RES2    0.0000
     81 N7        12.3993    4.1517   -3.2985 N.1       2 RES2    0.0000
     82 N8        17.4624    4.0121   -1.2552 N.pl3     2 RES2    0.0000
     83 O1        13.6466    7.4504    9.3205 O.2       1 RES1    0.0000
     84 O2        12.1855    7.6994    7.6436 O.3       1 RES1    0.0000
     85 O3         8.9909   11.1029    4.8200 O.2       1 RES1    0.0000
     86 O4         8.4967   12.8214    5.9349 O.2       1 RES1    0.0000
     87 O5        12.7558    0.4027    2.8599 O.2       2 RES2    0.0000
     88 O6        14.2611    0.4067    1.2138 O.3       2 RES2    0.0000
     89 O7        17.6211    3.0775   -1.9740 O.2       2 RES2    0.0000
     90 O8        18.2920    4.8811   -1.1183 O.2       2 RES2    0.0000
     91 H33        8.6417    3.9332   -0.9517 H         2 RES2    0.0000
     92 H34       16.8601   11.2838    4.4858 H         1 RES1    0.0000
     93 H35        9.6802    4.1397   -2.0765 H         2 RES2    0.0000
     94 H36       17.9576   10.9915    5.6040 H         1 RES1    0.0000
@<TRIPOS>BOND
     1    1    2 1
     2    3    1 ar
     3    4    3 1
     4    5    3 ar
     5    6    5 1
     6    7    6 1
     7    8    6 1
     8    9    6 1
     9   10    5 ar
    10   11   10 1
    11   12   10 ar
    12   13   12 1
    13   14    1 ar
    14   15   16 2
    15   16   17 1
    16   17   77 3
    17   18   16 1
    18   19   18 1
    19   20   18 1
    20   21   20 2
    21   22   21 1
    22   23   20 1
    23   24   25 1
    24   26   24 1
    25   27   24 1
    26   28   18 1
    27   29   28 ar
    28   30   29 1
    29   31   29 ar
    30   32   31 ar
    31   33   32 1
    32   34   32 ar
    33   35   34 1
    34   36   28 ar
    35   37   36 1
    36   38   39 1
    37   40   38 ar
    38   41   40 1
    39   42   40 ar
    40   43   42 1
    41   44   43 1
    42   45   43 1
    43   46   43 1
    44   47   42 ar
    45   48   47 1
    46   49   47 ar
    47   50   49 1
    48   51   38 ar
    49   52   53 2
    50   53   54 1
    51   54   81 3
    52   55   53 1
    53   56   55 1
    54   57   55 1
    55   58   57 2
    56   59   58 1
    57   60   57 1
    58   61   62 1
    59   63   61 1
    60   64   61 1
    61   65   55 1
    62   66   65 ar
    63   67   66 1
    64   68   66 ar
    65   69   68 ar
    66   70   69 1
    67   71   69 ar
    68   72   71 1
    69   73   65 ar
    70   74   73 1
    71   75   14 1
    72   76   15 1
    73   78   31 1
    74   79   51 1
    75   80   52 1
    76   82   68 1
    77   83   23 2
    78   84   23 1
    79   85   78 2
    80   86   78 2
    81   87   60 2
    82   88   60 1
    83   89   82 2
    84   90   82 2
    85   91   80 1
    86   92   76 1
    87   93   80 1
    88   94   76 1
    89   12   14 ar
    90   15   75 1
    91   21   75 1
    92   24   84 1
    93   34   36 ar
    94   49   51 ar
    95   52   79 1
    96   58   79 1
    97   61   88 1
    98   71   73 ar
@<TRIPOS>SUBSTRUCTURE
     1 RES1 1
     2 RES2 38

@<TRIPOS>CRYSIN
  11.9790   12.8210   14.2040  74.7810  72.2580  70.3720   2 1

