# MOL2 file generated by ConQuest
# Please check atom types

@<TRIPOS>MOLECULE
HANDEH
    55    57     1
SMALL
NO_CHARGES
****
Generated from CSD

@<TRIPOS>ATOM
      1 C1         8.9562    2.0016    2.3535 C.ar      1 RES1    0.0000
      2 H1         8.4971    2.0647    1.5484 H         1 RES1    0.0000
      3 C2         8.5094    1.1507    3.3622 C.ar      1 RES1    0.0000
      4 C3         9.1443    1.0258    4.5752 C.ar      1 RES1    0.0000
      5 H2         8.8247    0.4455    5.2270 H         1 RES1    0.0000
      6 C4        10.2706    1.7886    4.7931 C.ar      1 RES1    0.0000
      7 H3        10.7174    1.7327    5.6072 H         1 RES1    0.0000
      8 C5        10.7411    2.6450    3.8051 C.ar      1 RES1    0.0000
      9 H4        11.4997    3.1563    3.9691 H         1 RES1    0.0000
     10 C6        10.1023    2.7519    2.5759 C.ar      1 RES1    0.0000
     11 C7        10.6708    3.6593    1.4794 C.3       1 RES1    0.0000
     12 H5        11.4450    4.1311    1.8487 H         1 RES1    0.0000
     13 C8        11.1437    2.8380    0.2914 C.2       1 RES1    0.0000
     14 C9        12.3534    2.0235    0.4752 C.2       1 RES1    0.0000
     15 C10       13.9207    0.5606   -0.5335 C.3       1 RES1    0.0000
     16 H6        14.6848    1.1277   -0.4079 H         1 RES1    0.0000
     17 H7        14.0296    0.0510   -1.3395 H         1 RES1    0.0000
     18 H8        13.8380   -0.0362    0.2143 H         1 RES1    0.0000
     19 C11       10.4856    2.8372   -0.8634 C.2       1 RES1    0.0000
     20 H9        10.7908    2.2735   -1.5376 H         1 RES1    0.0000
     21 C12        8.8369    3.6115   -2.4692 C.ar      1 RES1    0.0000
     22 C13        7.6977    2.9113   -2.7498 C.ar      1 RES1    0.0000
     23 H10        7.2484    2.4478   -2.0810 H         1 RES1    0.0000
     24 C14        7.2178    2.9081   -4.0678 C.ar      1 RES1    0.0000
     25 H11        6.4453    2.4330   -4.2695 H         1 RES1    0.0000
     26 C15        7.8618    3.5837   -5.0558 C.ar      1 RES1    0.0000
     27 C16        7.3106    3.5936   -6.4814 C.3       1 RES1    0.0000
     28 H12        7.9203    4.0621   -7.0570 H         1 RES1    0.0000
     29 H13        6.4576    4.0358   -6.4921 H         1 RES1    0.0000
     30 H14        7.2066    2.6911   -6.7907 H         1 RES1    0.0000
     31 C17        9.0081    4.2741   -4.7537 C.ar      1 RES1    0.0000
     32 H15        9.4521    4.7394   -5.4252 H         1 RES1    0.0000
     33 C18        9.5138    4.2889   -3.4653 C.ar      1 RES1    0.0000
     34 H16       10.2987    4.7492   -3.2725 H         1 RES1    0.0000
     35 C19        9.0241    4.6156   -0.2098 C.2       1 RES1    0.0000
     36 C20        9.6614    4.7071    1.0060 C.2       1 RES1    0.0000
     37 C21        9.3613    5.8194    1.8658 C.2       1 RES1    0.0000
     38 C22        9.8847    6.9225    3.9243 C.3       1 RES1    0.0000
     39 H17       10.2118    6.6562    4.7976 H         1 RES1    0.0000
     40 H18        8.9274    7.0671    3.9898 H         1 RES1    0.0000
     41 C23       10.5597    8.1833    3.4904 C.3       1 RES1    0.0000
     42 H19       11.4929    8.0124    3.3451 H         1 RES1    0.0000
     43 H20       10.4589    8.8508    4.1718 H         1 RES1    0.0000
     44 H21       10.1622    8.4957    2.6745 H         1 RES1    0.0000
     45 N1         7.2894    0.3714    3.1255 N.pl3     1 RES1    0.0000
     46 N2         9.3750    3.6195   -1.1270 N.pl3     1 RES1    0.0000
     47 N3         8.0462    5.4528   -0.6106 N.3       1 RES1    0.0000
     48 O1         6.6208    0.5902    2.1464 O.2       1 RES1    0.0000
     49 O2         6.9807   -0.4948    3.9503 O.2       1 RES1    0.0000
     50 O3        12.9565    1.9487    1.5233 O.2       1 RES1    0.0000
     51 O4        12.7340    1.3685   -0.6339 O.3       1 RES1    0.0000
     52 O5         8.4805    6.6705    1.6981 O.2       1 RES1    0.0000
     53 O6        10.1610    5.8704    2.9497 O.3       1 RES1    0.0000
     54 H22        7.7958    5.4413   -1.4076 H         1 RES1    0.0000
     55 H23        7.8701    6.0989    0.0090 H         1 RES1    0.0000
@<TRIPOS>BOND
     1    1    2 1
     2    3    1 ar
     3    4    3 ar
     4    5    4 1
     5    6    4 ar
     6    7    6 1
     7    8    6 ar
     8    9    8 1
     9   10    1 ar
    10   11   10 1
    11   12   11 1
    12   13   11 1
    13   14   13 1
    14   15   16 1
    15   17   15 1
    16   18   15 1
    17   19   13 2
    18   20   19 1
    19   21   22 ar
    20   22   23 1
    21   24   22 ar
    22   25   24 1
    23   26   24 ar
    24   27   26 1
    25   28   27 1
    26   29   27 1
    27   30   27 1
    28   31   26 ar
    29   32   31 1
    30   33   21 ar
    31   34   33 1
    32   35   36 2
    33   36   11 1
    34   37   36 1
    35   38   39 1
    36   40   38 1
    37   41   38 1
    38   42   41 1
    39   43   41 1
    40   44   41 1
    41   45    3 1
    42   46   19 1
    43   47   35 1
    44   48   45 2
    45   49   45 2
    46   50   14 2
    47   51   14 1
    48   52   37 2
    49   53   37 1
    50   54   47 1
    51   55   47 1
    52    8   10 ar
    53   15   51 1
    54   21   46 1
    55   31   33 ar
    56   35   46 1
    57   38   53 1
@<TRIPOS>SUBSTRUCTURE
     1 RES1 1

@<TRIPOS>CRYSIN
  14.8250   16.4390    9.1795  90.0000 102.3880  90.0000   9 1

