# MOL2 file generated by ConQuest
# Please check atom types

@<TRIPOS>MOLECULE
HANGAG
   155   158     1
SMALL
NO_CHARGES
****
Generated from CSD

@<TRIPOS>ATOM
      1 C1        13.5612    2.5075   12.7690 C.ar      1 RES1    0.0000
      2 C2        14.1304    2.8502   13.9893 C.ar      1 RES1    0.0000
      3 H1        13.5869    3.0862   14.7072 H         1 RES1    0.0000
      4 C3        15.5124    2.8376   14.1389 C.ar      1 RES1    0.0000
      5 H2        15.8935    3.0672   14.9566 H         1 RES1    0.0000
      6 C4        16.3251    2.4858   13.0683 C.ar      1 RES1    0.0000
      7 H3        17.2503    2.4795   13.1681 H         1 RES1    0.0000
      8 C5        15.7554    2.1445   11.8481 C.ar      1 RES1    0.0000
      9 H4        16.2988    1.9086   11.1302 H         1 RES1    0.0000
     10 C6        14.3733    2.1548   11.6984 C.ar      1 RES1    0.0000
     11 C7        13.5343    1.8959   10.5672 C.ar      1 RES1    0.0000
     12 C8        13.8652    1.5757    9.2561 C.ar      1 RES1    0.0000
     13 H5        14.7594    1.4915    9.0085 H         1 RES1    0.0000
     14 C9        12.8633    1.3798    8.3138 C.ar      1 RES1    0.0000
     15 H6        13.0851    1.1649    7.4355 H         1 RES1    0.0000
     16 C10       11.5292    1.5041    8.6807 C.ar      1 RES1    0.0000
     17 H7        10.8584    1.3735    8.0501 H         1 RES1    0.0000
     18 C11       11.1967    1.8243    9.9918 C.ar      1 RES1    0.0000
     19 H8        10.3041    1.9086   10.2395 H         1 RES1    0.0000
     20 C12       12.1985    2.0215   10.9349 C.ar      1 RES1    0.0000
     21 C13       12.1193    2.3236   12.4110 C.3       1 RES1    0.0000
     22 H9        11.8314    1.4915   12.8456 H         1 RES1    0.0000
     23 C14       11.1429    3.3916   12.8545 C.3       1 RES1    0.0000
     24 H10       10.2426    3.1178   12.6212 H         1 RES1    0.0000
     25 H11       11.1867    3.4801   13.8201 H         1 RES1    0.0000
     26 O1        11.4222    4.6792   12.2453 O.3       1 RES1    0.0000
     27 C15       10.3876    5.2665   11.6076 C.2       1 RES1    0.0000
     28 O2         9.3270    4.7369   11.3795 O.2       1 RES1    0.0000
     29 N1        10.7089    6.5334   11.2549 N.am      1 RES1    0.0000
     30 H12       11.5009    6.8296   11.4027 H         1 RES1    0.0000
     31 C16        9.7039    7.4089   10.6225 C.3       1 RES1    0.0000
     32 C17       10.4400    8.6687   10.1290 C.3       1 RES1    0.0000
     33 H13       11.2159    8.8077   10.6937 H         1 RES1    0.0000
     34 H14       10.7622    8.5001    9.2294 H         1 RES1    0.0000
     35 C18        9.6180    9.9642   10.1112 C.3       1 RES1    0.0000
     36 N2         9.0497   10.1686   11.4455 N.3       1 RES1    0.0000
     37 O3         8.7541   11.3584   11.8160 O.2       1 RES1    0.0000
     38 C19        8.7679    9.0689   12.3967 C.3       1 RES1    0.0000
     39 C20        8.5792    7.7670   11.5737 C.3       1 RES1    0.0000
     40 H15        8.4605    7.0297   12.1936 H         1 RES1    0.0000
     41 H16        7.7601    7.8471   11.0607 H         1 RES1    0.0000
     42 C21       10.5663   11.1228    9.7870 C.3       1 RES1    0.0000
     43 H17       10.1216   11.9571    9.9509 H         1 RES1    0.0000
     44 H18       10.8255   11.0744    8.8624 H         1 RES1    0.0000
     45 H19       11.3474   11.0618   10.3410 H         1 RES1    0.0000
     46 C22        8.4726    9.9389    9.0994 C.3       1 RES1    0.0000
     47 H20        7.9365    9.1574    9.2437 H         1 RES1    0.0000
     48 H21        8.8318    9.9242    8.2087 H         1 RES1    0.0000
     49 H22        7.9295   10.7247    9.2116 H         1 RES1    0.0000
     50 C23        9.9326    8.9868   13.3818 C.3       1 RES1    0.0000
     51 H23       10.7356    8.7571   12.9098 H         1 RES1    0.0000
     52 H24        9.7450    8.3169   14.0445 H         1 RES1    0.0000
     53 H25       10.0479    9.8378   13.8112 H         1 RES1    0.0000
     54 C24        7.4825    9.3596   13.1253 C.3       1 RES1    0.0000
     55 H26        7.6096   10.1096   13.7114 H         1 RES1    0.0000
     56 H27        7.2249    8.5928   13.6419 H         1 RES1    0.0000
     57 H28        6.7935    9.5640   12.4894 H         1 RES1    0.0000
     58 C25        9.1683    6.6547    9.3701 C.2       1 RES1    0.0000
     59 O4         7.9775    6.6950    9.0709 O.2       1 RES1    0.0000
     60 N3        10.0902    6.0186    8.6415 N.am      1 RES1    0.0000
     61 H29       10.8769    5.9385    8.9782 H         1 RES1    0.0000
     62 C26        9.8561    5.4519    7.3144 C.3       1 RES1    0.0000
     63 C27       11.1397    4.7757    6.8708 C.3       1 RES1    0.0000
     64 H30       11.8639    5.4055    6.9136 H         1 RES1    0.0000
     65 H31       11.0408    4.4618    5.9695 H         1 RES1    0.0000
     66 H32       11.3275    4.0341    7.4498 H         1 RES1    0.0000
     67 C28        9.4690    6.5621    6.3346 C.3       1 RES1    0.0000
     68 H33        8.5562    6.8191    6.4896 H         1 RES1    0.0000
     69 H34        9.5628    6.2419    5.4350 H         1 RES1    0.0000
     70 H35       10.0416    7.3204    6.4682 H         1 RES1    0.0000
     71 C29        8.7532    4.3775    7.3465 C.2       1 RES1    0.0000
     72 O5         8.2246    4.0478    6.2865 O.2       1 RES1    0.0000
     73 N4         8.4253    3.8340    8.5079 N.am      1 RES1    0.0000
     74 H36        8.8863    4.0384    9.2045 H         1 RES1    0.0000
     75 C30        7.2944    2.8839    8.6594 C.3       1 RES1    0.0000
     76 C31        6.9657    2.7533   10.1272 C.3       1 RES1    0.0000
     77 H37        7.7224    2.3910   10.5940 H         1 RES1    0.0000
     78 H38        6.2141    2.1656   10.2359 H         1 RES1    0.0000
     79 H39        6.7509    3.6170   10.4871 H         1 RES1    0.0000
     80 C32        7.6483    1.5210    8.0466 C.3       1 RES1    0.0000
     81 H40        7.9291    1.6431    7.1363 H         1 RES1    0.0000
     82 H41        6.8768    0.9501    8.0697 H         1 RES1    0.0000
     83 H42        8.3597    1.1186    8.5507 H         1 RES1    0.0000
     84 C33        6.0571    3.4506    7.9682 C.2       1 RES1    0.0000
     85 O6         5.2422    2.7049    7.4231 O.2       1 RES1    0.0000
     86 N5         5.8644    4.7693    8.0377 N.am      1 RES1    0.0000
     87 H43        6.4581    5.2454    8.4367 H         1 RES1    0.0000
     88 C34        4.6898    5.4582    7.4712 C.3       1 RES1    0.0000
     89 C35        5.0263    6.9581    7.4427 C.3       1 RES1    0.0000
     90 H44        5.1796    7.2699    8.3369 H         1 RES1    0.0000
     91 H45        4.2918    7.4426    7.0579 H         1 RES1    0.0000
     92 H46        5.8155    7.1013    6.9136 H         1 RES1    0.0000
     93 C36        3.4893    5.2159    8.2995 C.3       1 RES1    0.0000
     94 H47        3.4197    4.2785    8.4973 H         1 RES1    0.0000
     95 H48        2.7075    5.4982    7.8203 H         1 RES1    0.0000
     96 H49        3.5596    5.7110    9.1190 H         1 RES1    0.0000
     97 C37        4.4545    5.0032    6.0354 C.2       1 RES1    0.0000
     98 O7         3.3001    4.8894    5.6060 O.2       1 RES1    0.0000
     99 N6         5.5160    4.8431    5.2640 N.am      1 RES1    0.0000
    100 H50        6.2972    4.8810    5.6221 H         1 RES1    0.0000
    101 C38        5.4136    4.6071    3.8407 C.3       1 RES1    0.0000
    102 C39        6.8124    4.3396    3.3027 C.3       1 RES1    0.0000
    103 H51        7.3689    5.1043    3.4630 H         1 RES1    0.0000
    104 H52        6.7663    4.1690    2.3586 H         1 RES1    0.0000
    105 H53        7.1853    3.5749    3.7481 H         1 RES1    0.0000
    106 C40        4.7715    5.8353    3.1584 C.3       1 RES1    0.0000
    107 H54        3.8782    5.9533    3.4898 H         1 RES1    0.0000
    108 H55        4.7441    5.6962    2.2089 H         1 RES1    0.0000
    109 H56        5.2913    6.6189    3.3526 H         1 RES1    0.0000
    110 C41        4.5744    3.3432    3.5450 C.2       1 RES1    0.0000
    111 O8         3.9441    3.2294    2.4957 O.2       1 RES1    0.0000
    112 N7         4.6083    2.3784    4.4677 N.am      1 RES1    0.0000
    113 H57        5.0267    2.5300    5.2035 H         1 RES1    0.0000
    114 C42        3.9620    1.0765    4.2878 C.3       1 RES1    0.0000
    115 C43        4.0919    0.3223    5.6221 C.3       1 RES1    0.0000
    116 H58        4.7607    0.7457    6.1654 H         1 RES1    0.0000
    117 H59        4.3461   -0.5877    5.4528 H         1 RES1    0.0000
    118 H60        3.2493    0.3392    6.0817 H         1 RES1    0.0000
    119 C44        4.6280    0.3265    3.1424 C.3       1 RES1    0.0000
    120 H61        4.8083    0.9353    2.4227 H         1 RES1    0.0000
    121 H62        4.0423   -0.3687    2.8324 H         1 RES1    0.0000
    122 H63        5.4511   -0.0611    3.4470 H         1 RES1    0.0000
    123 C45        2.4662    1.2408    4.0295 C.2       1 RES1    0.0000
    124 O9         1.8569    0.3687    3.4060 O.2       1 RES1    0.0000
    125 N8         1.8401    2.2983    4.5550 N.am      1 RES1    0.0000
    126 H64        2.3170    2.8692    4.9861 H         1 RES1    0.0000
    127 C46        0.4134    2.5532    4.4570 C.3       1 RES1    0.0000
    128 C47        0.1356    3.8509    5.2266 C.3       1 RES1    0.0000
    129 H65        0.5906    3.8256    6.0710 H         1 RES1    0.0000
    130 H66       -0.8097    3.9393    5.3745 H         1 RES1    0.0000
    131 H67        0.4502    4.6008    4.7154 H         1 RES1    0.0000
    132 C48       -0.4083    1.3925    5.0413 C.3       1 RES1    0.0000
    133 H68       -0.4623    0.6825    4.3983 H         1 RES1    0.0000
    134 H69       -1.2916    1.7021    5.2551 H         1 RES1    0.0000
    135 H70        0.0181    1.0702    5.8394 H         1 RES1    0.0000
    136 C49       -0.0298    2.8376    3.0141 C.2       1 RES1    0.0000
    137 O10       -1.2196    2.7599    2.7184 O.2       1 RES1    0.0000
    138 N9         0.8812    3.2526    2.1591 N.am      1 RES1    0.0000
    139 H71        1.7098    3.1178    2.3443 H         1 RES1    0.0000
    140 C50        0.5496    3.9436    0.8907 C.3       1 RES1    0.0000
    141 C51        1.8141    4.1079    0.0909 C.3       1 RES1    0.0000
    142 H72        2.3766    4.7630    0.5113 H         1 RES1    0.0000
    143 H73        1.5956    4.3986   -0.7981 H         1 RES1    0.0000
    144 H74        2.2771    3.2694    0.0481 H         1 RES1    0.0000
    145 C52       -0.0734    5.3002    1.2131 C.3       1 RES1    0.0000
    146 H75       -0.8989    5.1696    1.6852 H         1 RES1    0.0000
    147 H76       -0.2441    5.7763    0.3973 H         1 RES1    0.0000
    148 H77        0.5304    5.8079    1.7600 H         1 RES1    0.0000
    149 C53       -0.4430    3.1178    0.0570 C.2       1 RES1    0.0000
    150 O11       -1.4417    3.5559   -0.4240 O.2       1 RES1    0.0000
    151 O12        0.0155    1.9025   -0.1657 O.3       1 RES1    0.0000
    152 C54       -0.7480    1.0849   -1.1187 C.3       1 RES1    0.0000
    153 H78       -1.5467    0.7626   -0.6965 H         1 RES1    0.0000
    154 H79       -0.2125    0.3413   -1.4020 H         1 RES1    0.0000
    155 H80       -0.9814    1.6200   -1.8812 H         1 RES1    0.0000
@<TRIPOS>BOND
     1    1    2 ar
     2    2    3 1
     3    4    2 ar
     4    5    4 1
     5    6    4 ar
     6    7    6 1
     7    8    6 ar
     8    9    8 1
     9   10    1 ar
    10   11   10 1
    11   12   11 ar
    12   13   12 1
    13   14   12 ar
    14   15   14 1
    15   16   14 ar
    16   17   16 1
    17   18   16 ar
    18   19   18 1
    19   20   11 ar
    20   21    1 1
    21   22   21 1
    22   23   21 1
    23   24   23 1
    24   25   23 1
    25   26   23 1
    26   27   26 1
    27   28   27 2
    28   29   27 1
    29   30   29 1
    30   31   29 1
    31   32   31 1
    32   33   32 1
    33   34   32 1
    34   35   32 1
    35   36   35 1
    36   37   36 1
    37   38   36 1
    38   39   31 1
    39   40   39 1
    40   41   39 1
    41   42   35 1
    42   43   42 1
    43   44   42 1
    44   45   42 1
    45   46   35 1
    46   47   46 1
    47   48   46 1
    48   49   46 1
    49   50   38 1
    50   51   50 1
    51   52   50 1
    52   53   50 1
    53   54   38 1
    54   55   54 1
    55   56   54 1
    56   57   54 1
    57   58   31 1
    58   59   58 2
    59   60   58 1
    60   61   60 1
    61   62   60 1
    62   63   62 1
    63   64   63 1
    64   65   63 1
    65   66   63 1
    66   67   62 1
    67   68   67 1
    68   69   67 1
    69   70   67 1
    70   71   62 1
    71   72   71 2
    72   73   71 1
    73   74   73 1
    74   75   73 1
    75   76   75 1
    76   77   76 1
    77   78   76 1
    78   79   76 1
    79   80   75 1
    80   81   80 1
    81   82   80 1
    82   83   80 1
    83   84   75 1
    84   85   84 2
    85   86   84 1
    86   87   86 1
    87   88   86 1
    88   89   88 1
    89   90   89 1
    90   91   89 1
    91   92   89 1
    92   93   88 1
    93   94   93 1
    94   95   93 1
    95   96   93 1
    96   97   88 1
    97   98   97 2
    98   99   97 1
    99  100   99 1
   100  101   99 1
   101  102  101 1
   102  103  102 1
   103  104  102 1
   104  105  102 1
   105  106  101 1
   106  107  106 1
   107  108  106 1
   108  109  106 1
   109  110  101 1
   110  111  110 2
   111  112  110 1
   112  113  112 1
   113  114  112 1
   114  115  114 1
   115  116  115 1
   116  117  115 1
   117  118  115 1
   118  119  114 1
   119  120  119 1
   120  121  119 1
   121  122  119 1
   122  123  114 1
   123  124  123 2
   124  125  123 1
   125  126  125 1
   126  127  125 1
   127  128  127 1
   128  129  128 1
   129  130  128 1
   130  131  128 1
   131  132  127 1
   132  133  132 1
   133  134  132 1
   134  135  132 1
   135  136  127 1
   136  137  136 2
   137  138  136 1
   138  139  138 1
   139  140  138 1
   140  141  140 1
   141  142  141 1
   142  143  141 1
   143  144  141 1
   144  145  140 1
   145  146  145 1
   146  147  145 1
   147  148  145 1
   148  149  140 1
   149  150  149 2
   150  151  149 1
   151  152  151 1
   152  153  152 1
   153  154  152 1
   154  155  152 1
   155    8   10 ar
   156   18   20 ar
   157   20   21 1
   158   38   39 1
@<TRIPOS>SUBSTRUCTURE
     1 RES1 1

@<TRIPOS>CRYSIN
  16.0860   21.0660   18.1040  90.0000 100.2700  90.0000  14 1

