# MOL2 file generated by ConQuest
# Please check atom types

@<TRIPOS>MOLECULE
HANLOZ
    64    64     2
SMALL
NO_CHARGES
****
Generated from CSD

@<TRIPOS>ATOM
      1 C1         8.7538    8.9634    1.5779 C.3       1 RES1    0.0000
      2 H1         9.3250    8.1939    1.3767 H         1 RES1    0.0000
      3 H2         9.2645    9.7908    1.4550 H         1 RES1    0.0000
      4 H3         7.9824    8.9639    0.9734 H         1 RES1    0.0000
      5 C2         7.3625    7.4062    4.3171 C.2       1 RES1    0.0000
      6 C3         7.6300    8.2943    5.4898 C.3       1 RES1    0.0000
      7 H4         8.4144    8.8532    5.3043 H         1 RES1    0.0000
      8 H5         7.8007    7.7451    6.2833 H         1 RES1    0.0000
      9 H6         6.8519    8.8672    5.6506 H         1 RES1    0.0000
     10 C4         6.6228    6.0731    4.5292 C.3       1 RES1    0.0000
     11 C5         5.1728    6.4187    4.8739 C.2       1 RES1    0.0000
     12 C6         4.5564    5.8967    2.5423 C.2       1 RES1    0.0000
     13 C7         6.7774    5.2216    3.2669 C.2       1 RES1    0.0000
     14 C8         2.8693    6.6990    4.0898 C.3       1 RES1    0.0000
     15 H7         2.7166    7.6082    3.7580 H         1 RES1    0.0000
     16 H8         2.6905    6.6681    5.0535 H         1 RES1    0.0000
     17 H9         2.2713    6.0769    3.6255 H         1 RES1    0.0000
     18 C9         5.9964    4.5619    1.0684 C.3       1 RES1    0.0000
     19 H10        6.8096    4.8905    0.6313 H         1 RES1    0.0000
     20 H11        5.2268    4.7044    0.4788 H         1 RES1    0.0000
     21 H12        6.0907    3.6050    1.2570 H         1 RES1    0.0000
     22 N1         7.6592    7.6362    3.0974 N.2       1 RES1    0.0000
     23 N2         7.2122    5.3843    5.6841 N.3       1 RES1    0.0000
     24 H13        8.0021    5.0582    5.4069 H         1 RES1    0.0000
     25 N3         4.2667    6.3145    3.8386 N.am      1 RES1    0.0000
     26 N4         5.7899    5.2897    2.3261 N.am      1 RES1    0.0000
     27 O1         8.2975    8.8799    2.9349 O.3       1 RES1    0.0000
     28 O2         6.4159    4.1840    5.8802 O.3       1 RES1    0.0000
     29 H14        6.0145    4.3439    6.6225 H         1 RES1    0.0000
     30 O3         4.8592    6.8239    5.9688 O.2       1 RES1    0.0000
     31 O4         3.7472    6.0341    1.6514 O.2       1 RES1    0.0000
     32 O5         7.7761    4.5490    3.1086 O.2       1 RES1    0.0000
     33 C10        4.9104   -1.1872    2.0150 C.3       2 RES2    0.0000
     34 H15        4.1399   -1.2403    1.4109 H         2 RES2    0.0000
     35 H16        5.4330   -2.0134    1.9510 H         2 RES2    0.0000
     36 H17        5.4716   -0.4247    1.7614 H         2 RES2    0.0000
     37 C11        3.4038    0.5240    4.5989 C.2       2 RES2    0.0000
     38 C12        3.5900   -0.2699    5.8574 C.3       2 RES2    0.0000
     39 H18        3.7179   -1.2150    5.6321 H         2 RES2    0.0000
     40 H19        2.7968   -0.1739    6.4244 H         2 RES2    0.0000
     41 H20        4.3782    0.0604    6.3375 H         2 RES2    0.0000
     42 C13        2.7124    1.8965    4.6610 C.3       2 RES2    0.0000
     43 C14        2.9081    2.5983    3.3138 C.2       2 RES2    0.0000
     44 C15        0.6921    1.8499    2.6402 C.2       2 RES2    0.0000
     45 C16        1.2486    1.6840    5.0268 C.2       2 RES2    0.0000
     46 C17        2.1781    2.9454    1.0278 C.3       2 RES2    0.0000
     47 H21        1.4433    2.6830    0.4347 H         2 RES2    0.0000
     48 H22        3.0209    2.5831    0.6841 H         2 RES2    0.0000
     49 H23        2.2339    3.9228    1.0660 H         2 RES2    0.0000
     50 C18       -1.0296    1.2523    4.2454 C.3       2 RES2    0.0000
     51 H24       -1.2074    0.3381    3.9390 H         2 RES2    0.0000
     52 H25       -1.6148    1.8761    3.7666 H         2 RES2    0.0000
     53 H26       -1.2032    1.3143    5.2074 H         2 RES2    0.0000
     54 N5         3.7807    0.2162    3.4191 N.2       2 RES2    0.0000
     55 N6         3.3432    2.6748    5.7264 N.3       2 RES2    0.0000
     56 H27        4.1615    2.8990    5.4183 H         2 RES2    0.0000
     57 N7         1.9310    2.4158    2.3744 N.am      2 RES2    0.0000
     58 N8         0.3751    1.5944    3.9775 N.am      2 RES2    0.0000
     59 O6         4.4495   -1.0158    3.3631 O.3       2 RES2    0.0000
     60 O7         2.6194    3.9323    5.7781 O.3       2 RES2    0.0000
     61 H28        2.4528    3.9719    6.6311 H         2 RES2    0.0000
     62 O8         3.9178    3.2269    3.0956 O.2       2 RES2    0.0000
     63 O9        -0.1069    1.6215    1.7609 O.2       2 RES2    0.0000
     64 O10        0.9137    1.5233    6.1796 O.2       2 RES2    0.0000
@<TRIPOS>BOND
     1    1    2 1
     2    3    1 1
     3    4    1 1
     4    5    6 1
     5    6    7 1
     6    8    6 1
     7    9    6 1
     8   10    5 1
     9   11   10 1
    10   12   25 1
    11   13   10 1
    12   14   15 1
    13   16   14 1
    14   17   14 1
    15   18   19 1
    16   20   18 1
    17   21   18 1
    18   22    5 2
    19   23   10 1
    20   24   23 1
    21   25   11 1
    22   26   12 1
    23   27    1 1
    24   28   23 1
    25   29   28 1
    26   30   11 2
    27   31   12 2
    28   32   13 2
    29   33   34 1
    30   35   33 1
    31   36   33 1
    32   37   38 1
    33   38   39 1
    34   40   38 1
    35   41   38 1
    36   42   37 1
    37   43   42 1
    38   44   57 1
    39   45   42 1
    40   46   47 1
    41   48   46 1
    42   49   46 1
    43   50   51 1
    44   52   50 1
    45   53   50 1
    46   54   37 2
    47   55   42 1
    48   56   55 1
    49   57   43 1
    50   58   44 1
    51   59   33 1
    52   60   55 1
    53   61   60 1
    54   62   43 2
    55   63   44 2
    56   64   45 2
    57   13   26 1
    58   14   25 1
    59   18   26 1
    60   22   27 1
    61   45   58 1
    62   46   57 1
    63   50   58 1
    64   54   59 1
@<TRIPOS>SUBSTRUCTURE
     1 RES1 1
     2 RES2 33

@<TRIPOS>CRYSIN
   7.7437   10.5514   15.0891 107.3250  97.9080  90.2570   2 1

