# MOL2 file generated by ConQuest
# Please check atom types

@<TRIPOS>MOLECULE
HANNEP
    31    32     1
SMALL
NO_CHARGES
****
Generated from CSD

@<TRIPOS>ATOM
      1 O1         3.0273    0.7012    4.5067 O.3       1 RES1    0.0000
      2 O2        -1.0315    2.4991    4.5958 O.3       1 RES1    0.0000
      3 N1         1.7589    0.7622    5.1051 N.2       1 RES1    0.0000
      4 C1         3.3960    2.0167    4.0141 C.3       1 RES1    0.0000
      5 C2         3.6363    1.9837    2.5282 C.3       1 RES1    0.0000
      6 C3         2.2761    2.1815    1.9297 C.3       1 RES1    0.0000
      7 C4         1.6701    3.2421    2.8291 C.3       1 RES1    0.0000
      8 C5         2.1465    2.8728    4.2209 C.3       1 RES1    0.0000
      9 C6         1.2706    1.9205    4.9790 C.2       1 RES1    0.0000
     10 C7        -0.0600    2.2073    5.6027 C.3       1 RES1    0.0000
     11 C8        -0.0366    3.3624    6.5944 C.3       1 RES1    0.0000
     12 C9         1.0245    3.1541    7.6232 C.2       1 RES1    0.0000
     13 C10        1.9574    4.0004    7.9257 C.2       1 RES1    0.0000
     14 C11       -1.4088    3.4948    7.2433 C.3       1 RES1    0.0000
     15 H1         4.1986    2.2639    4.5218 H         1 RES1    0.0000
     16 H2         4.2854    2.6706    2.2525 H         1 RES1    0.0000
     17 H3         4.0959    1.3188    2.2693 H         1 RES1    0.0000
     18 H4         1.6848    1.3243    2.0676 H         1 RES1    0.0000
     19 H5         2.2508    2.3628    1.0590 H         1 RES1    0.0000
     20 H6         2.0311    4.0388    2.5046 H         1 RES1    0.0000
     21 H7         0.6734    3.3245    2.7904 H         1 RES1    0.0000
     22 H8         2.3423    3.5882    4.7571 H         1 RES1    0.0000
     23 H9        -0.2727    1.4342    6.1019 H         1 RES1    0.0000
     24 H10        0.1844    4.1597    6.0179 H         1 RES1    0.0000
     25 H11        0.9135    2.3958    8.1191 H         1 RES1    0.0000
     26 H12        2.6372    3.8685    8.6570 H         1 RES1    0.0000
     27 H13        2.1513    4.8356    7.3794 H         1 RES1    0.0000
     28 H14       -1.4775    2.8574    7.9678 H         1 RES1    0.0000
     29 H15       -1.5201    4.2312    7.7997 H         1 RES1    0.0000
     30 H16       -2.1030    3.5827    6.5558 H         1 RES1    0.0000
     31 H17       -1.2110    1.9233    4.3369 H         1 RES1    0.0000
@<TRIPOS>BOND
     1    1    3 1
     2    2   10 1
     3    3    9 2
     4    4    1 1
     5    5    4 1
     6    6    5 1
     7    7    6 1
     8    8    4 1
     9    9    8 1
    10   10    9 1
    11   11   10 1
    12   12   11 1
    13   13   12 2
    14   14   11 1
    15   15    4 1
    16   16    5 1
    17   17    5 1
    18   18    6 1
    19   19    6 1
    20   20    7 1
    21   21    7 1
    22   22    8 1
    23   23   10 1
    24   24   11 1
    25   25   12 1
    26   26   13 1
    27   27   13 1
    28   28   14 1
    29   29   14 1
    30   30   14 1
    31   31    2 1
    32    7    8 1
@<TRIPOS>SUBSTRUCTURE
     1 RES1 1

@<TRIPOS>CRYSIN
  12.2660    5.4950   17.7020  90.0000 108.2700  90.0000  14 1

