# MOL2 file generated by ConQuest
# Please check atom types

@<TRIPOS>MOLECULE
HAPCUZ
    42    45     1
SMALL
NO_CHARGES
****
Generated from CSD

@<TRIPOS>ATOM
      1 O1         4.5037   10.7975   -0.0524 O.2       1 RES1    0.0000
      2 O2         6.3910   11.5392    0.6563 O.2       1 RES1    0.0000
      3 N1         5.4534   10.7735    0.7415 N.pl3     1 RES1    0.0000
      4 N2         5.5724    5.7087    6.7481 N.pl3     1 RES1    0.0000
      5 H1         5.7187    5.5462    7.5803 H         1 RES1    0.0000
      6 C1         5.4126    9.7839    1.7975 C.ar      1 RES1    0.0000
      7 C2         4.3523    8.9176    1.8714 C.ar      1 RES1    0.0000
      8 H2         3.6508    8.9763    1.2629 H         1 RES1    0.0000
      9 C3         4.3425    7.9577    2.8647 C.ar      1 RES1    0.0000
     10 H3         3.6324    7.3586    2.9153 H         1 RES1    0.0000
     11 C4         5.3797    7.8711    3.7916 C.ar      1 RES1    0.0000
     12 C5         5.3608    6.8207    4.8148 C.2       1 RES1    0.0000
     13 C6         5.6765    6.9427    6.1573 C.2       1 RES1    0.0000
     14 C7         6.0309    8.1300    6.9540 C.2       1 RES1    0.0000
     15 C8         7.1371    8.0150    7.9024 C.3       1 RES1    0.0000
     16 H4         7.9513    7.8370    7.4053 H         1 RES1    0.0000
     17 H5         6.9728    7.2502    8.4763 H         1 RES1    0.0000
     18 C9         7.3640    9.2332    8.7777 C.3       1 RES1    0.0000
     19 H6         6.8161    9.1550    9.5744 H         1 RES1    0.0000
     20 H7         8.2921    9.2523    9.0567 H         1 RES1    0.0000
     21 C10        7.0427   10.4904    8.0999 C.3       1 RES1    0.0000
     22 H8         7.6862   10.6356    7.3884 H         1 RES1    0.0000
     23 H9         7.1342   11.2198    8.7328 H         1 RES1    0.0000
     24 C11        6.4636    9.7308    2.7028 C.ar      1 RES1    0.0000
     25 H10        7.1758   10.3258    2.6363 H         1 RES1    0.0000
     26 C12        6.4333    8.7823    3.6989 C.ar      1 RES1    0.0000
     27 H11        7.1257    8.7478    4.3196 H         1 RES1    0.0000
     28 C13        5.0542    5.4378    4.5855 C.ar      1 RES1    0.0000
     29 C14        4.7087    4.6803    3.4545 C.ar      1 RES1    0.0000
     30 H12        4.6170    5.0853    2.6223 H         1 RES1    0.0000
     31 C15        4.5094    3.3345    3.6025 C.ar      1 RES1    0.0000
     32 H13        4.2833    2.8278    2.8563 H         1 RES1    0.0000
     33 C16        4.6339    2.7022    4.8317 C.ar      1 RES1    0.0000
     34 H14        4.4715    1.7889    4.8953 H         1 RES1    0.0000
     35 C17        4.9934    3.4073    5.9542 C.ar      1 RES1    0.0000
     36 H15        5.0934    2.9854    6.7771 H         1 RES1    0.0000
     37 C18        5.2002    4.7703    5.8137 C.ar      1 RES1    0.0000
     38 C19        5.6712   10.5294    7.5195 C.3       1 RES1    0.0000
     39 H16        5.0266   10.6685    8.2310 H         1 RES1    0.0000
     40 H17        5.6048   11.2788    6.9063 H         1 RES1    0.0000
     41 C20        5.3400    9.2733    6.7958 C.2       1 RES1    0.0000
     42 H18        4.6213    9.2790    6.2060 H         1 RES1    0.0000
@<TRIPOS>BOND
     1    1    3 2
     2    2    3 2
     3    3    6 1
     4    4    5 1
     5    6    7 ar
     6    7    8 1
     7    9    7 ar
     8   10    9 1
     9   11    9 ar
    10   12   11 1
    11   13    4 1
    12   14   13 1
    13   15   14 1
    14   16   15 1
    15   17   15 1
    16   18   15 1
    17   19   18 1
    18   20   18 1
    19   21   18 1
    20   22   21 1
    21   23   21 1
    22   24    6 ar
    23   25   24 1
    24   26   11 ar
    25   27   26 1
    26   28   12 1
    27   29   28 ar
    28   30   29 1
    29   31   29 ar
    30   32   31 1
    31   33   31 ar
    32   34   33 1
    33   35   33 ar
    34   36   35 1
    35   37    4 1
    36   38   21 1
    37   39   38 1
    38   40   38 1
    39   41   14 2
    40   42   41 1
    41   12   13 2
    42   24   26 ar
    43   28   37 ar
    44   35   37 ar
    45   38   41 1
@<TRIPOS>SUBSTRUCTURE
     1 RES1 1

@<TRIPOS>CRYSIN
   8.6737   10.5831   10.7165  65.2290  69.7260  75.1740   2 1

