# MOL2 file generated by ConQuest
# Please check atom types

@<TRIPOS>MOLECULE
HAPQIA
    41    39     2
SMALL
NO_CHARGES
****
Generated from CSD

@<TRIPOS>ATOM
      1 F1        -0.5096    7.4315    3.4571 Du        2 SUP2    0.0000
      2 F2         0.0208    6.4935    0.9505 Du        2 SUP2    0.0000
      3 F3         2.2610    7.1705   -0.3447 Du        2 SUP2    0.0000
      4 F4         4.1256    8.7685    0.8158 Du        2 SUP2    0.0000
      5 O1         1.8127    9.7068    7.5220 O.2       1 RES1    0.0000
      6 O2         4.6493   11.8618    4.5685 O.2       1 RES1    0.0000
      7 N1         2.6502   10.5490    7.0236 N.3       1 RES1    0.0000
      8 N2         3.9924   11.5833    5.6232 N.pl3     1 RES1    0.0000
      9 N3         1.5507    9.0679    4.6309 N.2       1 RES1    0.0000
     10 N4         3.4808    9.5455    3.5626 N.pl3     1 RES1    0.0000
     11 H1         4.3696    9.7587    3.4592 H         1 RES1    0.0000
     12 C1         0.5728    7.7018    2.7467 C.ar      1 RES1    0.0000
     13 H2        -0.2527    7.4929    3.1920 H         1 RES1    0.0000
     14 C2         0.8289    7.2577    1.4706 C.ar      1 RES1    0.0000
     15 H3         0.1679    6.7253    1.0218 H         1 RES1    0.0000
     16 C3         2.0299    7.5610    0.8010 C.ar      1 RES1    0.0000
     17 H4         2.1710    7.2304   -0.0897 H         1 RES1    0.0000
     18 C4         3.0129    8.3215    1.4047 C.ar      1 RES1    0.0000
     19 H5         3.8323    8.5367    0.9525 H         1 RES1    0.0000
     20 C5         2.7559    8.7672    2.7031 C.ar      1 RES1    0.0000
     21 C6         1.5558    8.4758    3.3766 C.ar      1 RES1    0.0000
     22 C7         2.7187    9.6876    4.6894 C.2       1 RES1    0.0000
     23 C8         3.1236   10.5628    5.7731 C.2       1 RES1    0.0000
     24 C9         3.1885   11.6747    7.8669 C.3       1 RES1    0.0000
     25 C10        1.9867   12.4617    8.3728 C.3       1 RES1    0.0000
     26 H6         1.4476   12.7598    7.6118 H         1 RES1    0.0000
     27 H7         2.2973   13.2419    8.8784 H         1 RES1    0.0000
     28 H8         1.4433   11.8894    8.9538 H         1 RES1    0.0000
     29 C11        3.9188   11.0408    9.0460 C.3       1 RES1    0.0000
     30 H9         3.2837   10.5216    9.5820 H         1 RES1    0.0000
     31 H10        4.3160   11.7436    9.6004 H         1 RES1    0.0000
     32 H11        4.6257   10.4495    8.7132 H         1 RES1    0.0000
     33 C12        4.1005   12.4399    6.8498 C.3       1 RES1    0.0000
     34 C13        3.5848   13.8221    6.4529 C.3       1 RES1    0.0000
     35 H12        4.1818   14.2120    5.7802 H         1 RES1    0.0000
     36 H13        3.5606   14.4009    7.2426 H         1 RES1    0.0000
     37 H14        2.6823   13.7392    6.0800 H         1 RES1    0.0000
     38 C14        5.5775   12.5084    7.2298 C.3       1 RES1    0.0000
     39 H15        5.9089   11.6054    7.4160 H         1 RES1    0.0000
     40 H16        5.6840   13.0669    8.0279 H         1 RES1    0.0000
     41 H17        6.0880   12.8965    6.4880 H         1 RES1    0.0000
@<TRIPOS>BOND
     1    5    7 1
     2    6    8 1
     3    7   23 1
     4    8   23 2
     5    9   21 1
     6   10   11 1
     7   12   13 1
     8   14   12 ar
     9   15   14 1
    10   16   14 ar
    11   17   16 1
    12   18   16 ar
    13   19   18 1
    14   20   10 1
    15   21   12 ar
    16   22    9 2
    17   23   22 1
    18   24    7 1
    19   25   24 1
    20   26   25 1
    21   27   25 1
    22   28   25 1
    23   29   24 1
    24   30   29 1
    25   31   29 1
    26   32   29 1
    27   33    8 1
    28   34   33 1
    29   35   34 1
    30   36   34 1
    31   37   34 1
    32   38   33 1
    33   39   38 1
    34   40   38 1
    35   41   38 1
    36   10   22 1
    37   18   20 ar
    38   20   21 ar
    39   24   33 1
@<TRIPOS>SUBSTRUCTURE
     1 RES1 5
     2 SUP2 1

@<TRIPOS>CRYSIN
   8.6527   15.3511   20.3960  90.0000  90.0000  90.0000  61 1

