# MOL2 file generated by ConQuest
# Please check atom types

@<TRIPOS>MOLECULE
HAPQIA01
    41    39     2
SMALL
NO_CHARGES
****
Generated from CSD

@<TRIPOS>ATOM
      1 F1         4.8571   -0.2465    3.4538 Du        2 SUP2    0.0000
      2 F2         4.3918   -1.2401    0.8894 Du        2 SUP2    0.0000
      3 F3         2.0406   -0.5374   -0.4559 Du        2 SUP2    0.0000
      4 F4         0.1929    1.0901    0.8060 Du        2 SUP2    0.0000
      5 O1         2.5105    2.0073    7.5113 O.2       1 RES1    0.0000
      6 O2        -0.3211    4.1672    4.5551 O.2       1 RES1    0.0000
      7 N1         1.6755    2.8504    7.0130 N.3       1 RES1    0.0000
      8 N2         0.3339    3.8861    5.6114 N.pl3     1 RES1    0.0000
      9 N3         2.7758    1.3709    4.6180 N.2       1 RES1    0.0000
     10 N4         0.8462    1.8505    3.5515 N.pl3     1 RES1    0.0000
     11 H1        -0.0095    2.0745    3.4680 H         1 RES1    0.0000
     12 C1         3.7560    0.0122    2.7288 C.ar      1 RES1    0.0000
     13 H2         4.5725   -0.2006    3.1648 H         1 RES1    0.0000
     14 C2         3.4956   -0.4275    1.4554 C.ar      1 RES1    0.0000
     15 H3         4.1478   -0.9553    1.0095 H         1 RES1    0.0000
     16 C3         2.3001   -0.1220    0.7882 C.ar      1 RES1    0.0000
     17 H4         2.1669   -0.4425   -0.0957 H         1 RES1    0.0000
     18 C4         1.3148    0.6340    1.3874 C.ar      1 RES1    0.0000
     19 H5         0.5034    0.8436    0.9403 H         1 RES1    0.0000
     20 C5         1.5700    1.0751    2.6906 C.ar      1 RES1    0.0000
     21 C6         2.7724    0.7842    3.3636 C.ar      1 RES1    0.0000
     22 C7         1.6072    1.9900    4.6758 C.2       1 RES1    0.0000
     23 C8         1.2020    2.8653    5.7603 C.2       1 RES1    0.0000
     24 C9         1.1427    3.9803    7.8530 C.3       1 RES1    0.0000
     25 C10        2.3468    4.7711    8.3524 C.3       1 RES1    0.0000
     26 H6         2.8927    4.2026    8.9347 H         1 RES1    0.0000
     27 H7         2.0380    5.5529    8.8574 H         1 RES1    0.0000
     28 H8         2.8831    5.0676    7.5874 H         1 RES1    0.0000
     29 C11        0.4178    3.3569    9.0377 C.3       1 RES1    0.0000
     30 H9        -0.2941    2.7665    8.7108 H         1 RES1    0.0000
     31 H10        0.0268    4.0648    9.5901 H         1 RES1    0.0000
     32 H11        1.0527    2.8369    9.5738 H         1 RES1    0.0000
     33 C12        0.2249    4.7414    6.8364 C.3       1 RES1    0.0000
     34 C13        0.7353    6.1295    6.4407 C.3       1 RES1    0.0000
     35 H12        1.6453    6.0536    6.0854 H         1 RES1    0.0000
     36 H13        0.7405    6.7119    7.2292 H         1 RES1    0.0000
     37 H14        0.1471    6.5113    5.7557 H         1 RES1    0.0000
     38 C14       -1.2500    4.8076    7.2212 C.3       1 RES1    0.0000
     39 H15       -1.7612    5.2069    6.4863 H         1 RES1    0.0000
     40 H16       -1.3529    5.3554    8.0270 H         1 RES1    0.0000
     41 H17       -1.5830    3.9025    7.3961 H         1 RES1    0.0000
@<TRIPOS>BOND
     1    5    7 1
     2    6    8 1
     3    7   23 1
     4    8   23 2
     5    9   21 1
     6   10   11 1
     7   12   13 1
     8   14   12 ar
     9   15   14 1
    10   16   14 ar
    11   17   16 1
    12   18   16 ar
    13   19   18 1
    14   20   10 1
    15   21   12 ar
    16   22    9 2
    17   23   22 1
    18   24    7 1
    19   25   24 1
    20   26   25 1
    21   27   25 1
    22   28   25 1
    23   29   24 1
    24   30   29 1
    25   31   29 1
    26   32   29 1
    27   33    8 1
    28   34   33 1
    29   35   34 1
    30   36   34 1
    31   37   34 1
    32   38   33 1
    33   39   38 1
    34   40   38 1
    35   41   38 1
    36   10   22 1
    37   18   20 ar
    38   20   21 ar
    39   24   33 1
@<TRIPOS>SUBSTRUCTURE
     1 RES1 5
     2 SUP2 1

@<TRIPOS>CRYSIN
   8.6503   15.3100   20.3524  90.0000  90.0000  90.0000  61 1

