# MOL2 file generated by ConQuest
# Please check atom types

@<TRIPOS>MOLECULE
HAPQIA02
    41    39     2
SMALL
NO_CHARGES
****
Generated from CSD

@<TRIPOS>ATOM
      1 F1        -0.5104   15.6106    6.7201 Du        2 SUP2    0.0000
      2 F2        -0.1125   16.4910    9.3077 Du        2 SUP2    0.0000
      3 F3         2.2406   15.8353   10.6513 Du        2 SUP2    0.0000
      4 F4         4.1464   14.2930    9.3748 Du        2 SUP2    0.0000
      5 O1         1.8124   13.3090    2.6535 O.2       1 RES1    0.0000
      6 O2         4.6473   11.1440    5.6222 O.2       1 RES1    0.0000
      7 N1         2.6507   12.4646    3.1574 N.3       1 RES1    0.0000
      8 N2         3.9864   11.4203    4.5656 N.pl3     1 RES1    0.0000
      9 N3         1.5442   13.9402    5.5481 N.2       1 RES1    0.0000
     10 N4         3.4803   13.4615    6.6238 N.pl3     1 RES1    0.0000
     11 H1         4.2961   13.3805    6.6408 H         1 RES1    0.0000
     12 C1         0.5614   15.3003    7.4559 C.ar      1 RES1    0.0000
     13 H2        -0.2024   15.4684    6.9152 H         1 RES1    0.0000
     14 C2         0.8296   15.7329    8.7325 C.ar      1 RES1    0.0000
     15 H3         0.1756   16.3030    9.1167 H         1 RES1    0.0000
     16 C3         2.0165   15.4272    9.3972 C.ar      1 RES1    0.0000
     17 H4         2.1749   15.7130   10.2895 H         1 RES1    0.0000
     18 C4         3.0045   14.6690    8.7874 C.ar      1 RES1    0.0000
     19 H5         3.8220   14.4382    9.2122 H         1 RES1    0.0000
     20 C5         2.7415   14.2380    7.4925 C.ar      1 RES1    0.0000
     21 C6         1.5606   14.5238    6.8177 C.ar      1 RES1    0.0000
     22 C7         2.7069   13.3270    5.4924 C.2       1 RES1    0.0000
     23 C8         3.1256   12.4496    4.4069 C.2       1 RES1    0.0000
     24 C9         3.1801   11.3155    2.3152 C.3       1 RES1    0.0000
     25 C10        3.8999   11.9391    1.1160 C.3       1 RES1    0.0000
     26 H6         3.2718   12.4970    0.6118 H         1 RES1    0.0000
     27 H7         4.2442   11.2284    0.5366 H         1 RES1    0.0000
     28 H8         4.6456   12.4909    1.4331 H         1 RES1    0.0000
     29 C11        1.9716   10.5329    1.8254 C.3       1 RES1    0.0000
     30 H9         1.4482   10.2241    2.5937 H         1 RES1    0.0000
     31 H10        2.2726    9.7595    1.3030 H         1 RES1    0.0000
     32 H11        1.4153   11.1091    1.2603 H         1 RES1    0.0000
     33 C12        4.1066   10.5665    3.3316 C.3       1 RES1    0.0000
     34 C13        5.5721   10.5069    2.9494 C.3       1 RES1    0.0000
     35 H12        5.9086   11.4148    2.8031 H         1 RES1    0.0000
     36 H13        5.6751    9.9842    2.1282 H         1 RES1    0.0000
     37 H14        6.0817   10.0820    3.6731 H         1 RES1    0.0000
     38 C14        3.5988    9.1741    3.7381 C.3       1 RES1    0.0000
     39 H15        4.1897    8.7965    4.4232 H         1 RES1    0.0000
     40 H16        3.5928    8.5871    2.9535 H         1 RES1    0.0000
     41 H17        2.6896    9.2490    4.0959 H         1 RES1    0.0000
@<TRIPOS>BOND
     1    5    7 1
     2    6    8 1
     3    7   23 1
     4    8   23 2
     5    9   21 1
     6   10   11 1
     7   12   13 1
     8   14   12 ar
     9   15   14 1
    10   16   14 ar
    11   17   16 1
    12   18   16 ar
    13   19   18 1
    14   20   10 1
    15   21   12 ar
    16   22    9 2
    17   23   22 1
    18   24    7 1
    19   25   24 1
    20   26   25 1
    21   27   25 1
    22   28   25 1
    23   29   24 1
    24   30   29 1
    25   31   29 1
    26   32   29 1
    27   33    8 1
    28   34   33 1
    29   35   34 1
    30   36   34 1
    31   37   34 1
    32   38   33 1
    33   39   38 1
    34   40   38 1
    35   41   38 1
    36   10   22 1
    37   18   20 ar
    38   20   21 ar
    39   24   33 1
@<TRIPOS>SUBSTRUCTURE
     1 RES1 5
     2 SUP2 1

@<TRIPOS>CRYSIN
   8.6510   15.2850   20.3270  90.0000  90.0000  90.0000  61 1

