# MOL2 file generated by ConQuest
# Please check atom types

@<TRIPOS>MOLECULE
HAPYUU
    91    93     1
SMALL
NO_CHARGES
****
Generated from CSD

@<TRIPOS>ATOM
      1 N1         7.5896    1.1867    4.6720 N.am      1 RES1    0.0000
      2 C1         6.7619    0.0310    5.0237 C.3       1 RES1    0.0000
      3 H1         7.3527   -0.7617    5.1749 H         1 RES1    0.0000
      4 C2         6.1091    0.4344    6.3582 C.3       1 RES1    0.0000
      5 H2         5.1519    0.6472    6.2254 H         1 RES1    0.0000
      6 H3         6.1835   -0.3005    7.0168 H         1 RES1    0.0000
      7 C3         6.8570    1.6474    6.8352 C.3       1 RES1    0.0000
      8 H4         6.2799    2.2384    7.3990 H         1 RES1    0.0000
      9 C4         7.2578    2.3326    5.5262 C.3       1 RES1    0.0000
     10 H5         6.5070    2.8575    5.1499 H         1 RES1    0.0000
     11 H6         8.0397    2.9259    5.6532 H         1 RES1    0.0000
     12 C5         5.7751   -0.2876    3.9271 C.3       1 RES1    0.0000
     13 H7         6.2582   -0.4823    3.0845 H         1 RES1    0.0000
     14 H8         5.2451   -1.0868    4.1725 H         1 RES1    0.0000
     15 O1         4.9113    0.8313    3.7444 O.3       1 RES1    0.0000
     16 C6         4.2547    0.8044    2.5311 C.3       1 RES1    0.0000
     17 H9         3.5162    0.1608    2.5749 H         1 RES1    0.0000
     18 H10        4.8802    0.5372    1.8273 H         1 RES1    0.0000
     19 H11        3.8994    1.6959    2.3327 H         1 RES1    0.0000
     20 O2         8.0484    1.2633    7.5268 O.3       1 RES1    0.0000
     21 C7         8.3036    1.9204    8.7940 C.3       1 RES1    0.0000
     22 C8         7.3059    1.3756    9.8202 C.3       1 RES1    0.0000
     23 H12        7.4139    0.4045    9.8967 H         1 RES1    0.0000
     24 H13        6.3929    1.5808    9.5291 H         1 RES1    0.0000
     25 H14        7.4719    1.7930   10.6923 H         1 RES1    0.0000
     26 C9         9.7173    1.4504    9.1403 C.3       1 RES1    0.0000
     27 H15       10.3430    1.7643    8.4536 H         1 RES1    0.0000
     28 H16        9.7369    0.4712    9.1762 H         1 RES1    0.0000
     29 H17        9.9788    1.8146   10.0115 H         1 RES1    0.0000
     30 C10        8.2738    3.4065    8.6854 C.3       1 RES1    0.0000
     31 H18        7.3556    3.7023    8.5100 H         1 RES1    0.0000
     32 H19        8.8559    3.6923    7.9503 H         1 RES1    0.0000
     33 H20        8.5886    3.8022    9.5249 H         1 RES1    0.0000
     34 C11        8.6633    1.0301    3.8847 C.2       1 RES1    0.0000
     35 O3         8.9469   -0.0672    3.4071 O.2       1 RES1    0.0000
     36 C12        9.5387    2.2647    3.6222 C.3       1 RES1    0.0000
     37 H21        8.9663    3.0832    3.6630 H         1 RES1    0.0000
     38 C13       10.5880    2.3495    4.6956 C.2       1 RES1    0.0000
     39 H22       11.1035    1.5726    4.8763 H         1 RES1    0.0000
     40 C14       10.8375    3.4334    5.4013 C.2       1 RES1    0.0000
     41 H23       10.3011    4.1916    5.2021 H         1 RES1    0.0000
     42 C15       11.8407    3.6181    6.4599 C.ar      1 RES1    0.0000
     43 C16       11.7992    4.7832    7.2349 C.ar      1 RES1    0.0000
     44 H24       11.1528    5.4537    7.0482 H         1 RES1    0.0000
     45 C17       12.6923    4.9603    8.2676 C.ar      1 RES1    0.0000
     46 H25       12.6449    5.7519    8.7898 H         1 RES1    0.0000
     47 C18       13.6494    4.0220    8.5599 C.ar      1 RES1    0.0000
     48 H26       14.2532    4.1565    9.2806 H         1 RES1    0.0000
     49 C19       13.7203    2.8640    7.7797 C.ar      1 RES1    0.0000
     50 C20       12.8095    2.6763    6.7435 C.ar      1 RES1    0.0000
     51 H27       12.8555    1.8836    6.2212 H         1 RES1    0.0000
     52 O4        14.6559    1.8883    7.9234 O.3       1 RES1    0.0000
     53 C21       15.4049    1.8298    9.1407 C.3       1 RES1    0.0000
     54 H28       14.7908    1.7468    9.8988 H         1 RES1    0.0000
     55 H29       15.9346    2.6488    9.2368 H         1 RES1    0.0000
     56 H30       16.0035    1.0540    9.1198 H         1 RES1    0.0000
     57 C22       10.1634    2.1607    2.2149 C.3       1 RES1    0.0000
     58 H31       10.7404    1.3452    2.1886 H         1 RES1    0.0000
     59 C23        9.1111    2.0309    1.1258 C.2       1 RES1    0.0000
     60 C24        9.2950    0.9704    0.1520 C.3       1 RES1    0.0000
     61 H32        8.6387    1.0704   -0.5680 H         1 RES1    0.0000
     62 H33        9.1720    0.1017    0.5889 H         1 RES1    0.0000
     63 H34       10.2003    1.0236   -0.2214 H         1 RES1    0.0000
     64 C25        8.0586    2.9090    1.0525 C.2       1 RES1    0.0000
     65 H35        7.4246    2.8318    0.3488 H         1 RES1    0.0000
     66 H36        7.9635    3.5935    1.7041 H         1 RES1    0.0000
     67 C26       11.0537    3.3854    1.9770 C.3       1 RES1    0.0000
     68 H37       10.4980    4.2027    2.0361 H         1 RES1    0.0000
     69 H38       11.7351    3.4310    2.6940 H         1 RES1    0.0000
     70 C27       11.7617    3.3632    0.6240 C.3       1 RES1    0.0000
     71 H39       12.2416    2.5038    0.5221 H         1 RES1    0.0000
     72 H40       11.0847    3.4211   -0.0961 H         1 RES1    0.0000
     73 C28       12.7482    4.5073    0.4747 C.3       1 RES1    0.0000
     74 H41       13.1673    4.4815   -0.4218 H         1 RES1    0.0000
     75 H42       12.2832    5.3748    0.5806 H         1 RES1    0.0000
     76 O5        13.7699    4.3523    1.5128 O.3       1 RES1    0.0000
     77 C29       13.8137    5.2877    2.4661 C.2       1 RES1    0.0000
     78 O6        13.2272    6.3283    2.4317 O.2       1 RES1    0.0000
     79 C30       14.7097    4.8913    3.5966 C.ar      1 RES1    0.0000
     80 C31       15.4013    3.6941    3.6308 C.ar      1 RES1    0.0000
     81 H43       15.3201    3.0808    2.9112 H         1 RES1    0.0000
     82 C32       16.2111    3.3848    4.7080 C.ar      1 RES1    0.0000
     83 H44       16.7087    2.5757    4.7301 H         1 RES1    0.0000
     84 C33       16.2768    4.2880    5.7509 C.ar      1 RES1    0.0000
     85 C34       15.5960    5.4672    5.7595 C.ar      1 RES1    0.0000
     86 H45       15.6577    6.0588    6.5010 H         1 RES1    0.0000
     87 C35       14.8112    5.7852    4.6599 C.ar      1 RES1    0.0000
     88 H46       14.3431    6.6112    4.6320 H         1 RES1    0.0000
     89 N2        17.1008    3.9572    6.9212 N.pl3     1 RES1    0.0000
     90 O7        17.7694    2.9446    6.8901 O.2       1 RES1    0.0000
     91 O8        17.0925    4.7259    7.8749 O.2       1 RES1    0.0000
@<TRIPOS>BOND
     1    1    2 1
     2    2    3 1
     3    4    2 1
     4    5    4 1
     5    6    4 1
     6    7    4 1
     7    8    7 1
     8    9    1 1
     9   10    9 1
    10   11    9 1
    11   12    2 1
    12   13   12 1
    13   14   12 1
    14   15   12 1
    15   16   15 1
    16   17   16 1
    17   18   16 1
    18   19   16 1
    19   20    7 1
    20   21   20 1
    21   22   21 1
    22   23   22 1
    23   24   22 1
    24   25   22 1
    25   26   21 1
    26   27   26 1
    27   28   26 1
    28   29   26 1
    29   30   21 1
    30   31   30 1
    31   32   30 1
    32   33   30 1
    33   34    1 1
    34   35   34 2
    35   36   34 1
    36   37   36 1
    37   38   36 1
    38   39   38 1
    39   40   38 2
    40   41   40 1
    41   42   40 1
    42   43   42 ar
    43   44   43 1
    44   45   43 ar
    45   46   45 1
    46   47   45 ar
    47   48   47 1
    48   49   47 ar
    49   50   42 ar
    50   51   50 1
    51   52   49 1
    52   53   52 1
    53   54   53 1
    54   55   53 1
    55   56   53 1
    56   57   36 1
    57   58   57 1
    58   59   57 1
    59   60   59 1
    60   61   60 1
    61   62   60 1
    62   63   60 1
    63   64   59 2
    64   65   64 1
    65   66   64 1
    66   67   57 1
    67   68   67 1
    68   69   67 1
    69   70   67 1
    70   71   70 1
    71   72   70 1
    72   73   70 1
    73   74   73 1
    74   75   73 1
    75   76   73 1
    76   77   76 1
    77   78   77 2
    78   79   77 1
    79   80   79 ar
    80   81   80 1
    81   82   80 ar
    82   83   82 1
    83   84   82 ar
    84   85   84 ar
    85   86   85 1
    86   87   79 ar
    87   88   87 1
    88   89   84 1
    89   90   89 2
    90   91   89 2
    91    7    9 1
    92   49   50 ar
    93   85   87 ar
@<TRIPOS>SUBSTRUCTURE
     1 RES1 1

@<TRIPOS>CRYSIN
  13.8250    5.8460   20.9340  90.0000  93.9820  90.0000   4 1

