# MOL2 file generated by ConQuest
# Please check atom types

@<TRIPOS>MOLECULE
HAQTAX
   160   172     2
SMALL
NO_CHARGES
****
Generated from CSD

@<TRIPOS>ATOM
      1 O1         3.6925   11.9122    8.0089 O.2       1 RES1    0.0000
      2 O2         4.7415   14.1556    4.5129 O.2       1 RES1    0.0000
      3 O3         2.2191   12.7755    5.6758 O.2       1 RES1    0.0000
      4 O4         4.5169    8.8596    4.2681 O.3       1 RES1    0.0000
      5 H1         4.3487    8.0381    4.2139 H         1 RES1    0.0000
      6 O5         6.2072    7.6538    6.4065 O.2       1 RES1    0.0000
      7 O6         4.3469    7.2357    7.4315 O.2       1 RES1    0.0000
      8 N1         5.2588   13.5885    7.8321 N.am      1 RES1    0.0000
      9 N2         5.1130    7.9938    6.8397 N.pl3     1 RES1    0.0000
     10 C1         4.6785   12.4025    7.4801 C.2       1 RES1    0.0000
     11 C2         5.5019   11.7922    6.3286 C.3       1 RES1    0.0000
     12 C3         6.6695   12.7527    6.2403 C.ar      1 RES1    0.0000
     13 C4         6.4397   13.8195    7.1046 C.ar      1 RES1    0.0000
     14 C5         7.2682   14.9191    7.1625 C.ar      1 RES1    0.0000
     15 H2         7.0890   15.6423    7.7510 H         1 RES1    0.0000
     16 C6         8.3776   14.9275    6.3249 C.ar      1 RES1    0.0000
     17 H3         8.9675   15.6726    6.3378 H         1 RES1    0.0000
     18 C7         8.6378   13.8643    5.4686 C.ar      1 RES1    0.0000
     19 H4         9.4112   13.8829    4.9162 H         1 RES1    0.0000
     20 C8         7.7729   12.7675    5.4132 C.ar      1 RES1    0.0000
     21 H5         7.9414   12.0468    4.8173 H         1 RES1    0.0000
     22 C9         4.7011   14.5257    8.7891 C.3       1 RES1    0.0000
     23 H6         3.7924   14.2210    9.0363 H         1 RES1    0.0000
     24 H7         4.6124   15.4094    8.3510 H         1 RES1    0.0000
     25 C10        5.5135   14.6943   10.0551 C.ar      1 RES1    0.0000
     26 C11        5.3453   15.8513   10.8108 C.ar      1 RES1    0.0000
     27 H8         4.7571   16.5324   10.5057 H         1 RES1    0.0000
     28 C12        6.0272   16.0156   12.0015 C.ar      1 RES1    0.0000
     29 H9         5.8892   16.7972   12.5223 H         1 RES1    0.0000
     30 C13        6.9098   15.0430   12.4355 C.ar      1 RES1    0.0000
     31 H10        7.3807   15.1558   13.2518 H         1 RES1    0.0000
     32 C14        7.1031   13.9033   11.6737 C.ar      1 RES1    0.0000
     33 H11        7.7219   13.2432   11.9614 H         1 RES1    0.0000
     34 C15        6.3976   13.7181   10.4914 C.ar      1 RES1    0.0000
     35 H12        6.5197   12.9257    9.9824 H         1 RES1    0.0000
     36 C16        4.7379   11.7600    4.9931 C.3       1 RES1    0.0000
     37 H13        5.3705   11.3034    4.3673 H         1 RES1    0.0000
     38 C17        4.3614   13.0317    4.2602 C.2       1 RES1    0.0000
     39 C18        3.4711   12.6086    3.1145 C.3       1 RES1    0.0000
     40 H14        3.9452   12.7072    2.2518 H         1 RES1    0.0000
     41 H15        2.6499   13.1618    3.0905 H         1 RES1    0.0000
     42 C19        3.1169   11.1243    3.3723 C.3       1 RES1    0.0000
     43 H16        3.7570   10.5681    2.8416 H         1 RES1    0.0000
     44 C20        3.4592   10.9031    4.9146 C.3       1 RES1    0.0000
     45 C21        2.3014   11.5606    5.6770 C.2       1 RES1    0.0000
     46 C22        1.1838   10.7187    6.2444 C.3       1 RES1    0.0000
     47 H17        0.4529   10.6797    5.5776 H         1 RES1    0.0000
     48 H18        0.8289   11.1726    7.0487 H         1 RES1    0.0000
     49 C23        1.5662    9.2918    6.6246 C.3       1 RES1    0.0000
     50 H19        0.7451    8.7496    6.7316 H         1 RES1    0.0000
     51 H20        2.0419    9.2999    7.4936 H         1 RES1    0.0000
     52 C24        2.4593    8.6516    5.5660 C.3       1 RES1    0.0000
     53 H21        1.9559    8.5900    4.7150 H         1 RES1    0.0000
     54 H22        2.6851    7.7302    5.8503 H         1 RES1    0.0000
     55 C25        3.7588    9.4278    5.3186 C.3       1 RES1    0.0000
     56 C26        4.6526    9.4235    6.6240 C.3       1 RES1    0.0000
     57 H23        4.0804    9.6923    7.3998 H         1 RES1    0.0000
     58 C27        5.9036   10.3168    6.6094 C.3       1 RES1    0.0000
     59 H24        6.4664   10.0161    5.8401 H         1 RES1    0.0000
     60 C28        1.7078   10.7959    2.8778 C.3       1 RES1    0.0000
     61 H25        1.0550   11.3545    3.3718 H         1 RES1    0.0000
     62 H26        1.5083    9.8470    3.0820 H         1 RES1    0.0000
     63 C29        1.5244   11.0297    1.3707 C.3       1 RES1    0.0000
     64 H27        0.6217   10.7180    1.1063 H         1 RES1    0.0000
     65 H28        1.5709   12.0021    1.1898 H         1 RES1    0.0000
     66 C30        2.5515   10.3261    0.5167 C.3       1 RES1    0.0000
     67 H29        2.6598    9.4036    0.8285 H         1 RES1    0.0000
     68 H30        3.4082   10.7962    0.5830 H         1 RES1    0.0000
     69 H31        2.2530   10.3224   -0.4159 H         1 RES1    0.0000
     70 C31        6.7448   10.1439    7.8701 C.ar      1 RES1    0.0000
     71 C32        8.1187    9.9362    7.7489 C.ar      1 RES1    0.0000
     72 H32        8.5152    9.9364    6.8850 H         1 RES1    0.0000
     73 C33        8.9172    9.7308    8.8605 C.ar      1 RES1    0.0000
     74 H33        9.8492    9.5775    8.7550 H         1 RES1    0.0000
     75 C34        8.3552    9.7496   10.1308 C.ar      1 RES1    0.0000
     76 H34        8.8990    9.6173   10.8977 H         1 RES1    0.0000
     77 C35        6.9926    9.9641   10.2687 C.ar      1 RES1    0.0000
     78 H35        6.6046    9.9810   11.1364 H         1 RES1    0.0000
     79 C36        6.1860   10.1552    9.1469 C.ar      1 RES1    0.0000
     80 H36        5.2523   10.2937    9.2528 H         1 RES1    0.0000
     81 O7         3.5807    3.9114    9.0680 O.2       2 RES2    0.0000
     82 O8         2.1526    1.8107   12.4149 O.2       2 RES2    0.0000
     83 O9         4.8224    3.0897   11.5181 O.2       2 RES2    0.0000
     84 O10        2.5387    7.0751   12.6985 O.3       2 RES2    0.0000
     85 H37        2.6911    7.8993   12.7456 H         2 RES2    0.0000
     86 O11        1.1246    8.3549   10.3870 O.2       2 RES2    0.0000
     87 O12        3.1299    8.7387    9.6668 O.2       2 RES2    0.0000
     88 N3         1.8588    2.3843    9.0973 N.am      2 RES2    0.0000
     89 N4         2.2600    7.9875   10.1063 N.pl3     2 RES2    0.0000
     90 C37        2.5107    3.5177    9.5027 C.2       2 RES2    0.0000
     91 C38        1.6408    4.2076   10.5681 C.3       2 RES2    0.0000
     92 C39        0.3971    3.3464   10.5624 C.ar      2 RES2    0.0000
     93 C40       -0.7756    3.4513   11.2804 C.ar      2 RES2    0.0000
     94 H38       -0.9257    4.1937   11.8523 H         2 RES2    0.0000
     95 C41       -1.7376    2.4475   11.1517 C.ar      2 RES2    0.0000
     96 H39       -2.5527    2.5108   11.6341 H         2 RES2    0.0000
     97 C42       -1.5089    1.3588   10.3240 C.ar      2 RES2    0.0000
     98 H40       -2.1648    0.6732   10.2636 H         2 RES2    0.0000
     99 C43       -0.3344    1.2516    9.5795 C.ar      2 RES2    0.0000
    100 H41       -0.1829    0.5152    8.9988 H         2 RES2    0.0000
    101 C44        0.6009    2.2597    9.7195 C.ar      2 RES2    0.0000
    102 C45        2.4356    1.4012    8.2012 C.3       2 RES2    0.0000
    103 H42        2.4859    0.5328    8.6749 H         2 RES2    0.0000
    104 H43        3.3616    1.6765    7.9828 H         2 RES2    0.0000
    105 C46        1.6720    1.2026    6.9091 C.ar      2 RES2    0.0000
    106 C47        1.8754    0.0364    6.1750 C.ar      2 RES2    0.0000
    107 H44        2.4638   -0.6333    6.5032 H         2 RES2    0.0000
    108 C48        1.2207   -0.1517    4.9661 C.ar      2 RES2    0.0000
    109 H45        1.3809   -0.9396    4.4593 H         2 RES2    0.0000
    110 C49        0.3348    0.8029    4.4944 C.ar      2 RES2    0.0000
    111 H46       -0.1181    0.6716    3.6701 H         2 RES2    0.0000
    112 C50        0.1158    1.9506    5.2360 C.ar      2 RES2    0.0000
    113 H47       -0.5023    2.6001    4.9230 H         2 RES2    0.0000
    114 C51        0.7873    2.1635    6.4319 C.ar      2 RES2    0.0000
    115 H48        0.6436    2.9638    6.9225 H         2 RES2    0.0000
    116 C52        2.2818    4.2081   11.9608 C.3       2 RES2    0.0000
    117 H49        1.6162    4.6898   12.5308 H         2 RES2    0.0000
    118 C53        2.5406    2.9222   12.7127 C.2       2 RES2    0.0000
    119 C54        3.3271    3.3114   13.9400 C.3       2 RES2    0.0000
    120 H50        4.1197    2.7262   14.0445 H         2 RES2    0.0000
    121 H51        2.7658    3.2302   14.7519 H         2 RES2    0.0000
    122 C55        3.7645    4.7831   13.7276 C.3       2 RES2    0.0000
    123 H52        3.0897    5.3598   14.1860 H         2 RES2    0.0000
    124 C56        3.5879    5.0097   12.1604 C.3       2 RES2    0.0000
    125 C57        4.7868    4.3046   11.5145 C.2       2 RES2    0.0000
    126 C58        5.9852    5.1044   11.0679 C.3       2 RES2    0.0000
    127 H53        6.3972    4.6436   10.2943 H         2 RES2    0.0000
    128 H54        6.6512    5.1046   11.8012 H         2 RES2    0.0000
    129 C59        5.7060    6.5543   10.6720 C.3       2 RES2    0.0000
    130 H55        6.5577    7.0603   10.6591 H         2 RES2    0.0000
    131 H56        5.3229    6.5769    9.7590 H         2 RES2    0.0000
    132 C60        4.7370    7.2211   11.6425 C.3       2 RES2    0.0000
    133 H57        4.5824    8.1546   11.3529 H         2 RES2    0.0000
    134 H58        5.1483    7.2485   12.5427 H         2 RES2    0.0000
    135 C61        3.3877    6.4933   11.7313 C.3       2 RES2    0.0000
    136 C62        2.6388    6.5347   10.3379 C.3       2 RES2    0.0000
    137 H59        3.2722    6.2467    9.6210 H         2 RES2    0.0000
    138 C63        1.3556    5.7012   10.2324 C.3       2 RES2    0.0000
    139 H60        0.7319    6.0409   10.9369 H         2 RES2    0.0000
    140 C64        5.1094    5.0538   14.3907 C.3       2 RES2    0.0000
    141 H61        5.4070    5.9708   14.1672 H         2 RES2    0.0000
    142 H62        5.7832    4.4186   14.0394 H         2 RES2    0.0000
    143 C65        5.0161    4.9060   15.9104 C.3       2 RES2    0.0000
    144 H63        4.3171    5.5161   16.2520 H         2 RES2    0.0000
    145 H64        4.7447    3.9800   16.1293 H         2 RES2    0.0000
    146 C66        6.3240    5.2146   16.6037 C.3       2 RES2    0.0000
    147 H65        6.6067    6.1255   16.3781 H         2 RES2    0.0000
    148 H66        7.0074    4.5782   16.3083 H         2 RES2    0.0000
    149 H67        6.2063    5.1397   17.5731 H         2 RES2    0.0000
    150 C67        0.6419    5.8652    8.8980 C.ar      2 RES2    0.0000
    151 C68       -0.7220    6.1540    8.8871 C.ar      2 RES2    0.0000
    152 H68       -1.1798    6.2754    9.7113 H         2 RES2    0.0000
    153 C69       -1.4250    6.2684    7.6980 C.ar      2 RES2    0.0000
    154 H69       -2.3525    6.4732    7.7101 H         2 RES2    0.0000
    155 C70       -0.7709    6.0819    6.4913 C.ar      2 RES2    0.0000
    156 H70       -1.2533    6.1398    5.6747 H         2 RES2    0.0000
    157 C71        0.5852    5.8117    6.4764 C.ar      2 RES2    0.0000
    158 H71        1.0359    5.6948    5.6492 H         2 RES2    0.0000
    159 C72        1.2933    5.7096    7.6734 C.ar      2 RES2    0.0000
    160 H72        2.2266    5.5337    7.6555 H         2 RES2    0.0000
@<TRIPOS>BOND
     1    1   10 2
     2    2   38 2
     3    3   45 2
     4    4    5 1
     5    6    9 2
     6    7    9 2
     7    8   10 1
     8    9   56 1
     9   10   11 1
    10   11   12 1
    11   12   13 ar
    12   13    8 1
    13   14   13 ar
    14   15   14 1
    15   16   14 ar
    16   17   16 1
    17   18   16 ar
    18   19   18 1
    19   20   12 ar
    20   21   20 1
    21   22    8 1
    22   23   22 1
    23   24   22 1
    24   25   22 1
    25   26   25 ar
    26   27   26 1
    27   28   26 ar
    28   29   28 1
    29   30   28 ar
    30   31   30 1
    31   32   30 ar
    32   33   32 1
    33   34   25 ar
    34   35   34 1
    35   36   11 1
    36   37   36 1
    37   38   36 1
    38   39   38 1
    39   40   39 1
    40   41   39 1
    41   42   39 1
    42   43   42 1
    43   44   36 1
    44   45   44 1
    45   46   45 1
    46   47   46 1
    47   48   46 1
    48   49   46 1
    49   50   49 1
    50   51   49 1
    51   52   49 1
    52   53   52 1
    53   54   52 1
    54   55    4 1
    55   56   55 1
    56   57   56 1
    57   58   11 1
    58   59   58 1
    59   60   42 1
    60   61   60 1
    61   62   60 1
    62   63   60 1
    63   64   63 1
    64   65   63 1
    65   66   63 1
    66   67   66 1
    67   68   66 1
    68   69   66 1
    69   70   58 1
    70   71   70 ar
    71   72   71 1
    72   73   71 ar
    73   74   73 1
    74   75   73 ar
    75   76   75 1
    76   77   75 ar
    77   78   77 1
    78   79   70 ar
    79   80   79 1
    80   81   90 2
    81   82  118 2
    82   83  125 2
    83   84   85 1
    84   86   89 2
    85   87   89 2
    86   88   90 1
    87   89  136 1
    88   90   91 1
    89   91   92 1
    90   92   93 ar
    91   93   94 1
    92   95   93 ar
    93   96   95 1
    94   97   95 ar
    95   98   97 1
    96   99   97 ar
    97  100   99 1
    98  101   88 1
    99  102   88 1
   100  103  102 1
   101  104  102 1
   102  105  102 1
   103  106  105 ar
   104  107  106 1
   105  108  106 ar
   106  109  108 1
   107  110  108 ar
   108  111  110 1
   109  112  110 ar
   110  113  112 1
   111  114  105 ar
   112  115  114 1
   113  116   91 1
   114  117  116 1
   115  118  116 1
   116  119  118 1
   117  120  119 1
   118  121  119 1
   119  122  119 1
   120  123  122 1
   121  124  116 1
   122  125  124 1
   123  126  125 1
   124  127  126 1
   125  128  126 1
   126  129  126 1
   127  130  129 1
   128  131  129 1
   129  132  129 1
   130  133  132 1
   131  134  132 1
   132  135   84 1
   133  136  135 1
   134  137  136 1
   135  138   91 1
   136  139  138 1
   137  140  122 1
   138  141  140 1
   139  142  140 1
   140  143  140 1
   141  144  143 1
   142  145  143 1
   143  146  143 1
   144  147  146 1
   145  148  146 1
   146  149  146 1
   147  150  138 1
   148  151  150 ar
   149  152  151 1
   150  153  151 ar
   151  154  153 1
   152  155  153 ar
   153  156  155 1
   154  157  155 ar
   155  158  157 1
   156  159  150 ar
   157  160  159 1
   158   18   20 ar
   159   32   34 ar
   160   42   44 1
   161   44   55 1
   162   52   55 1
   163   56   58 1
   164   77   79 ar
   165   92  101 ar
   166   99  101 ar
   167  112  114 ar
   168  122  124 1
   169  124  135 1
   170  132  135 1
   171  136  138 1
   172  157  159 ar
@<TRIPOS>SUBSTRUCTURE
     1 RES1 1
     2 RES2 81

@<TRIPOS>CRYSIN
  20.9382   15.9518   17.3556  90.0000 100.8320  90.0000  14 1

