# MOL2 file generated by ConQuest
# Please check atom types

@<TRIPOS>MOLECULE
HARVUT
    31    32     1
SMALL
NO_CHARGES
****
Generated from CSD

@<TRIPOS>ATOM
      1 O1         2.7973    3.8114    0.9303 O.3       1 RES1    0.0000
      2 N1         4.2852    2.1160    0.7208 N.pl3     1 RES1    0.0000
      3 H1         4.1042    2.1211   -0.1154 H         1 RES1    0.0000
      4 H2         4.9682    1.6703    0.9897 H         1 RES1    0.0000
      5 O2         7.6512    3.8469    8.8209 O.2       1 RES1    0.0000
      6 N2         6.5400    4.3310    8.9299 N.pl3     1 RES1    0.0000
      7 C1         3.7732    3.0790    1.4718 C.2       1 RES1    0.0000
      8 O3         6.0902    4.7374   10.0112 O.2       1 RES1    0.0000
      9 N3         4.1289    3.3310    2.7086 N.2       1 RES1    0.0000
     10 C2         3.2999    4.3672    3.1183 C.2       1 RES1    0.0000
     11 C3         2.4149    4.8047    1.9578 C.3       1 RES1    0.0000
     12 C4         3.2490    4.9370    4.3327 C.2       1 RES1    0.0000
     13 H3         2.5642    5.5844    4.4550 H         1 RES1    0.0000
     14 C5         4.1016    4.6975    5.4887 C.ar      1 RES1    0.0000
     15 C6         5.3430    4.0597    5.4241 C.ar      1 RES1    0.0000
     16 H4         5.6404    3.7079    4.5925 H         1 RES1    0.0000
     17 C7         6.1512    3.9289    6.5420 C.ar      1 RES1    0.0000
     18 H5         6.9987    3.5032    6.4836 H         1 RES1    0.0000
     19 C8         5.6931    4.4344    7.7484 C.ar      1 RES1    0.0000
     20 C9         4.4580    5.0345    7.8689 C.ar      1 RES1    0.0000
     21 H6         4.1518    5.3486    8.7111 H         1 RES1    0.0000
     22 C10        3.6785    5.1691    6.7446 C.ar      1 RES1    0.0000
     23 H7         2.8310    5.5925    6.8176 H         1 RES1    0.0000
     24 C11        0.9428    4.6510    2.2160 C.3       1 RES1    0.0000
     25 H8         0.4415    4.9200    1.4171 H         1 RES1    0.0000
     26 H9         0.6830    5.2178    2.9716 H         1 RES1    0.0000
     27 H10        0.7440    3.7146    2.4264 H         1 RES1    0.0000
     28 C12        2.7808    6.1675    1.4296 C.3       1 RES1    0.0000
     29 H11        3.7401    6.1941    1.2304 H         1 RES1    0.0000
     30 H12        2.5680    6.8467    2.1023 H         1 RES1    0.0000
     31 H13        2.2725    6.3479    0.6115 H         1 RES1    0.0000
@<TRIPOS>BOND
     1    1    7 1
     2    2    3 1
     3    4    2 1
     4    5    6 2
     5    6    8 2
     6    7    2 1
     7    9    7 2
     8   10    9 1
     9   11    1 1
    10   12   10 2
    11   13   12 1
    12   14   12 1
    13   15   14 ar
    14   16   15 1
    15   17   15 ar
    16   18   17 1
    17   19    6 1
    18   20   19 ar
    19   21   20 1
    20   22   14 ar
    21   23   22 1
    22   24   11 1
    23   25   24 1
    24   26   24 1
    25   27   24 1
    26   28   11 1
    27   29   28 1
    28   30   28 1
    29   31   28 1
    30   10   11 1
    31   17   19 ar
    32   20   22 ar
@<TRIPOS>SUBSTRUCTURE
     1 RES1 1

@<TRIPOS>CRYSIN
   6.3532    7.3907   24.5590  90.0000  90.0000  90.0000  19 1

