# MOL2 file generated by ConQuest
# Please check atom types

@<TRIPOS>MOLECULE
HASDUC
    73    78     1
SMALL
NO_CHARGES
****
Generated from CSD

@<TRIPOS>ATOM
      1 N1         3.9828    7.6517    6.1878 N.pl3     1 RES1    0.0000
      2 O1         3.2545    6.2450    8.4861 O.3       1 RES1    0.0000
      3 O2         5.7186    9.8251    6.4025 O.3       1 RES1    0.0000
      4 O3         3.5997    6.4523    3.6743 O.3       1 RES1    0.0000
      5 C1         4.5192    8.0063    7.4231 C.ar      1 RES1    0.0000
      6 C2         4.1748    7.2914    8.5578 C.ar      1 RES1    0.0000
      7 C3         4.6983    7.6205    9.7872 C.ar      1 RES1    0.0000
      8 H1         4.3996    7.0973   10.5620 H         1 RES1    0.0000
      9 C4         5.6299    8.6641    9.8767 C.ar      1 RES1    0.0000
     10 C5         5.9708    9.4076    8.7284 C.ar      1 RES1    0.0000
     11 H2         6.5864   10.0891    8.7976 H         1 RES1    0.0000
     12 C6         5.4026    9.0679    7.5245 C.ar      1 RES1    0.0000
     13 C7         3.4181    6.3786    6.0849 C.ar      1 RES1    0.0000
     14 C8         3.2390    5.7885    4.8443 C.ar      1 RES1    0.0000
     15 C9         2.7172    4.5229    4.7236 C.ar      1 RES1    0.0000
     16 H3         2.6518    4.1480    3.8943 H         1 RES1    0.0000
     17 C10        2.3375    3.8204    5.8815 C.ar      1 RES1    0.0000
     18 C11        2.4960    4.4280    7.1394 C.ar      1 RES1    0.0000
     19 H4         2.2557    3.8933    7.9081 H         1 RES1    0.0000
     20 C12        3.0504    5.6759    7.2262 C.ar      1 RES1    0.0000
     21 C13        4.6114    8.1649    5.0490 C.ar      1 RES1    0.0000
     22 C14        5.4422    9.2667    5.1642 C.ar      1 RES1    0.0000
     23 C15        6.0053    9.8341    4.0413 C.ar      1 RES1    0.0000
     24 H5         6.5692   10.5236    4.1526 H         1 RES1    0.0000
     25 C16        5.7504    9.2637    2.7935 C.ar      1 RES1    0.0000
     26 C17        4.9790    8.1037    2.6922 C.ar      1 RES1    0.0000
     27 H6         4.8645    7.7192    1.8034 H         1 RES1    0.0000
     28 C18        4.4133    7.5693    3.8132 C.ar      1 RES1    0.0000
     29 N2         6.2489    9.0360   11.0825 N.3       1 RES1    0.0000
     30 O4         6.8034   10.1952   11.1171 O.2       1 RES1    0.0000
     31 C19        6.3100    8.2154   12.3529 C.3       1 RES1    0.0000
     32 C20        6.5279    6.7335   12.0563 C.3       1 RES1    0.0000
     33 H7         7.2278    6.6353   11.3784 H         1 RES1    0.0000
     34 H8         5.6936    6.3406   11.7244 H         1 RES1    0.0000
     35 H9         6.8017    6.2732   12.8771 H         1 RES1    0.0000
     36 C21        5.0332    8.4554   13.1469 C.3       1 RES1    0.0000
     37 H10        5.0461    7.9065   13.9591 H         1 RES1    0.0000
     38 H11        4.2584    8.2111   12.5993 H         1 RES1    0.0000
     39 H12        4.9747    9.4023   13.3938 H         1 RES1    0.0000
     40 C22        7.5068    8.7066   13.1474 C.3       1 RES1    0.0000
     41 H13        8.3161    8.6307   12.5993 H         1 RES1    0.0000
     42 H14        7.6067    8.1637   13.9567 H         1 RES1    0.0000
     43 H15        7.3699    9.6446   13.3986 H         1 RES1    0.0000
     44 N3         1.8786    2.5010    5.8595 N.3       1 RES1    0.0000
     45 O5         1.6643    1.9354    7.0039 O.2       1 RES1    0.0000
     46 C23        1.6574    1.6505    4.6303 C.3       1 RES1    0.0000
     47 C24        2.9833    1.4285    3.9224 C.3       1 RES1    0.0000
     48 H16        3.3354    2.2875    3.6116 H         1 RES1    0.0000
     49 H17        2.8489    0.8316    3.1559 H         1 RES1    0.0000
     50 H18        3.6212    1.0189    4.5450 H         1 RES1    0.0000
     51 C25        0.6294    2.3055    3.7162 C.3       1 RES1    0.0000
     52 H19       -0.2505    2.2875    4.1478 H         1 RES1    0.0000
     53 H20        0.5863    1.8155    2.8683 H         1 RES1    0.0000
     54 H21        0.8902    3.2340    3.5434 H         1 RES1    0.0000
     55 C26        1.1141    0.3117    5.0902 C.3       1 RES1    0.0000
     56 H22        1.7710   -0.1249    5.6709 H         1 RES1    0.0000
     57 H23        0.9385   -0.2547    4.3111 H         1 RES1    0.0000
     58 H24        0.2807    0.4495    5.5880 H         1 RES1    0.0000
     59 N4         6.2911    9.7812    1.5962 N.3       1 RES1    0.0000
     60 O6         6.4564    8.9403    0.6322 O.2       1 RES1    0.0000
     61 C27        6.4909   11.2461    1.2945 C.3       1 RES1    0.0000
     62 C28        5.4043   12.0719    1.9664 C.3       1 RES1    0.0000
     63 H25        4.5270   11.6899    1.7571 H         1 RES1    0.0000
     64 H26        5.4465   12.9959    1.6401 H         1 RES1    0.0000
     65 H27        5.5403   12.0620    2.9366 H         1 RES1    0.0000
     66 C29        7.8762   11.6611    1.7456 C.3       1 RES1    0.0000
     67 H28        7.9588   11.5250    2.7124 H         1 RES1    0.0000
     68 H29        8.0174   12.6089    1.5353 H         1 RES1    0.0000
     69 H30        8.5468   11.1205    1.2794 H         1 RES1    0.0000
     70 C30        6.3763   11.4029   -0.2135 C.3       1 RES1    0.0000
     71 H31        7.0711   10.8682   -0.6507 H         1 RES1    0.0000
     72 H32        6.4900   12.3467   -0.4533 H         1 RES1    0.0000
     73 H33        5.4938   11.0955   -0.5069 H         1 RES1    0.0000
@<TRIPOS>BOND
     1    1    5 1
     2    2    6 1
     3    3   12 1
     4    4   14 1
     5    5    6 ar
     6    6    7 ar
     7    7    8 1
     8    9    7 ar
     9   10    9 ar
    10   11   10 1
    11   12    5 ar
    12   13    1 1
    13   14   13 ar
    14   15   14 ar
    15   16   15 1
    16   17   15 ar
    17   18   17 ar
    18   19   18 1
    19   20    2 1
    20   21    1 1
    21   22    3 1
    22   23   22 ar
    23   24   23 1
    24   25   23 ar
    25   26   25 ar
    26   27   26 1
    27   28    4 1
    28   29    9 1
    29   30   29 1
    30   31   29 1
    31   32   31 1
    32   33   32 1
    33   34   32 1
    34   35   32 1
    35   36   31 1
    36   37   36 1
    37   38   36 1
    38   39   36 1
    39   40   31 1
    40   41   40 1
    41   42   40 1
    42   43   40 1
    43   44   17 1
    44   45   44 1
    45   46   44 1
    46   47   46 1
    47   48   47 1
    48   49   47 1
    49   50   47 1
    50   51   46 1
    51   52   51 1
    52   53   51 1
    53   54   51 1
    54   55   46 1
    55   56   55 1
    56   57   55 1
    57   58   55 1
    58   59   25 1
    59   60   59 1
    60   61   59 1
    61   62   61 1
    62   63   62 1
    63   64   62 1
    64   65   62 1
    65   66   61 1
    66   67   66 1
    67   68   66 1
    68   69   66 1
    69   70   61 1
    70   71   70 1
    71   72   70 1
    72   73   70 1
    73   10   12 ar
    74   13   20 ar
    75   18   20 ar
    76   21   22 ar
    77   21   28 ar
    78   26   28 ar
@<TRIPOS>SUBSTRUCTURE
     1 RES1 1

@<TRIPOS>CRYSIN
   8.6097   24.9730   24.3700  90.0000  90.0000  90.0000  61 1

