# MOL2 file generated by ConQuest
# Please check atom types

@<TRIPOS>MOLECULE
HASFEM
    31    31     1
SMALL
NO_CHARGES
****
Generated from CSD

@<TRIPOS>ATOM
      1 O1        -7.0669    0.9043    0.9322 O.2       1 RES1    0.0000
      2 O2        -6.6654    0.7744    3.0779 O.2       1 RES1    0.0000
      3 O3        -1.4111    3.3301    1.0933 O.2       1 RES1    0.0000
      4 N1        -6.3004    1.0086    1.9005 N.pl3     1 RES1    0.0000
      5 N2        -4.2712    1.6594   -0.7909 N.1       1 RES1    0.0000
      6 N3        -2.7185    1.9199    2.2757 N.am      1 RES1    0.0000
      7 N4        -4.1747    1.2131    3.9493 N.3       1 RES1    0.0000
      8 C1        -4.9697    1.3906    1.6686 C.2       1 RES1    0.0000
      9 C2        -4.0042    1.5060    2.6786 C.2       1 RES1    0.0000
     10 C3        -2.4712    3.1452    1.6715 C.2       1 RES1    0.0000
     11 C4        -4.6058    1.5475    0.3046 C.1       1 RES1    0.0000
     12 C5        -3.1597    1.3856    4.9861 C.3       1 RES1    0.0000
     13 C6        -1.6719    0.8783    2.2093 C.3       1 RES1    0.0000
     14 C7        -3.5052    4.2160    1.7831 C.ar      1 RES1    0.0000
     15 C8        -4.2183    4.4666    2.9585 C.ar      1 RES1    0.0000
     16 C9        -5.1154    5.5236    3.0122 C.ar      1 RES1    0.0000
     17 C10       -5.3120    6.3294    1.9019 C.ar      1 RES1    0.0000
     18 C11       -4.5945    6.0967    0.7386 C.ar      1 RES1    0.0000
     19 C12       -3.6884    5.0527    0.6813 C.ar      1 RES1    0.0000
     20 H1        -5.0129    0.9203    4.1486 H         1 RES1    0.0000
     21 H2        -4.0528    3.9105    3.7528 H         1 RES1    0.0000
     22 H3        -5.5670    5.7146    3.8377 H         1 RES1    0.0000
     23 H4        -5.9676    7.0789    1.9506 H         1 RES1    0.0000
     24 H5        -4.6959    6.6791   -0.0777 H         1 RES1    0.0000
     25 H6        -3.1629    4.8777   -0.1131 H         1 RES1    0.0000
     26 H7        -2.4980    2.0770    4.7211 H         1 RES1    0.0000
     27 H8        -3.6016    1.6786    5.8095 H         1 RES1    0.0000
     28 H9        -2.7207    0.5444    5.1593 H         1 RES1    0.0000
     29 H10       -0.8630    1.1799    2.6857 H         1 RES1    0.0000
     30 H11       -2.0179    0.0442    2.6432 H         1 RES1    0.0000
     31 H12       -1.4266    0.6922    1.2863 H         1 RES1    0.0000
@<TRIPOS>BOND
     1    1    4 2
     2    2    4 2
     3    3   10 2
     4    4    8 1
     5    5   11 3
     6    6    9 1
     7    7    9 1
     8    8    9 2
     9   10    6 1
    10   11    8 1
    11   12    7 1
    12   13    6 1
    13   14   10 1
    14   15   14 ar
    15   16   15 ar
    16   17   16 ar
    17   18   17 ar
    18   19   14 ar
    19   20    7 1
    20   21   15 1
    21   22   16 1
    22   23   17 1
    23   24   18 1
    24   25   19 1
    25   26   12 1
    26   27   12 1
    27   28   12 1
    28   29   13 1
    29   30   13 1
    30   31   13 1
    31   18   19 ar
@<TRIPOS>SUBSTRUCTURE
     1 RES1 1

@<TRIPOS>CRYSIN
   8.5570   10.8820    7.3620  94.1500 103.6800 107.3900   2 1

