# MOL2 file generated by ConQuest
# Please check atom types

@<TRIPOS>MOLECULE
HASGAM
    20    20     1
SMALL
NO_CHARGES
****
Generated from CSD

@<TRIPOS>ATOM
      1 O1        -2.8940    9.6893    4.3676 O.2       1 RES1    0.0000
      2 O2        -3.4001    9.3796    6.4482 O.2       1 RES1    0.0000
      3 N1        -2.7555    9.1442    5.4465 N.pl3     1 RES1    0.0000
      4 C1        -1.6846    8.0783    5.4962 C.3       1 RES1    0.0000
      5 H1        -1.9333    7.3304    4.8977 H         1 RES1    0.0000
      6 H2        -0.8266    8.4549    5.1782 H         1 RES1    0.0000
      7 N2        -1.5279    7.5891    6.8415 N.pl3     1 RES1    0.0000
      8 C2        -2.3317    6.7915    7.5960 C.2       1 RES1    0.0000
      9 N3        -3.5708    6.2192    7.1348 N.pl3     1 RES1    0.0000
     10 O3        -3.8808    6.3895    5.9669 O.2       1 RES1    0.0000
     11 O4        -4.2142    5.6006    7.9739 O.2       1 RES1    0.0000
     12 C3        -1.7276    6.6362    8.8172 C.2       1 RES1    0.0000
     13 N4        -2.1936    5.8239    9.9340 N.pl3     1 RES1    0.0000
     14 O5        -2.7489    6.3949   10.8475 O.2       1 RES1    0.0000
     15 O6        -1.9750    4.6345    9.8537 O.2       1 RES1    0.0000
     16 C4        -0.5570    7.3860    8.7010 C.2       1 RES1    0.0000
     17 N5         0.4555    7.5821    9.7146 N.pl3     1 RES1    0.0000
     18 O7         0.2731    6.9677   10.7622 O.2       1 RES1    0.0000
     19 O8         1.3941    8.3181    9.4594 O.2       1 RES1    0.0000
     20 N6        -0.4323    7.9628    7.5196 N.2       1 RES1    0.0000
@<TRIPOS>BOND
     1    1    3 2
     2    2    3 2
     3    3    4 1
     4    4    5 1
     5    6    4 1
     6    7    4 1
     7    8    7 1
     8    9    8 1
     9   10    9 2
    10   11    9 2
    11   12    8 2
    12   13   12 1
    13   14   13 2
    14   15   13 2
    15   16   12 1
    16   17   16 1
    17   18   17 2
    18   19   17 2
    19   20    7 1
    20   16   20 2
@<TRIPOS>SUBSTRUCTURE
     1 RES1 1

@<TRIPOS>CRYSIN
   6.0874   19.3210    8.3437  90.0000 108.2550  90.0000  14 1

