# MOL2 file generated by ConQuest
# Please check atom types

@<TRIPOS>MOLECULE
HASHAK
    22    26     1
SMALL
NO_CHARGES
****
Generated from CSD

@<TRIPOS>ATOM
      1 C1         0.4756    4.2850    2.3358 C.3       1 RES1    0.0000
      2 N1         1.0199    5.2276    3.3153 N.pl3     1 RES1    0.0000
      3 O1         1.2670    6.3505    2.9044 O.2       1 RES1    0.0000
      4 O2         1.1714    4.8608    4.4616 O.2       1 RES1    0.0000
      5 C2         0.1410    2.8133    2.6063 C.3       1 RES1    0.0000
      6 C3         0.8159    2.4585    1.2526 C.3       1 RES1    0.0000
      7 N2         1.7286    1.3200    1.0714 N.pl3     1 RES1    0.0000
      8 O3         1.4325    0.2760    1.6058 O.2       1 RES1    0.0000
      9 O4         2.7054    1.4753    0.3795 O.2       1 RES1    0.0000
     10 C4        -0.5467    2.6150    0.4963 C.3       1 RES1    0.0000
     11 C5        -1.1936    3.0056    1.8369 C.3       1 RES1    0.0000
     12 N3        -2.4874    2.5732    2.3936 N.pl3     1 RES1    0.0000
     13 O5        -2.7427    2.9984    3.5149 O.2       1 RES1    0.0000
     14 O6        -3.2042    1.8421    1.7424 O.2       1 RES1    0.0000
     15 C6        -0.8777    4.5108    1.5966 C.3       1 RES1    0.0000
     16 C7        -0.1958    4.1178    0.2560 C.3       1 RES1    0.0000
     17 C8         1.1691    3.9386    0.9939 C.3       1 RES1    0.0000
     18 H1         0.2483    2.4250    3.4348 H         1 RES1    0.0000
     19 H2        -0.8625    2.0248   -0.2140 H         1 RES1    0.0000
     20 H3        -1.4710    5.2407    1.7305 H         1 RES1    0.0000
     21 H4        -0.3264    4.5729   -0.6092 H         1 RES1    0.0000
     22 H5         2.0025    4.2731    0.7248 H         1 RES1    0.0000
@<TRIPOS>BOND
     1    1    2 1
     2    2    3 2
     3    4    2 2
     4    5    1 1
     5    6    5 1
     6    7    6 1
     7    8    7 2
     8    9    7 2
     9   10    6 1
    10   11    5 1
    11   12   11 1
    12   13   12 2
    13   14   12 2
    14   15    1 1
    15   16   10 1
    16   17    1 1
    17   18    5 1
    18   19   10 1
    19   20   15 1
    20   21   16 1
    21   22   17 1
    22    6   17 1
    23   10   11 1
    24   11   15 1
    25   15   16 1
    26   16   17 1
@<TRIPOS>SUBSTRUCTURE
     1 RES1 1

@<TRIPOS>CRYSIN
  11.6560   11.9460   13.1300  90.0000  90.0000  90.0000  61 1

