# MOL2 file generated by ConQuest
# Please check atom types

@<TRIPOS>MOLECULE
HASWEG
    32    35     1
SMALL
USER_CHARGES
****
Generated from CSD

@<TRIPOS>ATOM
      1 N1         6.3434    1.9532    1.6423 N.am      1 RES1    0.0000
      2 O1         6.8828    3.5951    3.0983 O.2       1 RES1    0.0000
      3 C1         6.0108    1.6003    4.0323 C.ar      1 RES1    0.0000
      4 C2         5.4443    0.3470    3.7492 C.ar      1 RES1    0.0000
      5 C3         6.4389    2.4734    2.9368 C.2       1 RES1    0.0000
      6 N2         7.5603    4.4698   -1.4742 N.pl3     1 RES1    1.0000
      7 C4         6.1724    2.0150    5.3299 C.ar      1 RES1    0.0000
      8 H1         6.5524    2.8447    5.5083 H         1 RES1    0.0000
      9 C5         5.7859    0.7095    1.3009 C.2       1 RES1    0.0000
     10 C6         6.7657    2.8104    0.5629 C.ar      1 RES1    0.0000
     11 C7         5.3006   -0.1123    2.4214 C.ar      1 RES1    0.0000
     12 O2         7.9196    5.2900   -2.4206 O.2       1 RES1   -1.0000
     13 C8         5.0070   -0.4742    4.8163 C.ar      1 RES1    0.0000
     14 O3         5.7468    0.3685    0.1391 O.2       1 RES1    0.0000
     15 C9         5.1861   -0.0095    6.1366 C.ar      1 RES1    0.0000
     16 H2         4.9006   -0.5362    6.8482 H         1 RES1    0.0000
     17 C10        8.1011    2.9802    0.2784 C.ar      1 RES1    0.0000
     18 H3         8.7431    2.5230    0.7712 H         1 RES1    0.0000
     19 C11        4.4232   -1.7156    4.5150 C.ar      1 RES1    0.0000
     20 H4         4.1167   -2.2558    5.2073 H         1 RES1    0.0000
     21 C12        8.4830    3.8216   -0.7285 C.ar      1 RES1    0.0000
     22 H5         9.3873    3.9499   -0.9023 H         1 RES1    0.0000
     23 C13        5.7677    1.1921    6.3855 C.ar      1 RES1    0.0000
     24 H6         5.8973    1.4687    7.2636 H         1 RES1    0.0000
     25 C14        5.8380    3.4899   -0.1792 C.ar      1 RES1    0.0000
     26 H7         4.9319    3.4046    0.0121 H         1 RES1    0.0000
     27 C15        4.7348   -1.3355    2.1688 C.ar      1 RES1    0.0000
     28 H8         4.6396   -1.6305    1.2916 H         1 RES1    0.0000
     29 C16        6.2516    4.2940   -1.2032 C.ar      1 RES1    0.0000
     30 H9         5.6165    4.7297   -1.7246 H         1 RES1    0.0000
     31 C17        4.2979   -2.1416    3.2308 C.ar      1 RES1    0.0000
     32 H10        3.9208   -2.9738    3.0543 H         1 RES1    0.0000
@<TRIPOS>BOND
     1    1    5 1
     2    2    5 2
     3    3    4 ar
     4    4   11 ar
     5    5    3 1
     6    6   12 1
     7    7    3 ar
     8    8    7 1
     9    9    1 1
    10   10    1 1
    11   11    9 1
    12   13    4 ar
    13   14    9 2
    14   15   13 ar
    15   16   15 1
    16   17   10 ar
    17   18   17 1
    18   19   13 ar
    19   20   19 1
    20   21    6 ar
    21   22   21 1
    22   23    7 ar
    23   24   23 1
    24   25   10 ar
    25   26   25 1
    26   27   11 ar
    27   28   27 1
    28   29    6 ar
    29   30   29 1
    30   31   19 ar
    31   32   31 1
    32   15   23 ar
    33   17   21 ar
    34   25   29 ar
    35   27   31 ar
@<TRIPOS>SUBSTRUCTURE
     1 RES1 1

@<TRIPOS>CRYSIN
   7.6840   18.1773    9.3434  90.0000  96.0100  90.0000 231 1

