# MOL2 file generated by ConQuest
# Please check atom types

@<TRIPOS>MOLECULE
HASWIK
    32    35     1
SMALL
USER_CHARGES
****
Generated from CSD

@<TRIPOS>ATOM
      1 N1         3.0845    6.8204    6.2102 N.am      1 RES1    0.0000
      2 C1         3.4381    5.4988    5.9150 C.2       1 RES1    0.0000
      3 O1         3.3198    5.0801    4.7845 O.2       1 RES1    0.0000
      4 O2         2.7843    8.5651    7.6241 O.2       1 RES1    0.0000
      5 C2         3.1333    7.4155    7.4813 C.2       1 RES1    0.0000
      6 C3         3.9441    4.6882    7.0329 C.ar      1 RES1    0.0000
      7 C4         4.0162    5.2391    8.3270 C.ar      1 RES1    0.0000
      8 C5         2.6153    7.6350    5.1144 C.ar      1 RES1    0.0000
      9 C6         3.6215    6.5694    8.5809 C.ar      1 RES1    0.0000
     10 C7         4.5019    4.4438    9.3972 C.ar      1 RES1    0.0000
     11 N2         3.0697    9.4140    3.6448 N.pl3     1 RES1    1.0000
     12 O3         3.8544   10.3672    3.2307 O.2       1 RES1   -1.0000
     13 C8         4.1927    6.3015   10.9012 C.ar      1 RES1    0.0000
     14 H1         4.2473    6.6608   11.7569 H         1 RES1    0.0000
     15 C9         1.8768    9.2213    3.0476 C.ar      1 RES1    0.0000
     16 H2         1.6270    9.7602    2.3316 H         1 RES1    0.0000
     17 C10        3.4505    8.6220    4.6706 C.ar      1 RES1    0.0000
     18 H3         4.2792    8.7484    5.0738 H         1 RES1    0.0000
     19 C11        4.5849    5.0203   10.6806 C.ar      1 RES1    0.0000
     20 H4         4.9135    4.5144   11.3888 H         1 RES1    0.0000
     21 C12        4.8894    3.1176    9.1220 C.ar      1 RES1    0.0000
     22 H5         5.2105    2.5836    9.8128 H         1 RES1    0.0000
     23 C13        3.7056    7.0839    9.8469 C.ar      1 RES1    0.0000
     24 H6         3.4371    7.9594   10.0080 H         1 RES1    0.0000
     25 C14        4.8027    2.6026    7.8660 C.ar      1 RES1    0.0000
     26 H7         5.0517    1.7208    7.7078 H         1 RES1    0.0000
     27 C15        4.3385    3.3979    6.8091 C.ar      1 RES1    0.0000
     28 H8         4.2988    3.0459    5.9497 H         1 RES1    0.0000
     29 C16        1.3905    7.4299    4.5412 C.ar      1 RES1    0.0000
     30 H9         0.8174    6.7659    4.8519 H         1 RES1    0.0000
     31 C17        1.0358    8.2445    3.4845 C.ar      1 RES1    0.0000
     32 H10        0.2134    8.1245    3.0669 H         1 RES1    0.0000
@<TRIPOS>BOND
     1    1    2 1
     2    2    3 2
     3    4    5 2
     4    5    1 1
     5    6    2 1
     6    7    6 ar
     7    8    1 1
     8    9    5 1
     9   10    7 ar
    10   11   12 1
    11   13   14 1
    12   15   11 ar
    13   16   15 1
    14   17    8 ar
    15   18   17 1
    16   19   10 ar
    17   20   19 1
    18   21   10 ar
    19   22   21 1
    20   23    9 ar
    21   24   23 1
    22   25   21 ar
    23   26   25 1
    24   27    6 ar
    25   28   27 1
    26   29    8 ar
    27   30   29 1
    28   31   15 ar
    29   32   31 1
    30    7    9 ar
    31   11   17 ar
    32   13   19 ar
    33   13   23 ar
    34   25   27 ar
    35   29   31 ar
@<TRIPOS>SUBSTRUCTURE
     1 RES1 1

@<TRIPOS>CRYSIN
   7.7269    9.1920    9.5229  82.9660  78.0490  88.7100   2 1

