# MOL2 file generated by ConQuest
# Please check atom types

@<TRIPOS>MOLECULE
HATLUJ
    22    25     1
SMALL
NO_CHARGES
****
Generated from CSD

@<TRIPOS>ATOM
      1 C1        -2.9282    7.1273    2.6851 C.2       1 RES1    0.0000
      2 N1        -3.2234    6.5932    1.5601 N.2       1 RES1    0.0000
      3 O1        -2.1828    5.7882    1.0975 O.3       1 RES1    0.0000
      4 C2        -1.0113    5.9614    1.9560 C.3       1 RES1    0.0000
      5 C3        -1.5946    6.6858    3.2038 C.3       1 RES1    0.0000
      6 C4        -0.6104    7.7225    3.7395 C.2       1 RES1    0.0000
      7 O2         0.1118    7.1834    4.7286 O.3       1 RES1    0.0000
      8 C5        -0.2841    5.7882    4.9625 C.3       1 RES1    0.0000
      9 C6        -1.6842    5.7102    4.3876 C.3       1 RES1    0.0000
     10 O3        -0.4765    8.8836    3.4220 O.2       1 RES1    0.0000
     11 C7        -3.9597    7.9006    3.4011 C.ar      1 RES1    0.0000
     12 C8        -3.6515    8.7848    4.3941 C.ar      1 RES1    0.0000
     13 C9        -4.6668    9.4982    5.0487 C.ar      1 RES1    0.0000
     14 C10       -5.9421    9.3104    4.7077 C.ar      1 RES1    0.0000
     15 C11       -6.2866    8.4043    3.7434 C.ar      1 RES1    0.0000
     16 C12       -5.2893    7.7140    3.0810 C.ar      1 RES1    0.0000
     17 N2         0.0725    6.6188    1.2726 N.3       1 RES1    0.0000
     18 C13        0.8240    5.6968    0.4390 C.3       1 RES1    0.0000
     19 C14        2.1042    6.3663   -0.0692 C.3       1 RES1    0.0000
     20 C15        1.7567    7.6420   -0.8284 C.3       1 RES1    0.0000
     21 C16        0.9267    8.5384    0.0314 C.3       1 RES1    0.0000
     22 C17       -0.3012    7.8152    0.5292 C.3       1 RES1    0.0000
@<TRIPOS>BOND
     1    1    2 2
     2    2    3 1
     3    3    4 1
     4    4    5 1
     5    5    1 1
     6    6    5 1
     7    7    6 1
     8    8    7 1
     9    9    5 1
    10   10    6 2
    11   11    1 1
    12   12   11 ar
    13   13   12 ar
    14   14   13 ar
    15   15   14 ar
    16   16   11 ar
    17   17    4 1
    18   18   17 1
    19   19   18 1
    20   20   19 1
    21   21   20 1
    22   22   17 1
    23    8    9 1
    24   15   16 ar
    25   21   22 1
@<TRIPOS>SUBSTRUCTURE
     1 RES1 1

@<TRIPOS>CRYSIN
  10.0730   12.1960   13.0660  90.0000  90.0000  90.0000  19 1

