# MOL2 file generated by ConQuest
# Please check atom types

@<TRIPOS>MOLECULE
HATMEU
    44    50     2
SMALL
NO_CHARGES
****
Generated from CSD

@<TRIPOS>ATOM
      1 C1         3.4448    9.1842    4.7730 C.2       1 RES1    0.0000
      2 N1         3.8854    8.3765    3.8695 N.2       1 RES1    0.0000
      3 O1         2.8811    7.4481    3.5388 O.3       1 RES1    0.0000
      4 C2         1.6072    7.9146    4.0775 C.3       1 RES1    0.0000
      5 C3         2.0315    8.8801    5.2059 C.3       1 RES1    0.0000
      6 C4         2.0965    8.1270    6.5526 C.2       1 RES1    0.0000
      7 O2         1.2538    8.6318    7.4288 O.3       1 RES1    0.0000
      8 C5         0.4625    9.7006    6.8697 C.3       1 RES1    0.0000
      9 C6         1.0652   10.0256    5.5196 C.3       1 RES1    0.0000
     10 O3         2.8130    7.2021    6.8117 O.2       1 RES1    0.0000
     11 C7         4.3111   10.2530    5.2775 C.ar      1 RES1    0.0000
     12 C8         4.1342   10.7927    6.5424 C.ar      1 RES1    0.0000
     13 C9         4.9484   11.8232    7.0060 C.ar      1 RES1    0.0000
     14 C10        5.9613   12.2978    6.1912 C.ar      1 RES1    0.0000
     15 C11        6.1493   11.7698    4.9468 C.ar      1 RES1    0.0000
     16 C12        5.3419   10.7544    4.4764 C.ar      1 RES1    0.0000
     17 N2         0.7489    8.4798    3.0990 N.3       1 RES1    0.0000
     18 C13        1.3300    9.6008    2.3285 C.3       1 RES1    0.0000
     19 C14        0.2580   10.2716    1.5137 C.3       1 RES1    0.0000
     20 C15       -0.4426    9.3026    0.5864 C.3       1 RES1    0.0000
     21 C16       -0.9523    8.0991    1.3705 C.3       1 RES1    0.0000
     22 C17        0.1687    7.4852    2.1785 C.3       1 RES1    0.0000
     23 C18        0.6641    3.4339    4.8752 C.2       2 RES2    0.0000
     24 N3         0.1884    2.6425    3.9854 N.2       2 RES2    0.0000
     25 O4         1.1738    1.6978    3.6309 O.3       2 RES2    0.0000
     26 C19        2.4718    2.1295    4.1559 C.3       2 RES2    0.0000
     27 C20        2.0847    3.1009    5.2878 C.3       2 RES2    0.0000
     28 C21        2.0392    2.3581    6.6412 C.2       2 RES2    0.0000
     29 O5         2.9331    2.8537    7.4833 O.3       2 RES2    0.0000
     30 C22        3.7364    3.8970    6.8628 C.3       2 RES2    0.0000
     31 C23        3.0694    4.2405    5.5605 C.3       2 RES2    0.0000
     32 O6         1.3005    1.4634    6.9276 O.2       2 RES2    0.0000
     33 C24       -0.1779    4.5143    5.4139 C.ar      2 RES2    0.0000
     34 C25       -1.2328    5.0180    4.6605 C.ar      2 RES2    0.0000
     35 C26       -2.0363    6.0404    5.1309 C.ar      2 RES2    0.0000
     36 C27       -1.8233    6.5348    6.4230 C.ar      2 RES2    0.0000
     37 C28       -0.7902    6.0543    7.1765 C.ar      2 RES2    0.0000
     38 C29        0.0172    5.0459    6.6924 C.ar      2 RES2    0.0000
     39 N4         3.3068    2.7063    3.1502 N.3       2 RES2    0.0000
     40 C30        2.7333    3.8389    2.3933 C.3       2 RES2    0.0000
     41 C31        3.8185    4.5201    1.6058 C.3       2 RES2    0.0000
     42 C32        4.5058    3.5465    0.6512 C.3       2 RES2    0.0000
     43 C33        4.9920    2.3187    1.4183 C.3       2 RES2    0.0000
     44 C34        3.8725    1.7245    2.2262 C.3       2 RES2    0.0000
@<TRIPOS>BOND
     1    1    2 2
     2    2    3 1
     3    3    4 1
     4    4    5 1
     5    5    1 1
     6    6    5 1
     7    7    6 1
     8    8    7 1
     9    9    5 1
    10   10    6 2
    11   11    1 1
    12   12   11 ar
    13   13   12 ar
    14   14   13 ar
    15   15   14 ar
    16   16   11 ar
    17   17    4 1
    18   18   17 1
    19   19   18 1
    20   20   19 1
    21   21   20 1
    22   22   17 1
    23   23   24 2
    24   24   25 1
    25   25   26 1
    26   26   27 1
    27   27   23 1
    28   28   27 1
    29   29   28 1
    30   30   29 1
    31   31   27 1
    32   32   28 2
    33   33   23 1
    34   34   33 ar
    35   35   34 ar
    36   36   35 ar
    37   37   36 ar
    38   38   33 ar
    39   39   26 1
    40   40   39 1
    41   41   40 1
    42   42   41 1
    43   43   42 1
    44   44   39 1
    45    8    9 1
    46   15   16 ar
    47   21   22 1
    48   30   31 1
    49   37   38 ar
    50   43   44 1
@<TRIPOS>SUBSTRUCTURE
     1 RES1 1
     2 RES2 23

@<TRIPOS>CRYSIN
   8.1030   11.6050   34.1400  90.0000  93.0200  90.0000  14 1

