# MOL2 file generated by ConQuest
# Please check atom types

@<TRIPOS>MOLECULE
HAVGUH
    57    47     2
SMALL
NO_CHARGES
****
Generated from CSD

@<TRIPOS>ATOM
      1 O1         5.9475    8.7470    8.3130 O.2       1 RES1    0.0000
      2 O2         2.7801    6.3905    7.6237 O.3       1 RES1    0.0000
      3 N1         3.8337    7.2515    7.8845 N.2       1 RES1    0.0000
      4 C1         4.3913    7.0726    9.0470 C.2       1 RES1    0.0000
      5 C2         5.4925    8.1063    9.2468 C.2       1 RES1    0.0000
      6 C3         5.9323    8.3005   10.6011 C.2       1 RES1    0.0000
      7 C4         5.5424    7.5252   11.5901 C.2       1 RES1    0.0000
      8 C5         4.6357    6.3921   11.4017 C.ar      1 RES1    0.0000
      9 C6         4.3516    5.5510   12.4666 C.ar      1 RES1    0.0000
     10 C7         3.5431    4.4362   12.3023 C.ar      1 RES1    0.0000
     11 C8         3.0202    4.1686   11.0629 C.ar      1 RES1    0.0000
     12 C9         3.2640    5.0081    9.9958 C.ar      1 RES1    0.0000
     13 C10        4.0780    6.1397   10.1302 C.ar      1 RES1    0.0000
     14 C11        2.0795    6.8967    6.4314 C.3       1 RES1    0.0000
     15 C12        1.3008    8.1353    6.7749 C.ar      1 RES1    0.0000
     16 C13        0.0213    8.0650    7.2872 C.ar      1 RES1    0.0000
     17 C14       -0.6699    9.1905    7.6858 C.ar      1 RES1    0.0000
     18 C15       -0.0976   10.4582    7.6042 C.ar      1 RES1    0.0000
     19 C16        1.1781   10.5209    7.0552 C.ar      1 RES1    0.0000
     20 C17        1.8560    9.3893    6.6508 C.ar      1 RES1    0.0000
     21 C18       -0.8375   11.6877    8.1188 C.3       1 RES1    0.0000
     22 C19       -2.2175   11.7550    7.3825 C.3       1 RES1    0.0000
     23 C20       -1.1189   11.4919    9.5719 C.3       1 RES1    0.0000
     24 C21       -0.1164   12.9523    7.8282 C.3       1 RES1    0.0000
     25 H1         6.5151    9.0009   10.7860 H         1 RES1    0.0000
     26 H2         5.8553    7.7072   12.4470 H         1 RES1    0.0000
     27 H3         4.7079    5.7360   13.3051 H         1 RES1    0.0000
     28 H4         3.3577    3.8781   13.0214 H         1 RES1    0.0000
     29 H5         2.4932    3.4132   10.9411 H         1 RES1    0.0000
     30 H6         2.8795    4.8185    9.1699 H         1 RES1    0.0000
     31 H7         1.4765    6.2162    6.0937 H         1 RES1    0.0000
     32 H8         2.7251    7.1016    5.7353 H         1 RES1    0.0000
     33 H9        -0.3879    7.2346    7.3664 H         1 RES1    0.0000
     34 H10       -1.5348    9.1018    8.0143 H         1 RES1    0.0000
     35 H11        1.5862   11.3513    6.9564 H         1 RES1    0.0000
     36 H12        2.7068    9.4749    6.2867 H         1 RES1    0.0000
     37 H13       -2.7091   10.9475    7.5514 H         1 RES1    0.0000
     38 H14       -2.0711   11.8482    6.4383 H         1 RES1    0.0000
     39 H15       -2.7166   12.5089    7.7053 H         1 RES1    0.0000
     40 H16       -1.5839   10.6616    9.6983 H         1 RES1    0.0000
     41 H17       -1.6615   12.2152    9.8935 H         1 RES1    0.0000
     42 H18       -0.2907   11.4705   10.0578 H         1 RES1    0.0000
     43 H19        0.0352   13.0242    6.8829 H         1 RES1    0.0000
     44 H20        0.7257   12.9539    8.2888 H         1 RES1    0.0000
     45 H21       -0.6441   13.6986    8.1246 H         1 RES1    0.0000
     46 C22        0.1075   12.5838    9.1090 Du        2 SUP2    0.0000
     47 C23       -1.2500   12.5914    7.0276 Du        2 SUP2    0.0000
     48 C24       -2.1057   11.4904    8.9826 Du        2 SUP2    0.0000
     49 H22        0.4060   12.0409    9.8430 Du        2 SUP2    0.0000
     50 H23       -0.3978   13.3285    9.4467 Du        2 SUP2    0.0000
     51 H24        0.8669   12.9080    8.6208 Du        2 SUP2    0.0000
     52 H25       -1.7101   13.3499    7.3963 Du        2 SUP2    0.0000
     53 H26       -1.8347   12.1235    6.4280 Du        2 SUP2    0.0000
     54 H27       -0.4729   12.8912    6.5497 Du        2 SUP2    0.0000
     55 H28       -1.9051   10.9063    9.7178 Du        2 SUP2    0.0000
     56 H29       -2.8014   11.1020    8.4462 Du        2 SUP2    0.0000
     57 H30       -2.3994   12.3406    9.3192 Du        2 SUP2    0.0000
@<TRIPOS>BOND
     1    1    5 2
     2    2    3 1
     3    3    4 2
     4    4    5 1
     5    5    6 1
     6    6    7 2
     7    7    8 1
     8    8    9 ar
     9    9   10 ar
    10   10   11 ar
    11   11   12 ar
    12   12   13 ar
    13   13    4 1
    14   14    2 1
    15   15   14 1
    16   16   15 ar
    17   17   16 ar
    18   18   17 ar
    19   19   18 ar
    20   20   15 ar
    21   21   18 1
    22   22   21 1
    23   23   21 1
    24   24   21 1
    25   25    6 1
    26   26    7 1
    27   27    9 1
    28   28   10 1
    29   29   11 1
    30   30   12 1
    31   31   14 1
    32   32   14 1
    33   33   16 1
    34   34   17 1
    35   35   19 1
    36   36   20 1
    37   37   22 1
    38   38   22 1
    39   39   22 1
    40   40   23 1
    41   41   23 1
    42   42   23 1
    43   43   24 1
    44   44   24 1
    45   45   24 1
    46    8   13 ar
    47   19   20 ar
@<TRIPOS>SUBSTRUCTURE
     1 RES1 1
     2 SUP2 46

@<TRIPOS>CRYSIN
  10.1680   15.2920   11.6110  90.0000  98.3900  90.0000  14 1

