# MOL2 file generated by ConQuest
# Please check atom types

@<TRIPOS>MOLECULE
HAVVUW
    64    68     1
SMALL
NO_CHARGES
****
Generated from CSD

@<TRIPOS>ATOM
      1 O1         5.7358    8.0827   20.6858 O.3       1 RES1    0.0000
      2 H1         5.3759    8.1708   21.4520 H         1 RES1    0.0000
      3 O2         2.8745    6.7018   19.3190 O.2       1 RES1    0.0000
      4 O3         1.8471   10.0757   19.2494 O.3       1 RES1    0.0000
      5 N1         2.2588   10.2703   17.8553 N.3       1 RES1    0.0000
      6 C1         5.1524    6.9328   20.0711 C.3       1 RES1    0.0000
      7 C2         6.1742    6.3439   19.0293 C.3       1 RES1    0.0000
      8 C3         5.3880    5.3308   18.1746 C.3       1 RES1    0.0000
      9 H2         5.9297    5.0200   17.4057 H         1 RES1    0.0000
     10 H3         4.5476    5.7302   17.8364 H         1 RES1    0.0000
     11 C4         5.0941    4.1713   19.1480 C.3       1 RES1    0.0000
     12 H4         4.1210    4.0600   19.2902 H         1 RES1    0.0000
     13 H5         5.4722    3.3191   18.8133 H         1 RES1    0.0000
     14 C5         5.7920    4.6198   20.4324 C.3       1 RES1    0.0000
     15 H6         6.0009    3.8758   21.0675 H         1 RES1    0.0000
     16 C6         4.9387    5.7436   21.0373 C.3       1 RES1    0.0000
     17 H7         5.2455    5.9692   21.9520 H         1 RES1    0.0000
     18 H8         3.9841    5.4833   21.0738 H         1 RES1    0.0000
     19 C7         6.9587    7.3732   18.2431 C.3       1 RES1    0.0000
     20 H9         6.3571    7.8410   17.6263 H         1 RES1    0.0000
     21 H10        7.6655    6.9252   17.7334 H         1 RES1    0.0000
     22 H11        7.3603    8.0199   18.8616 H         1 RES1    0.0000
     23 C8         7.0259    5.3736   19.9167 C.3       1 RES1    0.0000
     24 C9         7.9869    4.4959   19.1110 C.3       1 RES1    0.0000
     25 H12        7.5157    4.1188   18.3385 H         1 RES1    0.0000
     26 H13        8.3188    3.7690   19.6788 H         1 RES1    0.0000
     27 H14        8.7423    5.0373   18.8007 H         1 RES1    0.0000
     28 C10        7.8744    6.0245   21.0121 C.3       1 RES1    0.0000
     29 H15        8.5504    6.6034   20.6011 H         1 RES1    0.0000
     30 H16        8.3188    5.3270   21.5381 H         1 RES1    0.0000
     31 H17        7.2979    6.5593   21.5969 H         1 RES1    0.0000
     32 C11        3.8530    7.4059   19.4015 C.2       1 RES1    0.0000
     33 C12        3.8279    8.8416   18.8938 C.3       1 RES1    0.0000
     34 H18        4.7614    9.1695   18.7482 H         1 RES1    0.0000
     35 C13        3.0037    9.0054   17.5996 C.3       1 RES1    0.0000
     36 H19        2.3584    8.2456   17.5129 H         1 RES1    0.0000
     37 C14        3.0936    9.7628   19.8768 C.3       1 RES1    0.0000
     38 H20        2.9438    9.3030   20.7398 H         1 RES1    0.0000
     39 H21        3.6182   10.5860   20.0402 H         1 RES1    0.0000
     40 C15        3.8514    9.0967   16.3567 C.ar      1 RES1    0.0000
     41 C16        3.9372    8.0225   15.4962 C.ar      1 RES1    0.0000
     42 H22        3.4004    7.2536   15.6515 H         1 RES1    0.0000
     43 C17        4.7962    8.0480   14.4069 C.ar      1 RES1    0.0000
     44 H23        4.8504    7.2977   13.8258 H         1 RES1    0.0000
     45 C18        5.5702    9.1601   14.1670 C.ar      1 RES1    0.0000
     46 H24        6.1644    9.1748   13.4267 H         1 RES1    0.0000
     47 C19        5.4836   10.2536   15.0044 C.ar      1 RES1    0.0000
     48 H25        6.0058   11.0279   14.8300 H         1 RES1    0.0000
     49 C20        4.6335   10.2241   16.1004 C.ar      1 RES1    0.0000
     50 H26        4.5841   10.9759   16.6809 H         1 RES1    0.0000
     51 C21        1.0047   10.3194   17.0975 C.3       1 RES1    0.0000
     52 H27        0.4931    9.4872   17.2607 H         1 RES1    0.0000
     53 H28        1.2104   10.3657   16.1305 H         1 RES1    0.0000
     54 C22        0.1611   11.4989   17.4788 C.ar      1 RES1    0.0000
     55 C23        0.3619   12.7418   16.9057 C.ar      1 RES1    0.0000
     56 H29        1.0493   12.8570   16.2607 H         1 RES1    0.0000
     57 C24       -0.4348   13.8238   17.2658 C.ar      1 RES1    0.0000
     58 H30       -0.2915   14.6727   16.8637 H         1 RES1    0.0000
     59 C25       -1.4314   13.6657   18.2070 C.ar      1 RES1    0.0000
     60 H31       -1.9755   14.4044   18.4540 H         1 RES1    0.0000
     61 C26       -1.6338   12.4329   18.7856 C.ar      1 RES1    0.0000
     62 H32       -2.3155   12.3216   19.4372 H         1 RES1    0.0000
     63 C27       -0.8525   11.3632   18.4240 C.ar      1 RES1    0.0000
     64 H33       -1.0064   10.5166   18.8259 H         1 RES1    0.0000
@<TRIPOS>BOND
     1    1    2 1
     2    3   32 2
     3    4    5 1
     4    5   35 1
     5    6    1 1
     6    7    6 1
     7    8    7 1
     8    9    8 1
     9   10    8 1
    10   11    8 1
    11   12   11 1
    12   13   11 1
    13   14   11 1
    14   15   14 1
    15   16    6 1
    16   17   16 1
    17   18   16 1
    18   19    7 1
    19   20   19 1
    20   21   19 1
    21   22   19 1
    22   23    7 1
    23   24   23 1
    24   25   24 1
    25   26   24 1
    26   27   24 1
    27   28   23 1
    28   29   28 1
    29   30   28 1
    30   31   28 1
    31   32    6 1
    32   33   32 1
    33   34   33 1
    34   35   33 1
    35   36   35 1
    36   37    4 1
    37   38   37 1
    38   39   37 1
    39   40   35 1
    40   41   40 ar
    41   42   41 1
    42   43   41 ar
    43   44   43 1
    44   45   43 ar
    45   46   45 1
    46   47   45 ar
    47   48   47 1
    48   49   40 ar
    49   50   49 1
    50   51    5 1
    51   52   51 1
    52   53   51 1
    53   54   51 1
    54   55   54 ar
    55   56   55 1
    56   57   55 ar
    57   58   57 1
    58   59   57 ar
    59   60   59 1
    60   61   59 ar
    61   62   61 1
    62   63   54 ar
    63   64   63 1
    64   14   16 1
    65   14   23 1
    66   33   37 1
    67   47   49 ar
    68   61   63 ar
@<TRIPOS>SUBSTRUCTURE
     1 RES1 1

@<TRIPOS>CRYSIN
   8.0962   13.3510   21.0087  90.0000  90.0000  90.0000  19 1

