# MOL2 file generated by ConQuest
# Please check atom types

@<TRIPOS>MOLECULE
HAVWAD
   134   142     2
SMALL
NO_CHARGES
****
Generated from CSD

@<TRIPOS>ATOM
      1 O1         1.7321    8.9867   14.3245 O.3       1 RES1    0.0000
      2 H1         1.4698    8.8919   13.5326 H         1 RES1    0.0000
      3 O2         4.9736    8.9948   13.2858 O.2       1 RES1    0.0000
      4 O3         4.2427   12.5021   12.7490 O.3       1 RES1    0.0000
      5 N1         4.8535   12.8701   14.0351 N.3       1 RES1    0.0000
      6 C1         2.9911    8.3292   14.4919 C.3       1 RES1    0.0000
      7 C2         3.1738    7.9372   16.0054 C.3       1 RES1    0.0000
      8 C3         4.6694    7.5591   16.1674 C.3       1 RES1    0.0000
      9 H2         5.2542    8.2546   15.7734 H         1 RES1    0.0000
     10 H3         4.9051    7.4457   17.1215 H         1 RES1    0.0000
     11 C4         4.8074    6.2191   15.3994 C.3       1 RES1    0.0000
     12 H4         5.4381    6.3035   14.6397 H         1 RES1    0.0000
     13 H5         5.1149    5.4926   15.9978 H         1 RES1    0.0000
     14 C5         3.3757    5.9655   14.9057 C.3       1 RES1    0.0000
     15 H6         3.1876    5.0132   14.6680 H         1 RES1    0.0000
     16 C6         3.0882    6.9660   13.7737 C.3       1 RES1    0.0000
     17 H7         2.2391    6.7459   13.3149 H         1 RES1    0.0000
     18 H8         3.8221    6.9681   13.1088 H         1 RES1    0.0000
     19 C7         2.6778    8.9446   17.0171 C.3       1 RES1    0.0000
     20 H9         3.2453    9.7437   16.9869 H         1 RES1    0.0000
     21 H10        2.7139    8.5508   17.9144 H         1 RES1    0.0000
     22 H11        1.7534    9.1921   16.8057 H         1 RES1    0.0000
     23 C8         2.5173    6.5042   16.0477 C.3       1 RES1    0.0000
     24 C9         2.7280    5.7675   17.3742 C.3       1 RES1    0.0000
     25 H12        2.4870    4.8241   17.2661 H         1 RES1    0.0000
     26 H13        2.1627    6.1709   18.0657 H         1 RES1    0.0000
     27 H14        3.6687    5.8357   17.6401 H         1 RES1    0.0000
     28 C10        1.0095    6.4575   15.7618 C.3       1 RES1    0.0000
     29 H15        0.8292    6.8765   14.8940 H         1 RES1    0.0000
     30 H16        0.5276    6.9389   16.4649 H         1 RES1    0.0000
     31 H17        0.7101    5.5238   15.7401 H         1 RES1    0.0000
     32 C11        4.0390    9.3350   13.9971 C.2       1 RES1    0.0000
     33 C12        3.8271   10.7949   14.3402 C.3       1 RES1    0.0000
     34 H18        3.2315   10.8742   15.1401 H         1 RES1    0.0000
     35 C13        5.1601   11.5336   14.6010 C.3       1 RES1    0.0000
     36 H19        5.8959   11.1022   14.0779 H         1 RES1    0.0000
     37 C14        3.2072   11.5827   13.1335 C.3       1 RES1    0.0000
     38 H20        3.0289   10.9502   12.3807 H         1 RES1    0.0000
     39 C15        5.5683   11.6650   16.0488 C.ar      1 RES1    0.0000
     40 C16        6.6867   10.9989   16.5181 C.ar      1 RES1    0.0000
     41 H21        7.1958   10.4571   15.9263 H         1 RES1    0.0000
     42 C17        7.0688   11.1159   17.8396 C.ar      1 RES1    0.0000
     43 H22        7.8397   10.6559   18.1488 H         1 RES1    0.0000
     44 C18        6.3475   11.8877   18.7040 C.ar      1 RES1    0.0000
     45 H23        6.6004   11.9540   19.6183 H         1 RES1    0.0000
     46 C19        5.2436   12.5719   18.2319 C.ar      1 RES1    0.0000
     47 H24        4.7535   13.1313   18.8220 H         1 RES1    0.0000
     48 C20        4.8393   12.4530   16.9150 C.ar      1 RES1    0.0000
     49 H25        4.0657   12.9110   16.6095 H         1 RES1    0.0000
     50 C21        6.0694   13.6104   13.6839 C.3       1 RES1    0.0000
     51 H26        6.4926   13.1839   12.8976 H         1 RES1    0.0000
     52 H27        6.7090   13.5581   14.4386 H         1 RES1    0.0000
     53 C22        5.7919   15.0639   13.3697 C.ar      1 RES1    0.0000
     54 C23        6.6648   15.7665   12.5486 C.ar      1 RES1    0.0000
     55 H28        7.3919   15.3163   12.1347 H         1 RES1    0.0000
     56 C24        6.4790   17.1231   12.3308 C.ar      1 RES1    0.0000
     57 H29        7.0794   17.5928   11.7656 H         1 RES1    0.0000
     58 C25        5.4491   17.7897   12.9176 C.ar      1 RES1    0.0000
     59 H30        5.3395   18.7214   12.7680 H         1 RES1    0.0000
     60 C26        4.5619   17.1095   13.7321 C.ar      1 RES1    0.0000
     61 H31        3.8322   17.5695   14.1294 H         1 RES1    0.0000
     62 C27        4.7397   15.7546   13.9682 C.ar      1 RES1    0.0000
     63 H32        4.1391   15.2929   14.5416 H         1 RES1    0.0000
     64 C28        1.9363   12.2971   13.4944 C.3       1 RES1    0.0000
     65 H33        2.1086   12.9169   14.2341 H         1 RES1    0.0000
     66 H34        1.2595   11.6441   13.7687 H         1 RES1    0.0000
     67 H35        1.6108   12.7980   12.7181 H         1 RES1    0.0000
     68 O4        -2.0003    8.6680   10.4679 O.3       2 RES2    0.0000
     69 H36       -2.2731    8.7730   11.2553 H         2 RES2    0.0000
     70 O5         1.2344    8.7847   11.5253 O.2       2 RES2    0.0000
     71 O6         0.5598    5.2802   12.1169 O.3       2 RES2    0.0000
     72 N2         1.1927    4.8719   10.8422 N.3       2 RES2    0.0000
     73 C29       -0.7579    9.3699   10.2933 C.3       2 RES2    0.0000
     74 C30       -0.5534    9.7242    8.7739 C.3       2 RES2    0.0000
     75 C31        0.9118   10.1708    8.6356 C.3       2 RES2    0.0000
     76 H37        1.1628   10.2641    7.6831 H         2 RES2    0.0000
     77 H38        1.5201    9.5176    9.0644 H         2 RES2    0.0000
     78 C32        0.9730   11.5466    9.3636 C.3       2 RES2    0.0000
     79 H39        1.5886   11.5155   10.1383 H         2 RES2    0.0000
     80 H40        1.2602   12.2659    8.7469 H         2 RES2    0.0000
     81 C33       -0.4742   11.7451    9.8125 C.3       2 RES2    0.0000
     82 H41       -0.7159   12.6947   10.0152 H         2 RES2    0.0000
     83 C34       -0.7235   10.7691   10.9681 C.3       2 RES2    0.0000
     84 H42       -1.5842   10.9658   11.4166 H         2 RES2    0.0000
     85 H43        0.0053   10.8196   11.6360 H         2 RES2    0.0000
     86 C35       -0.9857    8.6590    7.7762 C.3       2 RES2    0.0000
     87 H44       -1.0959    9.0654    6.8918 H         2 RES2    0.0000
     88 H45       -1.8371    8.2682    8.0637 H         2 RES2    0.0000
     89 H46       -0.3034    7.9583    7.7313 H         2 RES2    0.0000
     90 C36       -1.3026   11.1044    8.6555 C.3       2 RES2    0.0000
     91 C37       -1.0994   11.7708    7.2858 C.3       2 RES2    0.0000
     92 H47       -0.1408   11.8838    7.1162 H         2 RES2    0.0000
     93 H48       -1.5378   12.6479    7.2808 H         2 RES2    0.0000
     94 H49       -1.4905   11.2075    6.5860 H         2 RES2    0.0000
     95 C38       -2.8237   11.0613    8.8965 C.3       2 RES2    0.0000
     96 H50       -3.1965   11.9618    8.7951 H         2 RES2    0.0000
     97 H51       -3.0000   10.7358    9.8041 H         2 RES2    0.0000
     98 H52       -3.2407   10.4590    8.2466 H         2 RES2    0.0000
     99 C39        0.3238    8.4126   10.8153 C.2       2 RES2    0.0000
    100 C40        0.1410    6.9323   10.4920 C.3       2 RES2    0.0000
    101 H53       -0.4499    6.8336    9.6911 H         2 RES2    0.0000
    102 C41        1.4715    6.2010   10.2465 C.3       2 RES2    0.0000
    103 H54        2.2023    6.6524   10.7583 H         2 RES2    0.0000
    104 C42       -0.4699    6.1686   11.6843 C.3       2 RES2    0.0000
    105 H55       -0.6805    6.8142   12.4189 H         2 RES2    0.0000
    106 C43        1.8844    6.0476    8.7981 C.ar      2 RES2    0.0000
    107 C44        3.0248    6.6602    8.3264 C.ar      2 RES2    0.0000
    108 H56        3.5604    7.1786    8.9148 H         2 RES2    0.0000
    109 C45        3.3942    6.5198    6.9916 C.ar      2 RES2    0.0000
    110 H57        4.1720    6.9623    6.6724 H         2 RES2    0.0000
    111 C46        2.6661    5.7694    6.1455 C.ar      2 RES2    0.0000
    112 H58        2.9343    5.6759    5.2395 H         2 RES2    0.0000
    113 C47        1.5247    5.1340    6.5993 C.ar      2 RES2    0.0000
    114 H59        1.0108    4.5941    6.0108 H         2 RES2    0.0000
    115 C48        1.1381    5.2911    7.9141 C.ar      2 RES2    0.0000
    116 H60        0.3431    4.8709    8.2200 H         2 RES2    0.0000
    117 C49        2.4132    4.1707   11.2304 C.3       2 RES2    0.0000
    118 H61        2.8340    4.6545   11.9851 H         2 RES2    0.0000
    119 H62        3.0477    4.1867   10.4707 H         2 RES2    0.0000
    120 C50        2.1781    2.7391   11.6386 C.ar      2 RES2    0.0000
    121 C51        1.3425    2.4072   12.6799 C.ar      2 RES2    0.0000
    122 H63        0.8934    3.0933   13.1586 H         2 RES2    0.0000
    123 C52        1.1489    1.0779   13.0389 C.ar      2 RES2    0.0000
    124 H64        0.5505    0.8654   13.7454 H         2 RES2    0.0000
    125 C53        1.8092    0.0780   12.3890 C.ar      2 RES2    0.0000
    126 H65        1.6788   -0.8303   12.6400 H         2 RES2    0.0000
    127 C54        2.6464    0.3957   11.3866 C.ar      2 RES2    0.0000
    128 H66        3.1183   -0.2924   10.9312 H         2 RES2    0.0000
    129 C55        2.8310    1.7328   11.0076 C.ar      2 RES2    0.0000
    130 H67        3.4242    1.9355   10.2945 H         2 RES2    0.0000
    131 C56       -1.7229    5.3971   11.3185 C.3       2 RES2    0.0000
    132 H68       -1.5268    4.7910   10.5738 H         2 RES2    0.0000
    133 H69       -2.4269    6.0248   11.0525 H         2 RES2    0.0000
    134 H70       -2.0233    4.8767   12.0914 H         2 RES2    0.0000
@<TRIPOS>BOND
     1    1    2 1
     2    3   32 2
     3    4    5 1
     4    5   35 1
     5    6    1 1
     6    7    6 1
     7    8    7 1
     8    9    8 1
     9   10    8 1
    10   11    8 1
    11   12   11 1
    12   13   11 1
    13   14   11 1
    14   15   14 1
    15   16    6 1
    16   17   16 1
    17   18   16 1
    18   19    7 1
    19   20   19 1
    20   21   19 1
    21   22   19 1
    22   23    7 1
    23   24   23 1
    24   25   24 1
    25   26   24 1
    26   27   24 1
    27   28   23 1
    28   29   28 1
    29   30   28 1
    30   31   28 1
    31   32    6 1
    32   33   32 1
    33   34   33 1
    34   35   33 1
    35   36   35 1
    36   37    4 1
    37   38   37 1
    38   39   35 1
    39   40   39 ar
    40   41   40 1
    41   42   40 ar
    42   43   42 1
    43   44   42 ar
    44   45   44 1
    45   46   44 ar
    46   47   46 1
    47   48   39 ar
    48   49   48 1
    49   50    5 1
    50   51   50 1
    51   52   50 1
    52   53   50 1
    53   54   53 ar
    54   55   54 1
    55   56   54 ar
    56   57   56 1
    57   58   56 ar
    58   59   58 1
    59   60   58 ar
    60   61   60 1
    61   62   53 ar
    62   63   62 1
    63   64   37 1
    64   65   64 1
    65   66   64 1
    66   67   64 1
    67   68   69 1
    68   70   99 2
    69   71   72 1
    70   72  102 1
    71   73   68 1
    72   74   73 1
    73   75   74 1
    74   76   75 1
    75   77   75 1
    76   78   75 1
    77   79   78 1
    78   80   78 1
    79   81   78 1
    80   82   81 1
    81   83   73 1
    82   84   83 1
    83   85   83 1
    84   86   74 1
    85   87   86 1
    86   88   86 1
    87   89   86 1
    88   90   74 1
    89   91   90 1
    90   92   91 1
    91   93   91 1
    92   94   91 1
    93   95   90 1
    94   96   95 1
    95   97   95 1
    96   98   95 1
    97   99   73 1
    98  100   99 1
    99  101  100 1
   100  102  100 1
   101  103  102 1
   102  104   71 1
   103  105  104 1
   104  106  102 1
   105  107  106 ar
   106  108  107 1
   107  109  107 ar
   108  110  109 1
   109  111  109 ar
   110  112  111 1
   111  113  111 ar
   112  114  113 1
   113  115  106 ar
   114  116  115 1
   115  117   72 1
   116  118  117 1
   117  119  117 1
   118  120  117 1
   119  121  120 ar
   120  122  121 1
   121  123  121 ar
   122  124  123 1
   123  125  123 ar
   124  126  125 1
   125  127  125 ar
   126  128  127 1
   127  129  120 ar
   128  130  129 1
   129  131  104 1
   130  132  131 1
   131  133  131 1
   132  134  131 1
   133   14   16 1
   134   14   23 1
   135   33   37 1
   136   46   48 ar
   137   60   62 ar
   138   81   83 1
   139   81   90 1
   140  100  104 1
   141  113  115 ar
   142  127  129 ar
@<TRIPOS>SUBSTRUCTURE
     1 RES1 1
     2 RES2 68

@<TRIPOS>CRYSIN
   7.4911   19.4913   16.7293  90.0000  96.4679  90.0000   4 1

