# MOL2 file generated by ConQuest
# Please check atom types

@<TRIPOS>MOLECULE
HAVWEH
    44    46     1
SMALL
NO_CHARGES
****
Generated from CSD

@<TRIPOS>ATOM
      1 O1         4.1705   -0.4187   -3.4568 O.3       1 RES1    0.0000
      2 H1         4.1344   -0.4717   -4.2679 H         1 RES1    0.0000
      3 O2         6.5078    1.0167   -1.2761 O.2       1 RES1    0.0000
      4 O3         3.1808   -0.2305    0.7318 O.3       1 RES1    0.0000
      5 N1         4.4418    0.0677    1.3560 N.3       1 RES1    0.0000
      6 C1         5.3670    0.3328   -3.2354 C.3       1 RES1    0.0000
      7 C2         5.6472    0.2882   -1.7346 C.2       1 RES1    0.0000
      8 C3         4.8789   -0.6900   -0.8680 C.3       1 RES1    0.0000
      9 H2         4.9127   -1.6023   -1.2754 H         1 RES1    0.0000
     10 C4         5.4144   -0.7431    0.5849 C.3       1 RES1    0.0000
     11 H3         6.3118   -0.3026    0.6221 H         1 RES1    0.0000
     12 C5         3.4124   -0.2482   -0.6945 C.3       1 RES1    0.0000
     13 H4         3.2708    0.6507   -1.0817 H         1 RES1    0.0000
     14 H5         2.8005   -0.8865   -1.1392 H         1 RES1    0.0000
     15 C6         6.5374   -0.3465   -3.9264 C.3       1 RES1    0.0000
     16 H6         6.5902   -1.2818   -3.6359 H         1 RES1    0.0000
     17 H7         7.3685    0.1155   -3.6917 H         1 RES1    0.0000
     18 H8         6.4077   -0.3123   -4.8966 H         1 RES1    0.0000
     19 C7         5.1958    1.7568   -3.6952 C.3       1 RES1    0.0000
     20 H9         5.0371    1.7714   -4.6618 H         1 RES1    0.0000
     21 H10        6.0073    2.2660   -3.4898 H         1 RES1    0.0000
     22 H11        4.4317    2.1602   -3.2321 H         1 RES1    0.0000
     23 C8         5.5175   -2.1309    1.1702 C.ar      1 RES1    0.0000
     24 C9         4.5093   -3.0825    1.0266 C.ar      1 RES1    0.0000
     25 H12        3.7429   -2.8857    0.5007 H         1 RES1    0.0000
     26 C10        4.6236   -4.3208    1.6528 C.ar      1 RES1    0.0000
     27 H13        3.9354   -4.9679    1.5463 H         1 RES1    0.0000
     28 C11        5.7277   -4.6184    2.4274 C.ar      1 RES1    0.0000
     29 H14        5.7893   -5.4575    2.8677 H         1 RES1    0.0000
     30 C12        6.7365   -3.6943    2.5573 C.ar      1 RES1    0.0000
     31 H15        7.5053   -3.9008    3.0762 H         1 RES1    0.0000
     32 C13        6.6352   -2.4564    1.9304 C.ar      1 RES1    0.0000
     33 H16        7.3394   -1.8251    2.0223 H         1 RES1    0.0000
     34 C14        4.6722    1.4913    1.4148 C.ar      1 RES1    0.0000
     35 C15        5.8847    1.9258    1.9361 C.ar      1 RES1    0.0000
     36 H17        6.5629    1.2948    2.1471 H         1 RES1    0.0000
     37 C16        6.1074    3.2790    2.1499 C.ar      1 RES1    0.0000
     38 H18        6.9361    3.5738    2.5098 H         1 RES1    0.0000
     39 C17        5.1159    4.2004    1.8368 C.ar      1 RES1    0.0000
     40 H19        5.2651    5.1273    1.9813 H         1 RES1    0.0000
     41 C18        3.9229    3.7713    1.3189 C.ar      1 RES1    0.0000
     42 H20        3.2512    4.4050    1.0982 H         1 RES1    0.0000
     43 C19        3.6836    2.4148    1.1121 C.ar      1 RES1    0.0000
     44 H21        2.8479    2.1244    0.7649 H         1 RES1    0.0000
@<TRIPOS>BOND
     1    1    2 1
     2    3    7 2
     3    4    5 1
     4    5   10 1
     5    6    1 1
     6    7    6 1
     7    8    7 1
     8    9    8 1
     9   10    8 1
    10   11   10 1
    11   12    4 1
    12   13   12 1
    13   14   12 1
    14   15    6 1
    15   16   15 1
    16   17   15 1
    17   18   15 1
    18   19    6 1
    19   20   19 1
    20   21   19 1
    21   22   19 1
    22   23   10 1
    23   24   23 ar
    24   25   24 1
    25   26   24 ar
    26   27   26 1
    27   28   26 ar
    28   29   28 1
    29   30   28 ar
    30   31   30 1
    31   32   23 ar
    32   33   32 1
    33   34    5 1
    34   35   34 ar
    35   36   35 1
    36   37   35 ar
    37   38   37 1
    38   39   37 ar
    39   40   39 1
    40   41   39 ar
    41   42   41 1
    42   43   34 ar
    43   44   43 1
    44    8   12 1
    45   30   32 ar
    46   41   43 ar
@<TRIPOS>SUBSTRUCTURE
     1 RES1 1

@<TRIPOS>CRYSIN
   5.9232   16.2667   16.4149  90.0000  90.0000  90.0000  19 1

