# MOL2 file generated by ConQuest
# Please check atom types

@<TRIPOS>MOLECULE
HAVYOS
    51    54     1
SMALL
NO_CHARGES
****
Generated from CSD

@<TRIPOS>ATOM
      1 C1         2.4595    8.9675   16.5431 C.3       1 RES1    0.0000
      2 C2         2.2278    7.8795   17.5912 C.3       1 RES1    0.0000
      3 O1         3.3360    8.3742   15.6202 O.3       1 RES1    0.0000
      4 C3         3.7694    7.1068   16.1287 C.3       1 RES1    0.0000
      5 C4         5.0525    7.2517   16.8857 C.3       1 RES1    0.0000
      6 C5         3.8646    6.1370   15.0004 C.3       1 RES1    0.0000
      7 O2         2.7007    6.7017   16.9817 O.3       1 RES1    0.0000
      8 C6         0.7891    7.6666   18.0017 C.3       1 RES1    0.0000
      9 C7        -0.2230    7.7573   16.8513 C.3       1 RES1    0.0000
     10 O3        -1.2273    8.6413   17.3520 O.3       1 RES1    0.0000
     11 C8        -1.0082    8.8660   18.7261 C.3       1 RES1    0.0000
     12 C9        -1.7357    7.8263   19.5444 C.3       1 RES1    0.0000
     13 C10       -1.3898   10.2428   19.0808 C.3       1 RES1    0.0000
     14 O4         0.4037    8.6994   18.8695 O.3       1 RES1    0.0000
     15 C11        0.3825    8.3417   15.5857 C.3       1 RES1    0.0000
     16 O5         1.2792    9.4051   15.9018 O.3       1 RES1    0.0000
     17 C12       -0.6382    8.9478   14.6638 C.3       1 RES1    0.0000
     18 C13       -1.7194    7.9987   14.1807 C.3       1 RES1    0.0000
     19 C14       -1.4167    7.9268   12.7274 C.2       1 RES1    0.0000
     20 N1        -0.4738    8.6807   12.3425 N.2       1 RES1    0.0000
     21 O6         0.0346    9.3795   13.4278 O.3       1 RES1    0.0000
     22 C15       -2.1625    7.0546   11.7981 C.2       1 RES1    0.0000
     23 O7        -3.1659    6.4810   12.1374 O.2       1 RES1    0.0000
     24 O8        -1.5800    6.9195   10.6222 O.3       1 RES1    0.0000
     25 C16       -2.2048    6.0069    9.6850 C.3       1 RES1    0.0000
     26 C17       -1.3898    5.9843    8.5013 C.3       1 RES1    0.0000
     27 H1         2.8516    9.8604   17.0068 H         1 RES1    0.0000
     28 H2         2.7286    8.1682   18.5043 H         1 RES1    0.0000
     29 H3         5.3610    6.2858   17.2591 H         1 RES1    0.0000
     30 H4         4.9064    7.9278   17.7166 H         1 RES1    0.0000
     31 H5         5.8156    7.6449   16.2313 H         1 RES1    0.0000
     32 H6         4.6709    6.4287   14.3419 H         1 RES1    0.0000
     33 H7         2.9352    6.1331   14.4506 H         1 RES1    0.0000
     34 H8         4.0578    5.1485   15.3882 H         1 RES1    0.0000
     35 H9         0.7708    6.6741   18.4264 H         1 RES1    0.0000
     36 H10       -0.5901    6.7796   16.5760 H         1 RES1    0.0000
     37 H11       -1.5599    8.0086   20.5948 H         1 RES1    0.0000
     38 H12       -1.3715    6.8437   19.2860 H         1 RES1    0.0000
     39 H13       -2.7949    7.8814   19.3414 H         1 RES1    0.0000
     40 H14       -1.2177   10.4045   20.1353 H         1 RES1    0.0000
     41 H15       -2.4354   10.3936   18.8613 H         1 RES1    0.0000
     42 H16       -0.7958   10.9396   18.5085 H         1 RES1    0.0000
     43 H17        0.8708    7.5079   15.1030 H         1 RES1    0.0000
     44 H18       -1.0908    9.7362   15.2466 H         1 RES1    0.0000
     45 H19       -2.7055    8.4018   14.3583 H         1 RES1    0.0000
     46 H20       -1.6358    7.0309   14.6517 H         1 RES1    0.0000
     47 H21       -3.2005    6.3489    9.4430 H         1 RES1    0.0000
     48 H22       -2.2586    5.0184   10.1158 H         1 RES1    0.0000
     49 H23       -1.8271    5.3092    7.7792 H         1 RES1    0.0000
     50 H24       -0.3950    5.6452    8.7516 H         1 RES1    0.0000
     51 H25       -1.3359    6.9767    8.0787 H         1 RES1    0.0000
@<TRIPOS>BOND
     1    1    2 1
     2    2    7 1
     3    3    1 1
     4    4    3 1
     5    5    4 1
     6    6    4 1
     7    7    4 1
     8    8    2 1
     9    9    8 1
    10   10    9 1
    11   11   10 1
    12   12   11 1
    13   13   11 1
    14   14    8 1
    15   15    9 1
    16   16    1 1
    17   17   15 1
    18   18   17 1
    19   19   18 1
    20   20   19 2
    21   21   17 1
    22   22   19 1
    23   23   22 2
    24   24   22 1
    25   25   24 1
    26   26   25 1
    27   27    1 1
    28   28    2 1
    29   29    5 1
    30   30    5 1
    31   31    5 1
    32   32    6 1
    33   33    6 1
    34   34    6 1
    35   35    8 1
    36   36    9 1
    37   37   12 1
    38   38   12 1
    39   39   12 1
    40   40   13 1
    41   41   13 1
    42   42   13 1
    43   43   15 1
    44   44   17 1
    45   45   18 1
    46   46   18 1
    47   47   25 1
    48   48   25 1
    49   49   26 1
    50   50   26 1
    51   51   26 1
    52   11   14 1
    53   15   16 1
    54   20   21 1
@<TRIPOS>SUBSTRUCTURE
     1 RES1 1

@<TRIPOS>CRYSIN
   9.6110    9.8555   20.5148  90.0000  90.0000  90.0000  19 1

