# MOL2 file generated by ConQuest
# Please check atom types

@<TRIPOS>MOLECULE
HAVYIM
    51    54     1
SMALL
NO_CHARGES
****
Generated from CSD

@<TRIPOS>ATOM
      1 C1         0.9768    3.4496    3.4445 C.3       1 RES1    0.0000
      2 C2         1.8685    2.7908    2.4004 C.3       1 RES1    0.0000
      3 O1         2.9606    2.2731    3.1539 O.3       1 RES1    0.0000
      4 C3         2.4165    1.9274    4.4323 C.3       1 RES1    0.0000
      5 C4         1.8243    0.5555    4.4240 C.3       1 RES1    0.0000
      6 C5         3.5080    2.1002    5.4592 C.3       1 RES1    0.0000
      7 O2         1.4184    2.8972    4.6665 O.3       1 RES1    0.0000
      8 C6         2.4081    3.7186    1.3490 C.3       1 RES1    0.0000
      9 C7         2.9152    5.0567    1.8768 C.3       1 RES1    0.0000
     10 O3         2.3857    6.0000    0.9861 O.3       1 RES1    0.0000
     11 C8         1.5668    5.3810   -0.0033 C.3       1 RES1    0.0000
     12 C9         2.3101    5.3555   -1.2976 C.3       1 RES1    0.0000
     13 C10        0.2939    6.1115   -0.1259 C.3       1 RES1    0.0000
     14 O4         1.3266    4.0736    0.4990 O.3       1 RES1    0.0000
     15 C11        2.4210    5.3248    3.3033 C.3       1 RES1    0.0000
     16 O5         1.0938    4.8532    3.4843 O.3       1 RES1    0.0000
     17 C12        2.3594    6.7856    3.6635 C.3       1 RES1    0.0000
     18 C13        2.0778    7.0414    5.1477 C.3       1 RES1    0.0000
     19 C14        3.3782    7.6286    5.5675 C.2       1 RES1    0.0000
     20 N1         4.2256    7.8086    4.6467 N.2       1 RES1    0.0000
     21 O6         3.6967    7.3646    3.4379 O.3       1 RES1    0.0000
     22 C15        3.6295    7.9918    6.9668 C.2       1 RES1    0.0000
     23 O7         2.8945    7.6623    7.8317 O.2       1 RES1    0.0000
     24 O8         4.7154    8.6987    7.1388 O.3       1 RES1    0.0000
     25 C16        5.0138    9.0526    8.5196 C.3       1 RES1    0.0000
     26 C17        5.7151   10.1483    8.6054 C.3       1 RES1    0.0000
     27 H1        -0.0649    3.2654    3.2241 H         1 RES1    0.0000
     28 H2         1.2930    2.0603    1.8523 H         1 RES1    0.0000
     29 H3         2.6023   -0.1719    4.2447 H         1 RES1    0.0000
     30 H4         1.0831    0.4900    3.6416 H         1 RES1    0.0000
     31 H5         1.3585    0.3570    5.3780 H         1 RES1    0.0000
     32 H6         4.2799    1.3637    5.2918 H         1 RES1    0.0000
     33 H7         3.0983    1.9734    6.4516 H         1 RES1    0.0000
     34 H8         3.9295    3.0905    5.3680 H         1 RES1    0.0000
     35 H9         3.2276    3.1897    0.8847 H         1 RES1    0.0000
     36 H10        3.9933    5.0864    1.9285 H         1 RES1    0.0000
     37 H11        1.6961    4.8879   -2.0511 H         1 RES1    0.0000
     38 H12        3.2242    4.7928   -1.1796 H         1 RES1    0.0000
     39 H13        2.5452    6.3652   -1.6005 H         1 RES1    0.0000
     40 H14        0.4836    7.1038   -0.5070 H         1 RES1    0.0000
     41 H15       -0.1752    6.1831    0.8450 H         1 RES1    0.0000
     42 H16       -0.3610    5.5836   -0.8052 H         1 RES1    0.0000
     43 H17        3.1425    4.8153    3.9233 H         1 RES1    0.0000
     44 H18        1.5690    7.2143    3.0651 H         1 RES1    0.0000
     45 H19        1.8646    6.1227    5.6762 H         1 RES1    0.0000
     46 H20        1.2617    7.7350    5.2885 H         1 RES1    0.0000
     47 H21        5.5780    8.2475    8.9666 H         1 RES1    0.0000
     48 H22        4.0879    9.1856    9.0594 H         1 RES1    0.0000
     49 H23        5.9200   10.3692    9.6426 H         1 RES1    0.0000
     50 H24        5.1576   10.9626    8.1680 H         1 RES1    0.0000
     51 H25        6.6477   10.0235    8.0752 H         1 RES1    0.0000
@<TRIPOS>BOND
     1    1    2 1
     2    2    3 1
     3    3    4 1
     4    4    5 1
     5    5   29 1
     6    6    4 1
     7    7    1 1
     8    8    2 1
     9    9    8 1
    10   10    9 1
    11   11   10 1
    12   12   11 1
    13   13   11 1
    14   14    8 1
    15   15    9 1
    16   16    1 1
    17   17   15 1
    18   18   17 1
    19   19   18 1
    20   20   19 2
    21   21   17 1
    22   22   19 1
    23   23   22 2
    24   24   22 1
    25   25   24 1
    26   26   25 1
    27   27    1 1
    28   28    2 1
    29   30    5 1
    30   31    5 1
    31   32    6 1
    32   33    6 1
    33   34    6 1
    34   35    8 1
    35   36    9 1
    36   37   12 1
    37   38   12 1
    38   39   12 1
    39   40   13 1
    40   41   13 1
    41   42   13 1
    42   43   15 1
    43   44   17 1
    44   45   18 1
    45   46   18 1
    46   47   25 1
    47   48   25 1
    48   49   26 1
    49   50   26 1
    50   51   26 1
    51    4    7 1
    52   11   14 1
    53   15   16 1
    54   20   21 1
@<TRIPOS>SUBSTRUCTURE
     1 RES1 1

@<TRIPOS>CRYSIN
   5.5976   10.2301   33.1360  90.0000  90.0000  90.0000  19 1

