# MOL2 file generated by ConQuest
# Please check atom types

@<TRIPOS>MOLECULE
HAWHUI
    30    34     1
SMALL
NO_CHARGES
****
Generated from CSD

@<TRIPOS>ATOM
      1 C1         3.8175    3.8720   18.0797 C.2       1 RES1    0.0000
      2 C2         2.7907    3.9665   18.9049 C.2       1 RES1    0.0000
      3 C3         2.1262    2.7267   19.4315 C.3       1 RES1    0.0000
      4 C4         2.1386    1.6424   18.3864 C.3       1 RES1    0.0000
      5 C5         3.6260    1.3862   18.2976 C.3       1 RES1    0.0000
      6 C6         4.0007    0.0412   17.6782 C.3       1 RES1    0.0000
      7 C7         3.6805   -0.0061   16.1731 C.3       1 RES1    0.0000
      8 C8         4.3878    1.0980   15.4084 C.3       1 RES1    0.0000
      9 C9         4.0205    2.4690   16.0117 C.3       1 RES1    0.0000
     10 C10        4.3408    2.5574   17.5390 C.3       1 RES1    0.0000
     11 C11        4.5942    3.6173   15.1885 C.3       1 RES1    0.0000
     12 C12        4.2640    3.5441   13.6834 C.3       1 RES1    0.0000
     13 C13        4.6759    2.1884   13.0801 C.3       1 RES1    0.0000
     14 C14        3.9842    1.0965   13.9335 C.3       1 RES1    0.0000
     15 C15        4.1848   -0.1860   13.1386 C.3       1 RES1    0.0000
     16 C16        4.1650    0.2684   11.6718 C.3       1 RES1    0.0000
     17 C17        4.0907    1.8209   11.6799 C.3       1 RES1    0.0000
     18 C18        6.1963    2.0649   13.0640 C.3       1 RES1    0.0000
     19 C19        5.8562    2.5407   17.7811 C.3       1 RES1    0.0000
     20 C20        4.7246    2.4583   10.4310 C.3       1 RES1    0.0000
     21 C21        4.5834    3.9757   10.4108 C.3       1 RES1    0.0000
     22 C22        4.1204    1.8544    9.1559 C.3       1 RES1    0.0000
     23 C23        4.7510    2.2906    7.8586 C.3       1 RES1    0.0000
     24 C24        4.1022    1.6043    6.6561 C.3       1 RES1    0.0000
     25 C25        4.7411    1.9002    5.3164 C.3       1 RES1    0.0000
     26 C26        4.0403    1.0660    4.2269 C.3       1 RES1    0.0000
     27 C27        4.7056    3.3535    4.9330 C.3       1 RES1    0.0000
     28 N1         4.0593    1.4686   19.7483 N.3       1 RES1    0.0000
     29 O1         2.9483    2.1564   20.4564 O.3       1 RES1    0.0000
     30 C28        4.0833    0.1998   20.4665 C.3       1 RES1    0.0000
@<TRIPOS>BOND
     1    1    2 2
     2    2    3 1
     3    3    4 1
     4    4    5 1
     5    5    6 1
     6    6    7 1
     7    7    8 1
     8    8    9 1
     9    9   10 1
    10   10    1 1
    11   11    9 1
    12   12   11 1
    13   13   12 1
    14   14    8 1
    15   15   14 1
    16   16   15 1
    17   17   13 1
    18   18   13 1
    19   19   10 1
    20   20   17 1
    21   21   20 1
    22   22   20 1
    23   23   22 1
    24   24   23 1
    25   25   24 1
    26   26   25 1
    27   27   25 1
    28   28    5 1
    29   29    3 1
    30   30   28 1
    31    5   10 1
    32   13   14 1
    33   16   17 1
    34   28   29 1
@<TRIPOS>SUBSTRUCTURE
     1 RES1 1

@<TRIPOS>CRYSIN
   8.2540   15.2500   20.1760  90.0000  90.0000  90.0000  19 1

