# MOL2 file generated by ConQuest
# Please check atom types

@<TRIPOS>MOLECULE
HAWMAU
    28    28     1
SMALL
NO_CHARGES
****
Generated from CSD

@<TRIPOS>ATOM
      1 C1        -0.0474    3.7075    8.8603 C.2       1 RES1    0.0000
      2 C2         0.0677    4.8916    8.2640 C.2       1 RES1    0.0000
      3 H1        -0.0882    5.6131    8.8302 H         1 RES1    0.0000
      4 C3         0.3895    5.2728    6.8990 C.ar      1 RES1    0.0000
      5 C4         0.5266    6.6387    6.6405 C.ar      1 RES1    0.0000
      6 H2         0.3891    7.2495    7.3298 H         1 RES1    0.0000
      7 C5         0.8583    7.0980    5.3944 C.ar      1 RES1    0.0000
      8 H3         0.9136    8.0129    5.2426 H         1 RES1    0.0000
      9 C6         1.1112    6.2238    4.3659 C.ar      1 RES1    0.0000
     10 C7         0.9577    4.8742    4.5792 C.ar      1 RES1    0.0000
     11 H4         1.0929    4.2716    3.8831 H         1 RES1    0.0000
     12 C8         0.6036    4.4196    5.8294 C.ar      1 RES1    0.0000
     13 H5         0.5041    3.5047    5.9607 H         1 RES1    0.0000
     14 C9         1.9356    5.8951    2.1474 C.3       1 RES1    0.0000
     15 H6         2.6368    5.3357    2.4907 H         1 RES1    0.0000
     16 H7         2.2689    6.4068    1.4074 H         1 RES1    0.0000
     17 H8         1.2047    5.3462    1.8533 H         1 RES1    0.0000
     18 C10       -0.4117    3.4371   10.2486 C.2       1 RES1    0.0000
     19 C11       -1.1271    4.3753   12.2756 C.3       1 RES1    0.0000
     20 H9        -1.9484    3.8788   12.2989 H         1 RES1    0.0000
     21 H10       -1.2620    5.2343   12.6818 H         1 RES1    0.0000
     22 H11       -0.4501    3.8951   12.7584 H         1 RES1    0.0000
     23 N1         0.2289    2.4429    8.1327 N.pl3     1 RES1    0.0000
     24 O1         1.3656    2.0350    8.0793 O.2       1 RES1    0.0000
     25 O2        -0.7378    1.8881    7.6362 O.2       1 RES1    0.0000
     26 O3        -0.5000    2.3322   10.7108 O.2       1 RES1    0.0000
     27 O4        -0.7094    4.5502   10.9087 O.3       1 RES1    0.0000
     28 O5         1.4823    6.7844    3.1794 O.3       1 RES1    0.0000
@<TRIPOS>BOND
     1    1    2 2
     2    2    3 1
     3    4    2 1
     4    5    4 ar
     5    6    5 1
     6    7    5 ar
     7    8    7 1
     8    9    7 ar
     9   10    9 ar
    10   11   10 1
    11   12    4 ar
    12   13   12 1
    13   14   15 1
    14   16   14 1
    15   17   14 1
    16   18    1 1
    17   19   20 1
    18   21   19 1
    19   22   19 1
    20   23    1 1
    21   24   23 2
    22   25   23 2
    23   26   18 2
    24   27   18 1
    25   28    9 1
    26   10   12 ar
    27   14   28 1
    28   19   27 1
@<TRIPOS>SUBSTRUCTURE
     1 RES1 1

@<TRIPOS>CRYSIN
   7.1832   11.6551   13.9330  90.0000 100.9880  90.0000 231 1

