# MOL2 file generated by ConQuest
# Please check atom types

@<TRIPOS>MOLECULE
HAWMEY
   156   164     2
SMALL
NO_CHARGES
****
Generated from CSD

@<TRIPOS>ATOM
      1 O1        -2.8732   14.0805    2.0906 O.2       1 RES1    0.0000
      2 O2        -1.1134   13.1645    1.2697 O.2       1 RES1    0.0000
      3 O3        -0.9535   11.9155    8.3736 O.2       1 RES1    0.0000
      4 O4         0.4323   10.4603    7.3600 O.3       1 RES1    0.0000
      5 O5         1.9309   11.7969    9.5291 O.2       1 RES1    0.0000
      6 O6         0.2028   11.4750   11.9713 O.3       1 RES1    0.0000
      7 O7        -1.5358    9.0723   11.3389 O.3       1 RES1    0.0000
      8 N1        -1.8597   13.4231    2.2063 N.pl3     1 RES1    0.0000
      9 C1         0.7651    9.8547    8.6403 C.3       1 RES1    0.0000
     10 C2         1.1005   10.9180    9.6999 C.2       1 RES1    0.0000
     11 C3         0.2911   10.6579   10.8727 C.2       1 RES1    0.0000
     12 C4        -0.5451    9.6200   10.6248 C.2       1 RES1    0.0000
     13 C5        -0.3608    9.0020    9.2772 C.3       1 RES1    0.0000
     14 H1        -1.2014    9.0756    8.7400 H         1 RES1    0.0000
     15 C6         0.1482    7.5356    9.2933 C.3       1 RES1    0.0000
     16 H2        -0.1704    7.0615   10.1025 H         1 RES1    0.0000
     17 H3        -0.1629    7.0460    8.4909 H         1 RES1    0.0000
     18 C7         1.6937    7.6594    9.2981 C.3       1 RES1    0.0000
     19 C8         2.2383    7.7875   10.7457 C.3       1 RES1    0.0000
     20 H4         2.8814    8.5371   10.8164 H         1 RES1    0.0000
     21 H5         1.5003    7.9351   11.3898 H         1 RES1    0.0000
     22 C9         2.9240    6.4570   11.0011 C.3       1 RES1    0.0000
     23 H6         2.2637    5.7405   11.1783 H         1 RES1    0.0000
     24 H7         3.5519    6.5172   11.7656 H         1 RES1    0.0000
     25 C10        3.6681    6.2140    9.6949 C.3       1 RES1    0.0000
     26 H8         4.3725    6.9204    9.6363 H         1 RES1    0.0000
     27 C11        2.6102    6.5573    8.6044 C.3       1 RES1    0.0000
     28 C12        3.2369    7.2762    7.3761 C.3       1 RES1    0.0000
     29 H9         4.2196    7.3433    7.4777 H         1 RES1    0.0000
     30 H10        3.0360    6.7798    6.5439 H         1 RES1    0.0000
     31 C13        2.6182    8.6388    7.3367 C.2       1 RES1    0.0000
     32 H11        2.7618    9.2712    6.6427 H         1 RES1    0.0000
     33 C14        1.8480    8.8528    8.3869 C.2       1 RES1    0.0000
     34 C15       -0.4630   11.4645    7.3640 C.2       1 RES1    0.0000
     35 C16       -0.7910   11.9531    6.0000 C.ar      1 RES1    0.0000
     36 C17       -1.7623   12.9467    5.8909 C.ar      1 RES1    0.0000
     37 H12       -2.1741   13.2943    6.6733 H         1 RES1    0.0000
     38 C18       -2.1295   13.4293    4.6414 C.ar      1 RES1    0.0000
     39 H13       -2.7961   14.0998    4.5523 H         1 RES1    0.0000
     40 C19       -1.4985   12.9055    3.5389 C.ar      1 RES1    0.0000
     41 C20       -0.5276   11.9249    3.6150 C.ar      1 RES1    0.0000
     42 H14       -0.1151   11.5877    2.8294 H         1 RES1    0.0000
     43 C21       -0.1717   11.4462    4.8620 C.ar      1 RES1    0.0000
     44 H15        0.4941   10.7733    4.9420 H         1 RES1    0.0000
     45 C22        1.3662   12.1689   12.4392 C.3       1 RES1    0.0000
     46 H16        1.7840   12.6797   11.6890 H         1 RES1    0.0000
     47 C23        0.9165   13.1015   13.4955 C.3       1 RES1    0.0000
     48 H17        0.2548   13.7214   13.1239 H         1 RES1    0.0000
     49 H18        1.6835   13.6075   13.8337 H         1 RES1    0.0000
     50 H19        0.5108   12.5935   14.2289 H         1 RES1    0.0000
     51 C24        2.3569   11.1616   12.9987 C.3       1 RES1    0.0000
     52 H20        1.9613   10.7045   13.7697 H         1 RES1    0.0000
     53 H21        3.1724   11.6277   13.2784 H         1 RES1    0.0000
     54 H22        2.5790   10.5025   12.3070 H         1 RES1    0.0000
     55 C25       -1.7012    9.3930   12.7558 C.3       1 RES1    0.0000
     56 H23       -1.5755   10.3734   12.9026 H         1 RES1    0.0000
     57 C26       -3.1144    8.9950   13.0989 C.3       1 RES1    0.0000
     58 H24       -3.7405    9.4877   12.5296 H         1 RES1    0.0000
     59 H25       -3.2935    9.2054   14.0397 H         1 RES1    0.0000
     60 H26       -3.2282    8.0333   12.9527 H         1 RES1    0.0000
     61 C27       -0.6732    8.6236   13.5289 C.3       1 RES1    0.0000
     62 H27       -0.7568    7.6682   13.3229 H         1 RES1    0.0000
     63 H28       -0.8127    8.7643   14.4878 H         1 RES1    0.0000
     64 H29        0.2231    8.9328   13.2798 H         1 RES1    0.0000
     65 C28        4.3914    4.8660    9.5555 C.3       1 RES1    0.0000
     66 H30        3.7008    4.1468    9.4734 H         1 RES1    0.0000
     67 C29        5.2397    4.5802   10.8081 C.3       1 RES1    0.0000
     68 H31        5.7080    3.7266   10.6968 H         1 RES1    0.0000
     69 H32        4.6562    4.5320   11.5944 H         1 RES1    0.0000
     70 H33        5.8947    5.2987   10.9306 H         1 RES1    0.0000
     71 C30        5.2790    4.8142    8.3280 C.3       1 RES1    0.0000
     72 H34        4.7303    4.9121    7.5222 H         1 RES1    0.0000
     73 H35        5.7499    3.9537    8.3002 H         1 RES1    0.0000
     74 H36        5.9347    5.5426    8.3670 H         1 RES1    0.0000
     75 C31        1.8081    5.3334    8.1638 C.3       1 RES1    0.0000
     76 H37        2.4010    4.7024    7.7046 H         1 RES1    0.0000
     77 H38        1.0934    5.6134    7.5543 H         1 RES1    0.0000
     78 H39        1.4165    4.9003    8.9501 H         1 RES1    0.0000
     79 O8        -1.0636    2.9505   13.7166 O.2       2 RES2    0.0000
     80 O9        -2.9794    3.5553   14.5112 O.2       2 RES2    0.0000
     81 O10       -4.3508    6.9702    8.6696 O.2       2 RES2    0.0000
     82 O11       -2.5914    5.9094    7.7374 O.3       2 RES2    0.0000
     83 O12       -4.8512    4.9631    6.1966 O.2       2 RES2    0.0000
     84 O13       -6.3179    7.4081    5.1700 O.3       2 RES2    0.0000
     85 O14       -4.2268    9.6109    5.3091 O.3       2 RES2    0.0000
     86 N2        -2.1289    3.5414   13.6319 N.pl3     2 RES2    0.0000
     87 C32       -2.9229    6.4302    6.4226 C.3       2 RES2    0.0000
     88 C33       -4.3831    6.0847    6.0626 C.2       2 RES2    0.0000
     89 C34       -5.0075    7.2798    5.5489 C.2       2 RES2    0.0000
     90 C35       -4.1435    8.3181    5.6408 C.2       2 RES2    0.0000
     91 C36       -2.8185    7.9630    6.2490 C.3       2 RES2    0.0000
     92 H40       -2.6998    8.4141    7.1340 H         2 RES2    0.0000
     93 C37       -1.6057    8.2344    5.3239 C.3       2 RES2    0.0000
     94 H41       -1.7556    9.0407    4.7708 H         2 RES2    0.0000
     95 H42       -0.7778    8.3554    5.8522 H         2 RES2    0.0000
     96 C38       -1.5207    6.9696    4.4450 C.3       2 RES2    0.0000
     97 C39       -2.4295    7.1114    3.2010 C.3       2 RES2    0.0000
     98 H43       -2.9315    6.2745    3.0312 H         2 RES2    0.0000
     99 H44       -3.0729    7.8550    3.3137 H         2 RES2    0.0000
    100 C40       -1.4556    7.4011    2.0716 C.3       2 RES2    0.0000
    101 H45       -1.1238    8.3319    2.1168 H         2 RES2    0.0000
    102 H46       -1.8759    7.2488    1.1885 H         2 RES2    0.0000
    103 C41       -0.3324    6.4044    2.3238 C.3       2 RES2    0.0000
    104 H47       -0.7079    5.4983    2.1279 H         2 RES2    0.0000
    105 C42       -0.1277    6.4721    3.8725 C.3       2 RES2    0.0000
    106 C43        0.0779    5.0594    4.5273 C.3       2 RES2    0.0000
    107 H48        0.0070    4.3457    3.8453 H         2 RES2    0.0000
    108 H49        0.9659    5.0011    4.9601 H         2 RES2    0.0000
    109 C44       -1.0189    4.9272    5.5491 C.2       2 RES2    0.0000
    110 H50       -1.0803    4.2174    6.1764 H         2 RES2    0.0000
    111 C45       -1.8854    5.9205    5.4657 C.2       2 RES2    0.0000
    112 C46       -3.4072    6.2246    8.7609 C.2       2 RES2    0.0000
    113 C47       -3.0079    5.5395   10.0298 C.ar      2 RES2    0.0000
    114 C48       -3.7918    5.7553   11.1493 C.ar      2 RES2    0.0000
    115 H51       -4.5340    6.3472   11.0990 H         2 RES2    0.0000
    116 C49       -3.5006    5.1127   12.3462 C.ar      2 RES2    0.0000
    117 H52       -4.0372    5.2497   13.1183 H         2 RES2    0.0000
    118 C50       -2.4113    4.2737   12.3785 C.ar      2 RES2    0.0000
    119 C51       -1.5973    4.0633   11.2910 C.ar      2 RES2    0.0000
    120 H53       -0.8382    3.4972   11.3578 H         2 RES2    0.0000
    121 C52       -1.9067    4.6939   10.0946 C.ar      2 RES2    0.0000
    122 H54       -1.3695    4.5491    9.3245 H         2 RES2    0.0000
    123 C53       -7.0094    6.2677    4.5735 C.3       2 RES2    0.0000
    124 H55       -7.0392    5.5142    5.2315 H         2 RES2    0.0000
    125 C54       -6.3264    5.8113    3.3220 C.3       2 RES2    0.0000
    126 H56       -6.3124    6.5443    2.6721 H         2 RES2    0.0000
    127 H57       -6.8134    5.0481    2.9449 H         2 RES2    0.0000
    128 H58       -5.4085    5.5407    3.5308 H         2 RES2    0.0000
    129 C55       -8.4042    6.7700    4.3227 C.3       2 RES2    0.0000
    130 H59       -8.8080    7.0496    5.1702 H         2 RES2    0.0000
    131 H60       -8.9420    6.0544    3.9246 H         2 RES2    0.0000
    132 H61       -8.3705    7.5325    3.7089 H         2 RES2    0.0000
    133 C56       -5.4022   10.1575    4.6095 C.3       2 RES2    0.0000
    134 H62       -6.2400    9.7789    5.0046 H         2 RES2    0.0000
    135 C57       -5.3351   11.6319    4.8696 C.3       2 RES2    0.0000
    136 H63       -5.3963   11.7961    5.8341 H         2 RES2    0.0000
    137 H64       -6.0797   12.0781    4.4145 H         2 RES2    0.0000
    138 H65       -4.4859   11.9854    4.5300 H         2 RES2    0.0000
    139 C58       -5.3257    9.8158    3.1577 C.3       2 RES2    0.0000
    140 H66       -4.5073   10.1977    2.7751 H         2 RES2    0.0000
    141 H67       -6.1057   10.1841    2.6944 H         2 RES2    0.0000
    142 H68       -5.3124    8.8425    3.0506 H         2 RES2    0.0000
    143 C59        0.9122    6.5588    1.4414 C.3       2 RES2    0.0000
    144 H69        1.3815    7.3990    1.7132 H         2 RES2    0.0000
    145 C60        1.8783    5.4011    1.6255 C.3       2 RES2    0.0000
    146 H70        1.4553    4.5714    1.3221 H         2 RES2    0.0000
    147 H71        2.1149    5.3200    2.5733 H         2 RES2    0.0000
    148 H72        2.6880    5.5658    1.0995 H         2 RES2    0.0000
    149 C61        0.5309    6.6854   -0.0320 C.3       2 RES2    0.0000
    150 H73        1.3439    6.7134   -0.5776 H         2 RES2    0.0000
    151 H74        0.0186    7.5091   -0.1670 H         2 RES2    0.0000
    152 H75       -0.0126    5.9147   -0.2964 H         2 RES2    0.0000
    153 C62        1.0062    7.4092    4.2776 C.3       2 RES2    0.0000
    154 H76        1.8572    7.0566    3.9427 H         2 RES2    0.0000
    155 H77        1.0420    7.4751    5.2551 H         2 RES2    0.0000
    156 H78        0.8476    8.2970    3.8954 H         2 RES2    0.0000
@<TRIPOS>BOND
     1    1    8 2
     2    2    8 2
     3    3   34 2
     4    4    9 1
     5    5   10 2
     6    6   11 1
     7    7   12 1
     8    8   40 1
     9    9   10 1
    10   10   11 1
    11   11   12 2
    12   12   13 1
    13   13    9 1
    14   14   13 1
    15   15   13 1
    16   16   15 1
    17   17   15 1
    18   18   15 1
    19   19   18 1
    20   20   19 1
    21   21   19 1
    22   22   19 1
    23   23   22 1
    24   24   22 1
    25   25   22 1
    26   26   25 1
    27   27   18 1
    28   28   27 1
    29   29   28 1
    30   30   28 1
    31   31   28 1
    32   32   31 1
    33   33    9 1
    34   34    4 1
    35   35   34 1
    36   36   35 ar
    37   37   36 1
    38   38   36 ar
    39   39   38 1
    40   40   38 ar
    41   41   40 ar
    42   42   41 1
    43   43   35 ar
    44   44   43 1
    45   45    6 1
    46   46   45 1
    47   47   45 1
    48   48   47 1
    49   49   47 1
    50   50   47 1
    51   51   45 1
    52   52   51 1
    53   53   51 1
    54   54   51 1
    55   55    7 1
    56   56   55 1
    57   57   55 1
    58   58   57 1
    59   59   57 1
    60   60   57 1
    61   61   55 1
    62   62   61 1
    63   63   61 1
    64   64   61 1
    65   65   25 1
    66   66   65 1
    67   67   65 1
    68   68   67 1
    69   69   67 1
    70   70   67 1
    71   71   65 1
    72   72   71 1
    73   73   71 1
    74   74   71 1
    75   75   27 1
    76   76   75 1
    77   77   75 1
    78   78   75 1
    79   79   86 2
    80   80   86 2
    81   81  112 2
    82   82   87 1
    83   83   88 2
    84   84   89 1
    85   85   90 1
    86   86  118 1
    87   87   88 1
    88   88   89 1
    89   89   90 2
    90   90   91 1
    91   91   87 1
    92   92   91 1
    93   93   91 1
    94   94   93 1
    95   95   93 1
    96   96   93 1
    97   97   96 1
    98   98   97 1
    99   99   97 1
   100  100   97 1
   101  101  100 1
   102  102  100 1
   103  103  100 1
   104  104  103 1
   105  105   96 1
   106  106  105 1
   107  107  106 1
   108  108  106 1
   109  109  106 1
   110  110  109 1
   111  111   87 1
   112  112   82 1
   113  113  112 1
   114  114  113 ar
   115  115  114 1
   116  116  114 ar
   117  117  116 1
   118  118  116 ar
   119  119  118 ar
   120  120  119 1
   121  121  113 ar
   122  122  121 1
   123  123   84 1
   124  124  123 1
   125  125  123 1
   126  126  125 1
   127  127  125 1
   128  128  125 1
   129  129  123 1
   130  130  129 1
   131  131  129 1
   132  132  129 1
   133  133   85 1
   134  134  133 1
   135  135  133 1
   136  136  135 1
   137  137  135 1
   138  138  135 1
   139  139  133 1
   140  140  139 1
   141  141  139 1
   142  142  139 1
   143  143  103 1
   144  144  143 1
   145  145  143 1
   146  146  145 1
   147  147  145 1
   148  148  145 1
   149  149  143 1
   150  150  149 1
   151  151  149 1
   152  152  149 1
   153  153  105 1
   154  154  153 1
   155  155  153 1
   156  156  153 1
   157   18   33 1
   158   25   27 1
   159   31   33 2
   160   41   43 ar
   161   96  111 1
   162  103  105 1
   163  109  111 2
   164  119  121 ar
@<TRIPOS>SUBSTRUCTURE
     1 RES1 1
     2 RES2 79

@<TRIPOS>CRYSIN
  14.1990   15.3730   15.7040 115.9180  90.9790 107.2410   2 1

