# MOL2 file generated by ConQuest
# Please check atom types

@<TRIPOS>MOLECULE
HAWVIL
    73    71     2
SMALL
NO_CHARGES
****
Generated from CSD

@<TRIPOS>ATOM
      1 O1         3.4457   -5.7075   -2.6989 O.3       1 RES1    0.0000
      2 O2         4.1328   -9.4965   -2.9192 O.3       1 RES1    0.0000
      3 N1         4.3892   -4.7841   -2.2894 N.2       1 RES1    0.0000
      4 N2         6.4502   -7.2333   -3.2159 N.1       1 RES1    0.0000
      5 C1         3.8342   -3.8681   -1.4258 C.ar      1 RES1    0.0000
      6 C2         2.4399   -3.5982   -1.2691 C.ar      1 RES1    0.0000
      7 C3         2.0385   -2.6995   -0.3014 C.ar      1 RES1    0.0000
      8 C4         2.9490   -2.0376    0.5230 C.ar      1 RES1    0.0000
      9 C5         4.3214   -2.2854    0.3149 C.ar      1 RES1    0.0000
     10 C6         4.8024   -3.1581   -0.6190 C.ar      1 RES1    0.0000
     11 C7         1.3774   -4.1787   -2.1671 C.ar      1 RES1    0.0000
     12 C8         1.2571   -3.7609   -3.4842 C.ar      1 RES1    0.0000
     13 C9         0.2460   -4.2490   -4.2829 C.ar      1 RES1    0.0000
     14 C10       -0.6610   -5.1402   -3.7943 C.ar      1 RES1    0.0000
     15 C11       -0.5791   -5.5544   -2.4969 C.ar      1 RES1    0.0000
     16 C12        0.4369   -5.0515   -1.6705 C.ar      1 RES1    0.0000
     17 C13        2.4805   -1.1131    1.5833 C.ar      1 RES1    0.0000
     18 C14        1.3795   -0.2884    1.3785 C.ar      1 RES1    0.0000
     19 C15        0.9056    0.5362    2.3894 C.ar      1 RES1    0.0000
     20 C16        1.5054    0.5473    3.6227 C.ar      1 RES1    0.0000
     21 C17        2.6138   -0.2589    3.8349 C.ar      1 RES1    0.0000
     22 C18        3.0949   -1.0761    2.8334 C.ar      1 RES1    0.0000
     23 C19        6.3220   -3.4096   -0.7393 C.3       1 RES1    0.0000
     24 C20        7.1178   -2.4851    0.1987 C.3       1 RES1    0.0000
     25 C21        6.6519   -4.8518   -0.3298 C.3       1 RES1    0.0000
     26 C22        6.8237   -3.1248   -2.1577 C.3       1 RES1    0.0000
     27 C23        3.9723   -6.5566   -3.7464 C.3       1 RES1    0.0000
     28 C24        5.3571   -6.9929   -3.4166 C.1       1 RES1    0.0000
     29 C25        4.0589   -5.7430   -5.0519 C.3       1 RES1    0.0000
     30 C26        2.9556   -7.6918   -3.8720 C.3       1 RES1    0.0000
     31 C27        2.9129   -8.7938   -2.8179 C.3       1 RES1    0.0000
     32 C28        2.8140   -8.2687   -1.4056 C.3       1 RES1    0.0000
     33 C29        1.7247   -9.6962   -3.1287 C.3       1 RES1    0.0000
     34 C30        4.3365  -10.6354   -2.4462 C.3       1 RES1    0.0000
     35 C31        4.5524  -10.3174   -3.5882 Du        2 SUP2    0.0000
     36 H1         1.0826   -2.5220   -0.1764 H         1 RES1    0.0000
     37 H2         4.9629   -1.7750    0.8541 H         1 RES1    0.0000
     38 H3         1.8959   -3.1100   -3.8376 H         1 RES1    0.0000
     39 H4         0.1625   -3.9754   -5.2066 H         1 RES1    0.0000
     40 H5        -1.3735   -5.4693   -4.3768 H         1 RES1    0.0000
     41 H6        -1.2300   -6.2089   -2.1563 H         1 RES1    0.0000
     42 H7         0.4965   -5.3325   -0.7224 H         1 RES1    0.0000
     43 H8         0.9540   -0.2995    0.5095 H         1 RES1    0.0000
     44 H9         0.1458    1.1242    2.2104 H         1 RES1    0.0000
     45 H10        1.1485    1.1168    4.3336 H         1 RES1    0.0000
     46 H11        3.0512   -0.2700    4.7005 H         1 RES1    0.0000
     47 H12        3.8765   -1.6456    2.9969 H         1 RES1    0.0000
     48 H13        8.0613   -2.6552    0.1135 H         1 RES1    0.0000
     49 H14        6.9766   -1.5606   -0.0453 H         1 RES1    0.0000
     50 H15        6.8669   -2.5997    1.1008 H         1 RES1    0.0000
     51 H16        6.4140   -5.0256    0.5778 H         1 RES1    0.0000
     52 H17        6.1641   -5.4878   -0.8832 H         1 RES1    0.0000
     53 H18        7.5831   -5.0404   -0.4419 H         1 RES1    0.0000
     54 H19        7.7731   -3.2875   -2.2225 H         1 RES1    0.0000
     55 H20        6.3842   -3.6610   -2.8050 H         1 RES1    0.0000
     56 H21        6.6832   -2.1966   -2.3908 H         1 RES1    0.0000
     57 H22        4.6251   -4.9849   -4.9323 H         1 RES1    0.0000
     58 H23        4.3992   -6.2755   -5.7648 H         1 RES1    0.0000
     59 H24        3.1855   -5.4287   -5.3012 H         1 RES1    0.0000
     60 H25        2.0930   -7.2814   -3.9234 H         1 RES1    0.0000
     61 H26        3.1224   -8.1171   -4.7296 H         1 RES1    0.0000
     62 H27        2.8132   -9.0046   -0.7622 H         1 RES1    0.0000
     63 H28        3.5179   -7.6881   -1.1819 H         1 RES1    0.0000
     64 H29        1.9733   -7.7991   -1.2636 H         1 RES1    0.0000
     65 H30        0.8831   -9.1821   -3.0294 H         1 RES1    0.0000
     66 H31        1.7441  -10.0105   -4.0214 H         1 RES1    0.0000
     67 H32        1.6635  -10.4284   -2.5300 H         1 RES1    0.0000
     68 H33        3.7170  -11.2900   -2.8172 H         1 RES1    0.0000
     69 H34        5.2252  -10.9646   -2.6537 H         1 RES1    0.0000
     70 H35        4.2338  -10.6391   -1.5062 H         1 RES1    0.0000
     71 H36        4.0570  -11.1643   -3.4443 Du        2 SUP2    0.0000
     72 H37        4.5237  -10.1436   -4.5147 Du        2 SUP2    0.0000
     73 H38        5.4751  -10.5430   -3.3551 Du        2 SUP2    0.0000
@<TRIPOS>BOND
     1    1    3 1
     2    2   31 1
     3    3    5 1
     4    4   28 3
     5    5    6 ar
     6    6    7 ar
     7    7    8 ar
     8    8    9 ar
     9    9   10 ar
    10   10    5 ar
    11   11    6 1
    12   12   11 ar
    13   13   12 ar
    14   14   13 ar
    15   15   14 ar
    16   16   11 ar
    17   17    8 1
    18   18   17 ar
    19   19   18 ar
    20   20   19 ar
    21   21   20 ar
    22   22   17 ar
    23   23   10 1
    24   24   23 1
    25   25   23 1
    26   26   23 1
    27   27    1 1
    28   28   27 1
    29   29   27 1
    30   30   27 1
    31   31   30 1
    32   32   31 1
    33   33   31 1
    34   34    2 1
    35   36    7 1
    36   37    9 1
    37   38   12 1
    38   39   13 1
    39   40   14 1
    40   41   15 1
    41   42   16 1
    42   43   18 1
    43   44   19 1
    44   45   20 1
    45   46   21 1
    46   47   22 1
    47   48   24 1
    48   49   24 1
    49   50   24 1
    50   51   25 1
    51   52   25 1
    52   53   25 1
    53   54   26 1
    54   55   26 1
    55   56   26 1
    56   57   29 1
    57   58   29 1
    58   59   29 1
    59   60   30 1
    60   61   30 1
    61   62   32 1
    62   63   32 1
    63   64   32 1
    64   65   33 1
    65   66   33 1
    66   67   33 1
    67   68   34 1
    68   69   34 1
    69   70   34 1
    70   15   16 ar
    71   21   22 ar
@<TRIPOS>SUBSTRUCTURE
     1 RES1 1
     2 SUP2 35

@<TRIPOS>CRYSIN
  10.4700   36.9800    6.8100  90.0000  97.1200  90.0000 231 1

