# MOL2 file generated by ConQuest
# Please check atom types

@<TRIPOS>MOLECULE
HAWYOT
    32    30     2
SMALL
NO_CHARGES
****
Generated from CSD

@<TRIPOS>ATOM
      1 O1        10.5794    4.2628    1.3391 O.3       1 RES1    0.0000
      2 O2         7.4124    2.3364    3.7966 O.3       1 RES1    0.0000
      3 N1        10.6526    3.1802    0.4256 N.2       1 RES1    0.0000
      4 N2         7.3551    1.1849    2.9665 N.2       1 RES1    0.0000
      5 N3         8.6554    0.5699   -0.3573 N.3       1 RES1    0.0000
      6 N4         9.3730   -0.1993    0.6253 N.3       1 RES1    0.0000
      7 C1         9.5067    2.7828    0.0354 C.2       1 RES1    0.0000
      8 C2         8.5013    0.7246    2.6766 C.2       1 RES1    0.0000
      9 C3         8.2262    3.4112    0.4939 C.3       1 RES1    0.0000
     10 C4         9.7817    1.3360    3.1713 C.3       1 RES1    0.0000
     11 C5         9.4720    1.6386   -0.9650 C.3       1 RES1    0.0000
     12 C6         8.5503   -0.5266    1.8086 C.3       1 RES1    0.0000
     13 C7        10.8688    1.1741   -1.3745 C.3       1 RES1    0.0000
     14 C8         8.7101    2.0958   -2.2131 C.3       1 RES1    0.0000
     15 C9         7.1601   -1.0515    1.4639 C.3       1 RES1    0.0000
     16 C10        9.3215   -1.6150    2.5687 C.3       1 RES1    0.0000
     17 O3        13.4276    3.0862    0.3497 O.3       2 RES2    0.0000
     18 O4        16.5895    1.1107    2.8586 O.3       2 RES2    0.0000
     19 N5        13.3541    4.2182    1.2060 N.2       2 RES2    0.0000
     20 N6        16.6554    2.2032    3.7638 N.2       2 RES2    0.0000
     21 N7        15.3523    5.5826    3.5741 N.3       2 RES2    0.0000
     22 N8        14.6403    4.8166    4.5442 N.3       2 RES2    0.0000
     23 C11       14.5038    4.6860    1.5119 C.2       2 RES2    0.0000
     24 C12       15.5069    2.6040    4.1455 C.2       2 RES2    0.0000
     25 C13       15.7828    4.0919    1.0096 C.3       2 RES2    0.0000
     26 C14       14.2298    1.9734    3.6753 C.3       2 RES2    0.0000
     27 C15       14.5346    5.9247    2.3934 C.3       2 RES2    0.0000
     28 C16       15.4639    3.7485    5.1493 C.3       2 RES2    0.0000
     29 C17       13.1318    6.4234    2.7499 C.3       2 RES2    0.0000
     30 C18       15.2921    7.0240    1.6510 C.3       2 RES2    0.0000
     31 C19       16.8590    4.2154    5.5597 C.3       2 RES2    0.0000
     32 C20       14.7016    3.2689    6.3848 C.3       2 RES2    0.0000
@<TRIPOS>BOND
     1    1    3 1
     2    2    4 1
     3    3    7 2
     4    4    8 2
     5    5    6 1
     6    6   12 1
     7    7    9 1
     8    8   10 1
     9   11    5 1
    10   12    8 1
    11   13   11 1
    12   14   11 1
    13   15   12 1
    14   16   12 1
    15   17   19 1
    16   18   20 1
    17   19   23 2
    18   20   24 2
    19   21   22 1
    20   22   28 1
    21   23   25 1
    22   24   26 1
    23   27   21 1
    24   28   24 1
    25   29   27 1
    26   30   27 1
    27   31   28 1
    28   32   28 1
    29    7   11 1
    30   23   27 1
@<TRIPOS>SUBSTRUCTURE
     1 RES1 1
     2 RES2 17

@<TRIPOS>CRYSIN
  12.0100   13.1880    9.1630 107.3000 108.3500  77.4200   2 1

