# MOL2 file generated by ConQuest
# Please check atom types

@<TRIPOS>MOLECULE
HAXJOH
    59    62     1
SMALL
NO_CHARGES
****
Generated from CSD

@<TRIPOS>ATOM
      1 C1         1.7299    3.0550   13.4126 C.ar      1 RES1    0.0000
      2 C2         2.3098    3.9951   12.5582 C.ar      1 RES1    0.0000
      3 C3         3.6561    3.9250   12.2545 C.ar      1 RES1    0.0000
      4 C4         4.4453    2.8789   12.7675 C.ar      1 RES1    0.0000
      5 C5         3.8725    1.9217   13.6116 C.ar      1 RES1    0.0000
      6 C6         2.5253    2.0282   13.9461 C.ar      1 RES1    0.0000
      7 C7         7.9418    2.0079   11.6781 C.ar      1 RES1    0.0000
      8 C8         8.4835    1.0367   10.8357 C.ar      1 RES1    0.0000
      9 C9         9.7785    1.1556   10.3759 C.ar      1 RES1    0.0000
     10 C10       10.5753    2.2448   10.7705 C.ar      1 RES1    0.0000
     11 C11       10.0359    3.2321   11.6009 C.ar      1 RES1    0.0000
     12 C12        8.7245    3.1142   12.0401 C.ar      1 RES1    0.0000
     13 C13       14.0599    3.1028    9.6108 C.ar      1 RES1    0.0000
     14 C14       14.6211    4.0709    8.7736 C.ar      1 RES1    0.0000
     15 C15       15.9257    3.9488    8.3430 C.ar      1 RES1    0.0000
     16 C16       16.7125    2.8597    8.7633 C.ar      1 RES1    0.0000
     17 C17       16.1546    1.8744    9.5833 C.ar      1 RES1    0.0000
     18 C18       14.8332    1.9970    9.9951 C.ar      1 RES1    0.0000
     19 C19       20.2729    2.1165    7.8180 C.ar      1 RES1    0.0000
     20 C20       20.9654    1.2803    6.9362 C.ar      1 RES1    0.0000
     21 C21       22.2606    1.5888    6.5536 C.ar      1 RES1    0.0000
     22 C22       22.8445    2.7486    7.0717 C.ar      1 RES1    0.0000
     23 C23       22.1977    3.5739    7.9810 C.ar      1 RES1    0.0000
     24 C24       20.9038    3.2498    8.3567 C.ar      1 RES1    0.0000
     25 C25        0.2771    3.1957   13.6596 C.2       1 RES1    0.0000
     26 C26        6.5642    1.7617   12.1687 C.2       1 RES1    0.0000
     27 C27       12.6802    3.3573   10.0860 C.2       1 RES1    0.0000
     28 C28       18.8592    1.7726    8.1525 C.2       1 RES1    0.0000
     29 N1         5.8095    2.8711   12.4244 N.am      1 RES1    0.0000
     30 N2        11.9144    2.2536   10.3468 N.am      1 RES1    0.0000
     31 N3        18.0657    2.8597    8.3979 N.am      1 RES1    0.0000
     32 N4        24.1931    3.1106    6.6514 N.pl3     1 RES1    0.0000
     33 O1        -0.5087    3.6429   12.8138 O.2       1 RES1    0.0000
     34 O2        -0.0955    2.8140   14.8931 O.3       1 RES1    0.0000
     35 O3         6.1305    0.6004   12.2974 O.2       1 RES1    0.0000
     36 O4        12.2533    4.5217   10.2061 O.2       1 RES1    0.0000
     37 O5        18.4537    0.5999    8.1628 O.2       1 RES1    0.0000
     38 O6        24.6076    4.2537    6.9894 O.2       1 RES1    0.0000
     39 O7        24.8566    2.2962    6.0235 O.2       1 RES1    0.0000
     40 H1         1.6720    4.8256   12.1075 H         1 RES1    0.0000
     41 H2         4.1314    4.7165   11.5860 H         1 RES1    0.0000
     42 H3         4.5078    1.0665   14.0175 H         1 RES1    0.0000
     43 H4         2.0692    1.2681   14.6631 H         1 RES1    0.0000
     44 H5         7.8551    0.1382   10.5235 H         1 RES1    0.0000
     45 H6        10.2080    0.3684    9.6722 H         1 RES1    0.0000
     46 H7        10.6722    4.1253   11.9121 H         1 RES1    0.0000
     47 H8         8.2706    3.9225   12.7037 H         1 RES1    0.0000
     48 H9        13.9999    4.9678    8.4428 H         1 RES1    0.0000
     49 H10       16.3707    4.7317    7.6440 H         1 RES1    0.0000
     50 H11       16.7831    0.9804    9.9083 H         1 RES1    0.0000
     51 H12       14.3645    1.1931   10.6535 H         1 RES1    0.0000
     52 H13       20.4641    0.3407    6.5294 H         1 RES1    0.0000
     53 H14       22.8208    0.9042    5.8346 H         1 RES1    0.0000
     54 H15       22.7312    4.4907    8.3984 H         1 RES1    0.0000
     55 H16       20.3515    3.9074    9.1062 H         1 RES1    0.0000
     56 H17        6.3666    3.8277   12.3415 H         1 RES1    0.0000
     57 H18       12.4537    1.2960   10.1922 H         1 RES1    0.0000
     58 H19       18.4857    3.8837    8.3136 H         1 RES1    0.0000
     59 H20       -1.2029    2.8709   15.3158 H         1 RES1    0.0000
@<TRIPOS>BOND
     1    1    2 ar
     2    2    3 ar
     3    3    4 ar
     4    4    5 ar
     5    5    6 ar
     6    6    1 ar
     7    7    8 ar
     8    8    9 ar
     9    9   10 ar
    10   10   11 ar
    11   11   12 ar
    12   12    7 ar
    13   13   14 ar
    14   14   15 ar
    15   15   16 ar
    16   16   17 ar
    17   17   18 ar
    18   18   13 ar
    19   19   20 ar
    20   20   21 ar
    21   21   22 ar
    22   22   23 ar
    23   23   24 ar
    24   24   19 ar
    25   25    1 1
    26   26    7 1
    27   27   13 1
    28   28   19 1
    29   29    4 1
    30   30   10 1
    31   31   16 1
    32   32   22 1
    33   33   25 2
    34   34   25 1
    35   35   26 2
    36   36   27 2
    37   37   28 2
    38   38   32 2
    39   39   32 2
    40   40    2 1
    41   41    3 1
    42   42    5 1
    43   43    6 1
    44   44    8 1
    45   45    9 1
    46   46   11 1
    47   47   12 1
    48   48   14 1
    49   49   15 1
    50   50   17 1
    51   51   18 1
    52   52   20 1
    53   53   21 1
    54   54   23 1
    55   55   24 1
    56   56   29 1
    57   57   30 1
    58   58   31 1
    59   59   34 1
    60   26   29 1
    61   27   30 1
    62   28   31 1
@<TRIPOS>SUBSTRUCTURE
     1 RES1 1

@<TRIPOS>CRYSIN
  51.0843    5.1938   17.4771  90.0000 101.0000  90.0000  15 1

