# MOL2 file generated by ConQuest
# Please check atom types

@<TRIPOS>MOLECULE
HAXKAS
    15    16     1
SMALL
NO_CHARGES
****
Generated from CSD

@<TRIPOS>ATOM
      1 O1         1.1099    6.0489    0.4187 O.3       1 RES1    0.0000
      2 O2         3.3789    3.5286    5.3336 O.3       1 RES1    0.0000
      3 O3         3.0447   -0.0365    1.6259 O.2       1 RES1    0.0000
      4 O4         5.1238    0.7641    1.4000 O.3       1 RES1    0.0000
      5 N1         0.8340    4.6964    0.6924 N.2       1 RES1    0.0000
      6 N2         4.1382    3.7156    4.1543 N.2       1 RES1    0.0000
      7 C1         1.9409    2.6687    1.4742 C.3       1 RES1    0.0000
      8 C2         1.9033    4.0874    1.0290 C.2       1 RES1    0.0000
      9 C3         3.3080    4.6279    1.1158 C.3       1 RES1    0.0000
     10 C4         4.0569    3.4442    1.7432 C.3       1 RES1    0.0000
     11 C5         3.5010    3.3027    3.1293 C.2       1 RES1    0.0000
     12 C6         2.1167    2.7280    3.0127 C.3       1 RES1    0.0000
     13 C7         3.3626    2.2741    1.0170 C.3       1 RES1    0.0000
     14 C8         3.7803    0.8713    1.3907 C.2       1 RES1    0.0000
     15 C9         5.6570   -0.5565    1.6405 C.3       1 RES1    0.0000
@<TRIPOS>BOND
     1    1    5 1
     2    2    6 1
     3    3   14 2
     4    4   14 1
     5    5    8 2
     6    6   11 2
     7    7    8 1
     8    8    9 1
     9    9   10 1
    10   10   11 1
    11   11   12 1
    12   12    7 1
    13   13    7 1
    14   14   13 1
    15   15    4 1
    16   10   13 1
@<TRIPOS>SUBSTRUCTURE
     1 RES1 1

@<TRIPOS>CRYSIN
   6.3781   22.8090    6.9586  90.0000 107.7970  90.0000  14 1

