# MOL2 file generated by ConQuest
# Please check atom types

@<TRIPOS>MOLECULE
HAXWAE
    33    33     1
SMALL
NO_CHARGES
****
Generated from CSD

@<TRIPOS>ATOM
      1 O1        -0.7242    2.2529   -2.0529 O.2       1 RES1    0.0000
      2 N1        -1.8052    6.9837   -4.1753 N.pl3     1 RES1    0.0000
      3 O2        -2.9660    6.5891   -4.1950 O.2       1 RES1    0.0000
      4 O3        -1.4751    8.1553   -4.2261 O.2       1 RES1    0.0000
      5 N2        -1.5427    5.9329   -1.7545 N.pl3     1 RES1    0.0000
      6 O4        -2.2647    4.9408   -1.6831 O.2       1 RES1    0.0000
      7 O5        -1.8057    7.0157   -1.2650 O.2       1 RES1    0.0000
      8 N3         0.5994    4.2120   -0.7863 N.pl3     1 RES1    0.0000
      9 O6         1.3609    3.3205   -0.4454 O.2       1 RES1    0.0000
     10 O7        -0.0045    4.9355    0.0019 O.2       1 RES1    0.0000
     11 C1        -0.6255    3.2621   -2.7079 C.2       1 RES1    0.0000
     12 C2        -1.2852    3.4421   -4.0246 C.2       1 RES1    0.0000
     13 C3        -1.2839    4.6328   -4.6267 C.2       1 RES1    0.0000
     14 C4        -0.6689    5.8972   -4.0980 C.3       1 RES1    0.0000
     15 C5        -0.2239    5.8070   -2.5787 C.3       1 RES1    0.0000
     16 C6         0.3534    4.3906   -2.3016 C.3       1 RES1    0.0000
     17 C7        -1.9526    2.2212   -4.5855 C.3       1 RES1    0.0000
     18 C8         0.4257    6.4153   -5.0401 C.3       1 RES1    0.0000
     19 C9         0.7092    6.9375   -2.1606 C.3       1 RES1    0.0000
     20 C10        1.6824    4.0915   -3.0123 C.3       1 RES1    0.0000
     21 H1        -1.7002    4.6844   -5.4449 H         1 RES1    0.0000
     22 H2        -2.6168    1.8985   -3.9565 H         1 RES1    0.0000
     23 H3        -1.2884    1.5315   -4.7384 H         1 RES1    0.0000
     24 H4        -2.3842    2.4454   -5.4243 H         1 RES1    0.0000
     25 H5         1.1800    5.8046   -5.0261 H         1 RES1    0.0000
     26 H6         0.7148    7.2934   -4.7469 H         1 RES1    0.0000
     27 H7         0.0746    6.4753   -5.9427 H         1 RES1    0.0000
     28 H8         0.2865    7.7901   -2.3455 H         1 RES1    0.0000
     29 H9         1.5386    6.8733   -2.6587 H         1 RES1    0.0000
     30 H10        0.8960    6.8674   -1.2116 H         1 RES1    0.0000
     31 H11        2.3172    4.7993   -2.8214 H         1 RES1    0.0000
     32 H12        1.5328    4.0402   -3.9687 H         1 RES1    0.0000
     33 H13        2.0359    3.2457   -2.6952 H         1 RES1    0.0000
@<TRIPOS>BOND
     1    1   11 2
     2    2    3 2
     3    4    2 2
     4    5    6 2
     5    7    5 2
     6    8    9 2
     7   10    8 2
     8   11   12 1
     9   12   13 2
    10   13   14 1
    11   14    2 1
    12   15    5 1
    13   16    8 1
    14   17   12 1
    15   18   14 1
    16   19   15 1
    17   20   16 1
    18   21   13 1
    19   22   17 1
    20   23   17 1
    21   24   17 1
    22   25   18 1
    23   26   18 1
    24   27   18 1
    25   28   19 1
    26   29   19 1
    27   30   19 1
    28   31   20 1
    29   32   20 1
    30   33   20 1
    31   11   16 1
    32   14   15 1
    33   15   16 1
@<TRIPOS>SUBSTRUCTURE
     1 RES1 1

@<TRIPOS>CRYSIN
   6.8420   14.7400   12.4380  90.0000 102.5600  90.0000  14 1

