# MOL2 file generated by ConQuest
# Please check atom types

@<TRIPOS>MOLECULE
HAXWEI
    32    32     1
SMALL
NO_CHARGES
****
Generated from CSD

@<TRIPOS>ATOM
      1 O1         4.3501    1.7706    7.6557 O.2       1 RES1    0.0000
      2 O2         2.4895    0.2602    5.8863 O.3       1 RES1    0.0000
      3 N1         3.9196    4.7995    5.5933 N.pl3     1 RES1    0.0000
      4 O3         4.0771    5.9649    5.2757 O.2       1 RES1    0.0000
      5 O4         4.8118    3.9554    5.6013 O.2       1 RES1    0.0000
      6 N2         3.1432    4.0456    8.3642 N.pl3     1 RES1    0.0000
      7 O5         2.6888    3.7483    9.4556 O.2       1 RES1    0.0000
      8 O6         4.0371    4.8606    8.1843 O.2       1 RES1    0.0000
      9 C1         3.5491    2.1555    6.8362 C.2       1 RES1    0.0000
     10 C2         3.2772    1.4096    5.5222 C.3       1 RES1    0.0000
     11 C3         2.4537    2.2219    4.5599 C.2       1 RES1    0.0000
     12 C4         2.0997    3.4988    4.6832 C.2       1 RES1    0.0000
     13 C5         2.4907    4.2898    5.9348 C.3       1 RES1    0.0000
     14 C6         2.5916    3.3183    7.1321 C.3       1 RES1    0.0000
     15 C7         4.5723    0.9716    4.8493 C.3       1 RES1    0.0000
     16 C8         1.3867    4.2500    3.5853 C.3       1 RES1    0.0000
     17 C9         1.5981    5.4950    6.2336 C.3       1 RES1    0.0000
     18 C10        1.2207    2.7263    7.5056 C.3       1 RES1    0.0000
     19 H1         2.9842   -0.3186    6.2445 H         1 RES1    0.0000
     20 H2         2.1532    1.7733    3.7782 H         1 RES1    0.0000
     21 H3         5.0642    1.7600    4.5403 H         1 RES1    0.0000
     22 H4         4.3643    0.3955    4.0842 H         1 RES1    0.0000
     23 H5         5.1225    0.4752    5.4910 H         1 RES1    0.0000
     24 H6         1.9237    5.0225    3.3170 H         1 RES1    0.0000
     25 H7         0.5142    4.5526    3.9102 H         1 RES1    0.0000
     26 H8         1.2601    3.6580    2.8144 H         1 RES1    0.0000
     27 H9         1.8964    5.9251    7.0625 H         1 RES1    0.0000
     28 H10        0.6699    5.1951    6.3359 H         1 RES1    0.0000
     29 H11        1.6558    6.1348    5.4939 H         1 RES1    0.0000
     30 H12        0.8237    2.2989    6.7180 H         1 RES1    0.0000
     31 H13        0.6312    3.4430    7.8203 H         1 RES1    0.0000
     32 H14        1.3343    2.0600    8.2155 H         1 RES1    0.0000
@<TRIPOS>BOND
     1    1    9 2
     2    2   10 1
     3    3    4 2
     4    5    3 2
     5    6    7 2
     6    8    6 2
     7    9   10 1
     8   10   11 1
     9   11   12 2
    10   12   13 1
    11   13    3 1
    12   14    6 1
    13   15   10 1
    14   16   12 1
    15   17   13 1
    16   18   14 1
    17   19    2 1
    18   20   11 1
    19   21   15 1
    20   22   15 1
    21   23   15 1
    22   24   16 1
    23   25   16 1
    24   26   16 1
    25   27   17 1
    26   28   17 1
    27   29   17 1
    28   30   18 1
    29   31   18 1
    30   32   18 1
    31    9   14 1
    32   13   14 1
@<TRIPOS>SUBSTRUCTURE
     1 RES1 1

@<TRIPOS>CRYSIN
   6.2450   26.5460    7.4890  90.0000 104.4600  90.0000 231 1

