# MOL2 file generated by ConQuest
# Please check atom types

@<TRIPOS>MOLECULE
HAYVUB
    28    30     1
SMALL
NO_CHARGES
****
Generated from CSD

@<TRIPOS>ATOM
      1 O1         5.6031    0.8423    9.0943 O.3       1 RES1    0.0000
      2 H1         5.6668    1.1956    9.9785 H         1 RES1    0.0000
      3 N1         4.4226    1.4390    8.6251 N.2       1 RES1    0.0000
      4 C1         2.8543    1.4448    6.8092 C.ar      1 RES1    0.0000
      5 C2         1.6670    1.8318    7.4740 C.ar      1 RES1    0.0000
      6 C3         1.4413    1.6298    8.8715 C.ar      1 RES1    0.0000
      7 H2         2.1215    1.1879    9.4005 H         1 RES1    0.0000
      8 C4         0.2695    2.0074    9.4615 C.ar      1 RES1    0.0000
      9 H3         0.1265    1.8380   10.4846 H         1 RES1    0.0000
     10 C5        -0.7679    2.6157    8.7041 C.ar      1 RES1    0.0000
     11 H4        -1.6103    2.9175    9.1165 H         1 RES1    0.0000
     12 C6        -0.6060    2.8065    7.3674 C.ar      1 RES1    0.0000
     13 H5        -1.2943    3.2039    6.8104 H         1 RES1    0.0000
     14 C7         0.6004    2.4195    6.7056 C.ar      1 RES1    0.0000
     15 C8         0.7477    2.5971    5.3307 C.ar      1 RES1    0.0000
     16 H6         0.0314    3.0336    4.8083 H         1 RES1    0.0000
     17 C9         1.8889    2.1673    4.6568 C.ar      1 RES1    0.0000
     18 C10        2.0223    2.3251    3.2374 C.ar      1 RES1    0.0000
     19 H7         1.2750    2.7550    2.7641 H         1 RES1    0.0000
     20 C11        3.1250    1.8794    2.5865 C.ar      1 RES1    0.0000
     21 H8         3.2257    1.9657    1.5481 H         1 RES1    0.0000
     22 C12        4.1718    1.2432    3.3106 C.ar      1 RES1    0.0000
     23 H9         4.9555    0.8822    2.8281 H         1 RES1    0.0000
     24 C13        4.1068    1.1140    4.6634 C.ar      1 RES1    0.0000
     25 H10        4.8295    0.6733    5.1543 H         1 RES1    0.0000
     26 C14        2.9621    1.5640    5.3995 C.ar      1 RES1    0.0000
     27 C15        4.0251    0.9174    7.5338 C.2       1 RES1    0.0000
     28 H11        4.5364    0.1664    7.1424 H         1 RES1    0.0000
@<TRIPOS>BOND
     1    1    2 1
     2    3    1 1
     3    4    5 ar
     4    5    6 ar
     5    6    7 1
     6    8    6 ar
     7    9    8 1
     8   10    8 ar
     9   11   10 1
    10   12   10 ar
    11   13   12 1
    12   14    5 ar
    13   15   14 ar
    14   16   15 1
    15   17   15 ar
    16   18   17 ar
    17   19   18 1
    18   20   18 ar
    19   21   20 1
    20   22   20 ar
    21   23   22 1
    22   24   22 ar
    23   25   24 1
    24   26    4 ar
    25   27    3 2
    26   28   27 1
    27    4   27 1
    28   12   14 ar
    29   17   26 ar
    30   24   26 ar
@<TRIPOS>SUBSTRUCTURE
     1 RES1 1

@<TRIPOS>CRYSIN
  13.4630    3.8694   20.3770  90.0000 101.0230  90.0000  14 1

