# MOL2 file generated by ConQuest
# Please check atom types

@<TRIPOS>MOLECULE
HAYYEM
    40    42     1
SMALL
NO_CHARGES
****
Generated from CSD

@<TRIPOS>ATOM
      1 O1         1.7155    2.7147    3.9301 O.2       1 RES1    0.0000
      2 N1         0.8952    5.4192    4.2066 N.pl3     1 RES1    0.0000
      3 C1         2.4942    5.6180    6.4510 C.ar      1 RES1    0.0000
      4 O2         0.1538    4.6437    4.7366 O.2       1 RES1    0.0000
      5 N2         2.3537    3.5549    3.3559 N.pl3     1 RES1    0.0000
      6 C2         3.9556    3.7828    5.5344 C.ar      1 RES1    0.0000
      7 C3         2.1006    4.7870    7.4904 C.ar      1 RES1    0.0000
      8 N3         2.8641    2.9227    8.8780 N.pl3     1 RES1    0.0000
      9 O3         3.8472    3.5043    9.2826 O.2       1 RES1    0.0000
     10 N4         2.8040    5.8723    2.7962 N.pl3     1 RES1    0.0000
     11 C4         3.5280    2.9233    6.5397 C.ar      1 RES1    0.0000
     12 C5         3.2275    5.0724    5.2456 C.3       1 RES1    0.0000
     13 H1         3.9228    5.7308    5.0357 H         1 RES1    0.0000
     14 O4         3.0958    3.3866    2.4255 O.2       1 RES1    0.0000
     15 C6         2.3294    4.9669    3.9474 C.3       1 RES1    0.0000
     16 O5         2.1240    5.8499    1.7943 O.2       1 RES1    0.0000
     17 C7         2.2838    6.9924    6.5428 C.ar      1 RES1    0.0000
     18 H2         2.5635    7.5472    5.8520 H         1 RES1    0.0000
     19 O6         0.6575    6.5735    3.9511 O.2       1 RES1    0.0000
     20 C8         2.3646    3.2918    7.4440 C.3       1 RES1    0.0000
     21 C9         1.4537    5.3489    8.5886 C.ar      1 RES1    0.0000
     22 H3         1.1558    4.8003    9.2767 H         1 RES1    0.0000
     23 C10        1.6656    7.5364    7.6438 C.ar      1 RES1    0.0000
     24 H4         1.5290    8.4547    7.6981 H         1 RES1    0.0000
     25 O7         3.7960    6.5314    2.9690 O.2       1 RES1    0.0000
     26 C11        5.0806    3.4548    4.7829 C.ar      1 RES1    0.0000
     27 H5         5.3831    4.0418    4.1288 H         1 RES1    0.0000
     28 O8         2.2688    2.0737    9.5073 O.2       1 RES1    0.0000
     29 C12        5.7505    2.2742    4.9967 C.ar      1 RES1    0.0000
     30 H6         6.5062    2.0697    4.4946 H         1 RES1    0.0000
     31 C13        4.2061    1.7252    6.7183 C.ar      1 RES1    0.0000
     32 H7         3.9134    1.1310    7.3707 H         1 RES1    0.0000
     33 C14        1.1022    2.4868    7.1662 C.3       1 RES1    0.0000
     34 H8         0.4095    2.7591    7.7719 H         1 RES1    0.0000
     35 H9         1.2858    1.5522    7.2892 H         1 RES1    0.0000
     36 H10        0.8165    2.6399    6.2624 H         1 RES1    0.0000
     37 C15        1.2509    6.7115    8.6665 C.ar      1 RES1    0.0000
     38 H11        0.8323    7.0745    9.4136 H         1 RES1    0.0000
     39 C16        5.3013    1.3965    5.9519 C.ar      1 RES1    0.0000
     40 H12        5.7353    0.5838    6.0825 H         1 RES1    0.0000
@<TRIPOS>BOND
     1    1    5 2
     2    2    4 2
     3    3    7 ar
     4    5   14 2
     5    6   11 ar
     6    7   20 1
     7    8    9 2
     8   10   15 1
     9   11   20 1
    10   12    3 1
    11   13   12 1
    12   15    2 1
    13   16   10 2
    14   17    3 ar
    15   18   17 1
    16   19    2 2
    17   20    8 1
    18   21    7 ar
    19   22   21 1
    20   23   17 ar
    21   24   23 1
    22   25   10 2
    23   26    6 ar
    24   27   26 1
    25   28    8 2
    26   29   26 ar
    27   30   29 1
    28   31   11 ar
    29   32   31 1
    30   33   20 1
    31   34   33 1
    32   35   33 1
    33   36   33 1
    34   37   21 ar
    35   38   37 1
    36   39   29 ar
    37   40   39 1
    38    5   15 1
    39    6   12 1
    40   12   15 1
    41   23   37 ar
    42   31   39 ar
@<TRIPOS>SUBSTRUCTURE
     1 RES1 1

@<TRIPOS>CRYSIN
   7.9797   13.5449   15.3793  90.0000  91.8160  90.0000 231 1

