# MOL2 file generated by ConQuest
# Please check atom types

@<TRIPOS>MOLECULE
HAZFIA
    48    51     1
SMALL
NO_CHARGES
****
Generated from CSD

@<TRIPOS>ATOM
      1 C1         2.6690   14.6078    2.0734 C.ar      1 RES1    0.0000
      2 H1         3.5740   14.8538    1.9221 H         1 RES1    0.0000
      3 C2         1.8345   15.5377    2.6426 C.ar      1 RES1    0.0000
      4 H2         2.1461   16.4089    2.8556 H         1 RES1    0.0000
      5 C3         0.5396   15.1707    2.8938 C.ar      1 RES1    0.0000
      6 H3        -0.0622   15.7829    3.3022 H         1 RES1    0.0000
      7 C4         0.1172   13.8978    2.5464 C.ar      1 RES1    0.0000
      8 H4        -0.7759   13.6215    2.7175 H         1 RES1    0.0000
      9 C5         1.0149   13.0399    1.9486 C.ar      1 RES1    0.0000
     10 C6         0.5923   11.6913    1.4381 C.3       1 RES1    0.0000
     11 H5        -0.3626   11.7164    1.1766 H         1 RES1    0.0000
     12 H6         1.1259   11.4552    0.6383 H         1 RES1    0.0000
     13 C7         0.2757    9.4555    2.1799 C.ar      1 RES1    0.0000
     14 C8        -0.2792    9.0767    0.9732 C.ar      1 RES1    0.0000
     15 H7        -0.2859    9.6856    0.2431 H         1 RES1    0.0000
     16 C9        -0.8321    7.7985    0.8226 C.ar      1 RES1    0.0000
     17 H8        -1.2276    7.5415   -0.0022 H         1 RES1    0.0000
     18 C10       -0.7984    6.9165    1.8810 C.ar      1 RES1    0.0000
     19 H9        -1.1850    6.0529    1.7870 H         1 RES1    0.0000
     20 C11       -0.2050    7.2773    3.0840 C.ar      1 RES1    0.0000
     21 H10       -0.1692    6.6493    3.7950 H         1 RES1    0.0000
     22 C12        0.3415    8.5532    3.2644 C.ar      1 RES1    0.0000
     23 C13        1.0425    8.1382    5.6048 C.3       1 RES1    0.0000
     24 H11        0.1709    7.7091    5.7979 H         1 RES1    0.0000
     25 H12        1.2763    8.7048    6.3811 H         1 RES1    0.0000
     26 C14        2.0852    7.0658    5.4581 C.2       1 RES1    0.0000
     27 C15        1.9749    5.7064    5.4975 C.2       1 RES1    0.0000
     28 H13        1.1838    5.1953    5.6239 H         1 RES1    0.0000
     29 C16        3.7145    3.9026    5.2812 C.ar      1 RES1    0.0000
     30 C17        2.8941    2.8589    5.6628 C.ar      1 RES1    0.0000
     31 H14        2.0011    3.0289    5.9367 H         1 RES1    0.0000
     32 C18        3.3798    1.5605    5.6437 C.ar      1 RES1    0.0000
     33 H15        2.8228    0.8305    5.8853 H         1 RES1    0.0000
     34 C19        4.6871    1.3535    5.2676 C.ar      1 RES1    0.0000
     35 C20        5.5132    2.3832    4.8791 C.ar      1 RES1    0.0000
     36 H16        6.4101    2.2082    4.6206 H         1 RES1    0.0000
     37 C21        5.0194    3.6739    4.8710 C.ar      1 RES1    0.0000
     38 H17        5.5676    4.3967    4.5875 H         1 RES1    0.0000
     39 N1         2.2864   13.3768    1.7179 N.ar      1 RES1    0.0000
     40 N2         0.8978    8.9813    4.4412 N.3       1 RES1    0.0000
     41 N3         3.3976    7.3737    5.2544 N.2       1 RES1    0.0000
     42 N4         4.0959    6.2782    5.1685 N.2       1 RES1    0.0000
     43 N5         3.2352    5.2408    5.3167 N.pl3     1 RES1    0.0000
     44 N6         5.2417   -0.0049    5.3132 N.pl3     1 RES1    0.0000
     45 O1         0.7878   10.7060    2.4587 O.3       1 RES1    0.0000
     46 O2         6.4354   -0.1592    5.1296 O.2       1 RES1    0.0000
     47 O3         4.5006   -0.9220    5.5791 O.2       1 RES1    0.0000
     48 H18        1.2459    9.7719    4.4729 H         1 RES1    0.0000
@<TRIPOS>BOND
     1    1    2 1
     2    3    1 ar
     3    4    3 1
     4    5    3 ar
     5    6    5 1
     6    7    5 ar
     7    8    7 1
     8    9    7 ar
     9   10    9 1
    10   11   10 1
    11   12   10 1
    12   13   14 ar
    13   14   15 1
    14   16   14 ar
    15   17   16 1
    16   18   16 ar
    17   19   18 1
    18   20   18 ar
    19   21   20 1
    20   22   13 ar
    21   23   24 1
    22   25   23 1
    23   26   23 1
    24   27   26 2
    25   28   27 1
    26   29   30 ar
    27   30   31 1
    28   32   30 ar
    29   33   32 1
    30   34   32 ar
    31   35   34 ar
    32   36   35 1
    33   37   29 ar
    34   38   37 1
    35   39    1 ar
    36   40   22 1
    37   41   26 1
    38   42   41 2
    39   43   27 1
    40   44   34 1
    41   45   10 1
    42   46   44 2
    43   47   44 2
    44   48   40 1
    45    9   39 ar
    46   13   45 1
    47   20   22 ar
    48   23   40 1
    49   29   43 1
    50   35   37 ar
    51   42   43 1
@<TRIPOS>SUBSTRUCTURE
     1 RES1 1

@<TRIPOS>CRYSIN
  10.5160   24.6454    7.7012  90.0000 107.5010  90.0000  14 1

