# MOL2 file generated by ConQuest
# Please check atom types

@<TRIPOS>MOLECULE
HAZZOX
    82    88     2
SMALL
NO_CHARGES
****
Generated from CSD

@<TRIPOS>ATOM
      1 O1        13.1764   -3.2755    2.5417 O.2       1 RES1    0.0000
      2 O2        15.6489   -2.0692   -3.8609 O.2       1 RES1    0.0000
      3 O3        17.5698   -1.6145   -3.1965 O.2       1 RES1    0.0000
      4 O4        15.1412   -0.0946    5.4383 O.3       1 RES1    0.0000
      5 O5        12.9893   -2.1806    5.3149 O.3       1 RES1    0.0000
      6 N1        14.6172   -1.4939    2.2797 N.am      1 RES1    0.0000
      7 N2        15.2569   -0.4918    3.1263 N.2       1 RES1    0.0000
      8 N3        16.3839   -1.8001   -2.9403 N.pl3     1 RES1    0.0000
      9 C1        14.8494   -0.7609    4.3165 C.2       1 RES1    0.0000
     10 C2        14.0844   -1.9764    4.4436 C.3       1 RES1    0.0000
     11 C3        13.8554   -2.3661    3.0238 C.2       1 RES1    0.0000
     12 C4        15.0711   -1.5218    0.9890 C.ar      1 RES1    0.0000
     13 C5        14.3417   -2.2734    0.0607 C.ar      1 RES1    0.0000
     14 C6        14.7948   -2.3290   -1.2262 C.ar      1 RES1    0.0000
     15 C7        15.9234   -1.7537   -1.5869 C.ar      1 RES1    0.0000
     16 C8        16.6604   -1.0114   -0.7004 C.ar      1 RES1    0.0000
     17 C9        16.2123   -0.9093    0.5903 C.ar      1 RES1    0.0000
     18 C10       15.9581    1.0578    5.2371 C.3       1 RES1    0.0000
     19 C11       16.3188    1.5496    6.5810 C.3       1 RES1    0.0000
     20 C12       14.1089   -3.0064    5.4478 C.3       1 RES1    0.0000
     21 C13       14.9160   -2.9229    6.6607 C.ar      1 RES1    0.0000
     22 C14       14.5433   -2.1156    7.7332 C.ar      1 RES1    0.0000
     23 C15       15.3821   -2.0321    8.8930 C.ar      1 RES1    0.0000
     24 C16       16.4658   -2.8208    8.9461 C.ar      1 RES1    0.0000
     25 C17       16.8042   -3.6559    7.9382 C.ar      1 RES1    0.0000
     26 C18       16.0019   -3.6930    6.8221 C.ar      1 RES1    0.0000
     27 H1        13.4605   -2.7559    0.3227 H         1 RES1    0.0000
     28 H2        14.2427   -2.8208   -1.8982 H         1 RES1    0.0000
     29 H3        17.5227   -0.6403   -1.0060 H         1 RES1    0.0000
     30 H4        16.6974   -0.3526    1.2338 H         1 RES1    0.0000
     31 H5        14.3441   -3.9900    5.4858 H         1 RES1    0.0000
     32 H6        13.6869   -1.5310    7.6687 H         1 RES1    0.0000
     33 H7        15.0958   -1.4846    9.6238 H         1 RES1    0.0000
     34 H8        17.0552   -2.7373    9.7756 H         1 RES1    0.0000
     35 H9        17.6938   -4.2034    8.0103 H         1 RES1    0.0000
     36 H10       16.2718   -4.3240    6.1122 H         1 RES1    0.0000
     37 H11       15.5601    1.7908    4.7455 H         1 RES1    0.0000
     38 H12       16.7993    0.8537    4.7455 H         1 RES1    0.0000
     39 H13       16.9328    2.3105    6.6057 H         1 RES1    0.0000
     40 H14       15.5606    1.7816    7.0992 H         1 RES1    0.0000
     41 H15       16.7998    0.8444    7.0992 H         1 RES1    0.0000
     42 O6        19.0994   -0.5864    1.9361 O.2       2 RES2    0.0000
     43 O7        21.3772   -3.5817   -3.9482 O.2       2 RES2    0.0000
     44 O8        21.9640   -5.4932   -3.1662 O.2       2 RES2    0.0000
     45 O9        19.8400   -3.7302    5.4744 O.3       2 RES2    0.0000
     46 O10       18.2522   -1.2434    4.7341 O.3       2 RES2    0.0000
     47 N4        20.0484   -2.7373    2.1374 N.am      2 RES2    0.0000
     48 N5        20.3184   -3.6652    3.2022 N.2       2 RES2    0.0000
     49 N6        21.5538   -4.3333   -2.9991 N.pl3     2 RES2    0.0000
     50 C19       19.8620   -3.1734    4.2937 C.2       2 RES2    0.0000
     51 C20       19.3956   -1.7352    4.0317 C.3       2 RES2    0.0000
     52 C21       19.4797   -1.5589    2.5303 C.2       2 RES2    0.0000
     53 C22       20.4682   -3.0992    0.8181 C.ar      2 RES2    0.0000
     54 C23       20.2132   -2.2734   -0.2278 C.ar      2 RES2    0.0000
     55 C24       20.5861   -2.6167   -1.4863 C.ar      2 RES2    0.0000
     56 C25       21.1203   -3.8972   -1.6875 C.ar      2 RES2    0.0000
     57 C26       21.3717   -4.7230   -0.6682 C.ar      2 RES2    0.0000
     58 C27       21.0542   -4.3611    0.6530 C.ar      2 RES2    0.0000
     59 C28       20.4836   -5.0478    5.5636 C.3       2 RES2    0.0000
     60 C29       20.4393   -5.4189    6.9341 C.3       2 RES2    0.0000
     61 C30       19.5266   -0.5753    4.9770 C.3       2 RES2    0.0000
     62 C31       20.1182   -0.6124    6.3608 C.ar      2 RES2    0.0000
     63 C32       19.5319   -1.4011    7.3099 C.ar      2 RES2    0.0000
     64 C33       20.1065   -1.4290    8.6329 C.ar      2 RES2    0.0000
     65 C34       21.2171   -0.7145    8.8550 C.ar      2 RES2    0.0000
     66 C35       21.7780    0.0928    7.8737 C.ar      2 RES2    0.0000
     67 C36       21.2038    0.1670    6.6664 C.ar      2 RES2    0.0000
     68 H16       19.7784   -1.4197   -0.0380 H         2 RES2    0.0000
     69 H17       20.4250   -2.0135   -2.2588 H         2 RES2    0.0000
     70 H18       21.8894   -5.5581   -0.7972 H         2 RES2    0.0000
     71 H19       21.2234   -4.9735    1.4236 H         2 RES2    0.0000
     72 H20       21.3997   -5.0014    5.2010 H         2 RES2    0.0000
     73 H21       20.0342   -5.7066    4.9922 H         2 RES2    0.0000
     74 H22       20.8617   -6.2355    7.1182 H         2 RES2    0.0000
     75 H23       20.9186   -4.7230    7.4599 H         2 RES2    0.0000
     76 H24       19.5488   -5.4282    7.2700 H         2 RES2    0.0000
     77 H25       19.9142    0.3044    4.8745 H         2 RES2    0.0000
     78 H26       18.6930   -1.9022    7.1182 H         2 RES2    0.0000
     79 H27       19.7828   -2.0228    9.2821 H         2 RES2    0.0000
     80 H28       22.6376    0.5289    8.0673 H         2 RES2    0.0000
     81 H29       21.6378    0.7887    6.0172 H         2 RES2    0.0000
     82 H30       21.5905   -0.7330    9.7567 H         2 RES2    0.0000
@<TRIPOS>BOND
     1    1   11 2
     2    2    8 2
     3    3    8 2
     4    4    9 1
     5    5   10 1
     6    6    7 1
     7    7    9 2
     8    8   15 1
     9    9   10 1
    10   10   11 1
    11   11    6 1
    12   12    6 1
    13   13   12 ar
    14   14   13 ar
    15   15   14 ar
    16   16   15 ar
    17   17   12 ar
    18   18    4 1
    19   19   18 1
    20   20    5 1
    21   21   20 1
    22   22   21 ar
    23   23   22 ar
    24   24   23 ar
    25   25   24 ar
    26   26   21 ar
    27   27   13 1
    28   28   14 1
    29   29   16 1
    30   30   17 1
    31   31   20 1
    32   32   22 1
    33   33   23 1
    34   34   24 1
    35   35   25 1
    36   36   26 1
    37   37   18 1
    38   38   18 1
    39   39   19 1
    40   40   19 1
    41   41   19 1
    42   42   52 2
    43   43   49 2
    44   44   49 2
    45   45   50 1
    46   46   51 1
    47   47   48 1
    48   48   50 2
    49   49   56 1
    50   50   51 1
    51   51   52 1
    52   52   47 1
    53   53   47 1
    54   54   53 ar
    55   55   54 ar
    56   56   55 ar
    57   57   56 ar
    58   58   53 ar
    59   59   45 1
    60   60   59 1
    61   61   46 1
    62   62   61 1
    63   63   62 ar
    64   64   63 ar
    65   65   64 ar
    66   66   65 ar
    67   67   62 ar
    68   68   54 1
    69   69   55 1
    70   70   57 1
    71   71   58 1
    72   72   59 1
    73   73   59 1
    74   74   60 1
    75   75   60 1
    76   76   60 1
    77   77   61 1
    78   78   63 1
    79   79   64 1
    80   80   66 1
    81   81   67 1
    82   82   65 1
    83   10   20 1
    84   16   17 ar
    85   25   26 ar
    86   51   61 1
    87   57   58 ar
    88   66   67 ar
@<TRIPOS>SUBSTRUCTURE
     1 RES1 1
     2 RES2 42

@<TRIPOS>CRYSIN
  19.3630    9.2790   19.4780  90.0000 102.9600  90.0000  14 2

