# MOL2 file generated by ConQuest
# Please check atom types

@<TRIPOS>MOLECULE
HAZZUD
    52    55     1
SMALL
NO_CHARGES
****
Generated from CSD

@<TRIPOS>ATOM
      1 O1         4.6387    1.3346    2.0473 O.2       1 RES1    0.0000
      2 O2         4.1677    2.4764    3.9202 O.2       1 RES1    0.0000
      3 O3         9.6702   -2.3169    9.7995 O.3       1 RES1    0.0000
      4 O4         7.8865   -3.9587   10.8716 O.2       1 RES1    0.0000
      5 O5         7.1072   -4.2795    8.6090 O.3       1 RES1    0.0000
      6 N1         7.5928   -1.5827    6.9234 N.pl3     1 RES1    0.0000
      7 N2         8.5227   -2.3996    6.3056 N.2       1 RES1    0.0000
      8 N3         4.7461    1.6063    3.3627 N.pl3     1 RES1    0.0000
      9 N4         9.9878   -3.8543    7.1387 N.3       1 RES1    0.0000
     10 C1         9.0790   -2.9744    7.3432 C.2       1 RES1    0.0000
     11 C2         8.5925   -2.6535    8.8803 C.3       1 RES1    0.0000
     12 C3         7.6653   -1.5394    8.5509 C.3       1 RES1    0.0000
     13 C4         6.9952   -0.7815    6.0838 C.ar      1 RES1    0.0000
     14 C5         6.2699    0.2500    6.6737 C.ar      1 RES1    0.0000
     15 C6         5.5539    1.0157    5.7630 C.ar      1 RES1    0.0000
     16 C7         5.5080    0.8248    4.2776 C.ar      1 RES1    0.0000
     17 C8         6.2608   -0.1339    3.6921 C.ar      1 RES1    0.0000
     18 C9         7.0227   -0.8917    4.5639 C.ar      1 RES1    0.0000
     19 C10       10.4193   -4.1555    5.6511 C.3       1 RES1    0.0000
     20 C11       11.2639   -5.3130    5.8642 C.3       1 RES1    0.0000
     21 C12       11.3373   -5.4901    7.3863 C.3       1 RES1    0.0000
     22 C13       10.4836   -4.7146    8.2151 C.3       1 RES1    0.0000
     23 C14        7.8397   -3.6870    9.5907 C.2       1 RES1    0.0000
     24 C15        6.2240   -5.2047    9.1602 C.3       1 RES1    0.0000
     25 C16        6.3434   -1.5846    9.3238 C.ar      1 RES1    0.0000
     26 C17        6.3158   -1.2539   10.7898 C.ar      1 RES1    0.0000
     27 C18        5.1500   -1.3760   11.5821 C.ar      1 RES1    0.0000
     28 C19        4.0117   -1.8445   10.9922 C.ar      1 RES1    0.0000
     29 C20        4.0300   -2.1535    9.5434 C.ar      1 RES1    0.0000
     30 C21        5.2234   -2.0610    8.7102 C.ar      1 RES1    0.0000
     31 H1         9.1396   -2.0610   10.6477 H         1 RES1    0.0000
     32 H2         8.0325   -0.6201    8.8997 H         1 RES1    0.0000
     33 H3         6.2323    0.4232    7.7199 H         1 RES1    0.0000
     34 H4         4.9085    1.8405    6.1742 H         1 RES1    0.0000
     35 H5         6.2204   -0.2736    2.6372 H         1 RES1    0.0000
     36 H6         7.6543   -1.6260    4.0989 H         1 RES1    0.0000
     37 H7        10.9022   -3.4173    5.1796 H         1 RES1    0.0000
     38 H8         9.6289   -4.4311    5.0505 H         1 RES1    0.0000
     39 H9        12.2259   -5.1673    5.3798 H         1 RES1    0.0000
     40 H10       10.9389   -6.1712    5.3712 H         1 RES1    0.0000
     41 H11       12.3710   -5.2224    7.6166 H         1 RES1    0.0000
     42 H12       11.3446   -6.4901    7.5606 H         1 RES1    0.0000
     43 H13        9.7739   -5.3622    8.6822 H         1 RES1    0.0000
     44 H14       10.9481   -4.2854    9.0396 H         1 RES1    0.0000
     45 H15        6.6362   -5.9606    9.6833 H         1 RES1    0.0000
     46 H16        5.5227   -4.7736    9.8082 H         1 RES1    0.0000
     47 H17        3.3406   -2.5059    8.9018 H         1 RES1    0.0000
     48 H18        3.1781   -2.0138   11.5153 H         1 RES1    0.0000
     49 H19        5.1335   -1.1260   12.5228 H         1 RES1    0.0000
     50 H20        7.2164   -0.8858   10.9987 H         1 RES1    0.0000
     51 H21        4.5707   -2.4449    8.0063 H         1 RES1    0.0000
     52 H22        5.5989   -5.6831    8.4540 H         1 RES1    0.0000
@<TRIPOS>BOND
     1    1    8 2
     2    2    8 2
     3    3   11 1
     4    4   23 2
     5    5   23 1
     6    6    7 1
     7    7   10 2
     8    8   16 1
     9    9   10 1
    10   10   11 1
    11   11   12 1
    12   12    6 1
    13   13    6 1
    14   14   13 ar
    15   15   14 ar
    16   16   15 ar
    17   17   16 ar
    18   18   13 ar
    19   19    9 1
    20   20   19 1
    21   21   20 1
    22   22    9 1
    23   23   11 1
    24   24    5 1
    25   25   12 1
    26   26   25 ar
    27   27   26 ar
    28   28   27 ar
    29   29   28 ar
    30   30   25 ar
    31   31    3 1
    32   32   12 1
    33   33   14 1
    34   34   15 1
    35   35   17 1
    36   36   18 1
    37   37   19 1
    38   38   19 1
    39   39   20 1
    40   40   20 1
    41   41   21 1
    42   42   21 1
    43   43   22 1
    44   44   22 1
    45   45   24 1
    46   46   24 1
    47   47   29 1
    48   48   28 1
    49   49   27 1
    50   50   26 1
    51   51   30 1
    52   52   24 1
    53   17   18 ar
    54   21   22 1
    55   29   30 ar
@<TRIPOS>SUBSTRUCTURE
     1 RES1 1

@<TRIPOS>CRYSIN
   9.1800   19.6850   21.5280  90.0000  90.0000  90.0000  61 1

