# MOL2 file generated by ConQuest
# Please check atom types

@<TRIPOS>MOLECULE
HBIURT10
    13    12     1
SMALL
NO_CHARGES
****
Generated from CSD

@<TRIPOS>ATOM
      1 C1        -4.9993    4.8161   -0.3041 C.2       1 RES1    0.0000
      2 C2        -3.3147    2.9432   -0.3326 C.2       1 RES1    0.0000
      3 H1        -3.2930    5.2875    0.5044 H         1 RES1    0.0000
      4 H2        -4.3907    6.4573    0.4828 H         1 RES1    0.0000
      5 H3        -6.2165    2.6437   -0.8395 H         1 RES1    0.0000
      6 H4        -3.9016    1.1815   -0.9224 H         1 RES1    0.0000
      7 H5        -2.4779    1.2868   -0.3927 H         1 RES1    0.0000
      8 N1        -4.1016    5.6338    0.2681 N.am      1 RES1    0.0000
      9 N2        -4.5515    3.5188   -0.6006 N.am      1 RES1    0.0000
     10 N3        -3.2082    1.6705   -0.6150 N.am      1 RES1    0.0000
     11 O1        -6.1437    5.1272   -0.5833 O.2       1 RES1    0.0000
     12 O2        -5.4742    2.7057   -1.2531 O.3       1 RES1    0.0000
     13 O3        -2.3975    3.6451    0.1164 O.2       1 RES1    0.0000
@<TRIPOS>BOND
     1    1    8 1
     2    2    9 1
     3    3    8 1
     4    4    8 1
     5    5   12 1
     6    6   10 1
     7    7   10 1
     8    9    1 1
     9   10    2 1
    10   11    1 2
    11   12    9 1
    12   13    2 2
@<TRIPOS>SUBSTRUCTURE
     1 RES1 1

@<TRIPOS>CRYSIN
  10.8680   11.6980    3.6030  90.0000  90.0000  90.0000  19 1

