# MOL2 file generated by ConQuest
# Please check atom types

@<TRIPOS>MOLECULE
HDPDXZ
    32    34     1
SMALL
NO_CHARGES
****
Generated from CSD

@<TRIPOS>ATOM
      1 N1         0.3394    1.2996    0.3198 N.3       1 RES1    0.0000
      2 C1         1.4382    2.2592    0.4691 C.3       1 RES1    0.0000
      3 C2         1.3722    2.8555    1.8669 C.3       1 RES1    0.0000
      4 C3         1.4555    1.7645    2.9244 C.3       1 RES1    0.0000
      5 C4         0.4083    0.6933    2.6620 C.3       1 RES1    0.0000
      6 C5         0.5144    0.1793    1.2472 C.3       1 RES1    0.0000
      7 O1         0.5382    0.7391   -1.0221 O.3       1 RES1    0.0000
      8 H1         1.3173    2.9419   -0.2025 H         1 RES1    0.0000
      9 H2         2.3227    1.7930    0.3038 H         1 RES1    0.0000
     10 H3         0.5046    3.3470    2.0251 H         1 RES1    0.0000
     11 H4         2.0953    3.4864    1.9673 H         1 RES1    0.0000
     12 H5         2.3581    1.3879    2.8641 H         1 RES1    0.0000
     13 H6         1.3615    2.1383    3.8333 H         1 RES1    0.0000
     14 H7        -0.4673    1.0559    2.7773 H         1 RES1    0.0000
     15 H8         0.5382   -0.0863    3.2836 H         1 RES1    0.0000
     16 H9         1.3992   -0.2590    1.0560 H         1 RES1    0.0000
     17 O1B       -0.5382   -0.7391    1.0221 O.3       1 RES1    0.0000
     18 C5B       -0.5144   -0.1793   -1.2472 C.3       1 RES1    0.0000
     19 N1B       -0.3394   -1.2996   -0.3198 N.3       1 RES1    0.0000
     20 C4B       -0.4083   -0.6933   -2.6620 C.3       1 RES1    0.0000
     21 H9B       -1.3992    0.2590   -1.0560 H         1 RES1    0.0000
     22 C1B       -1.4382   -2.2592   -0.4691 C.3       1 RES1    0.0000
     23 C3B       -1.4555   -1.7645   -2.9244 C.3       1 RES1    0.0000
     24 H7B        0.4673   -1.0559   -2.7773 H         1 RES1    0.0000
     25 H8B       -0.5382    0.0863   -3.2836 H         1 RES1    0.0000
     26 C2B       -1.3722   -2.8555   -1.8669 C.3       1 RES1    0.0000
     27 H1B       -1.3173   -2.9419    0.2025 H         1 RES1    0.0000
     28 H2B       -2.3227   -1.7930   -0.3038 H         1 RES1    0.0000
     29 H5B       -2.3581   -1.3879   -2.8641 H         1 RES1    0.0000
     30 H6B       -1.3615   -2.1383   -3.8333 H         1 RES1    0.0000
     31 H3B       -0.5046   -3.3470   -2.0251 H         1 RES1    0.0000
     32 H4B       -2.0953   -3.4864   -1.9673 H         1 RES1    0.0000
@<TRIPOS>BOND
     1    1    2 1
     2    2    3 1
     3    3    4 1
     4    4    5 1
     5    5    6 1
     6    6    1 1
     7    7    1 1
     8    8    2 1
     9    9    2 1
    10   10    3 1
    11   11    3 1
    12   12    4 1
    13   13    4 1
    14   14    5 1
    15   15    5 1
    16   16    6 1
    17   17    6 1
    18   18    7 1
    19   19   17 1
    20   20   18 1
    21   21   18 1
    22   22   19 1
    23   23   20 1
    24   24   20 1
    25   25   20 1
    26   26   22 1
    27   27   22 1
    28   28   22 1
    29   29   23 1
    30   30   23 1
    31   31   26 1
    32   32   26 1
    33   18   19 1
    34   23   26 1
@<TRIPOS>SUBSTRUCTURE
     1 RES1 1

@<TRIPOS>CRYSIN
   5.3699    6.6408   14.5590  90.0000  96.5100  90.0000  14 1

