# MOL2 file generated by ConQuest
# Please check atom types

@<TRIPOS>MOLECULE
HEBBAR
    50    52     2
SMALL
NO_CHARGES
****
Generated from CSD

@<TRIPOS>ATOM
      1 O1         3.5283    1.0591   -4.9671 O.2       1 RES1    0.0000
      2 O2         3.5255   -0.9752   -4.2641 O.2       1 RES1    0.0000
      3 O3         7.4330    3.8971    3.1879 O.2       1 RES1    0.0000
      4 O4         4.4358    3.5363    2.1018 O.3       1 RES1    0.0000
      5 O5         4.9207    5.0687    0.5466 O.2       1 RES1    0.0000
      6 N1         6.1126    1.8574    0.6522 N.pl3     1 RES1    0.0000
      7 N2         6.6158    0.9377    1.5777 N.2       1 RES1    0.0000
      8 N3         3.7998    0.2090   -4.1148 N.pl3     1 RES1    0.0000
      9 N4         7.6191    0.9144    3.6429 N.3       1 RES1    0.0000
     10 C1         7.0872    1.5663    2.6033 C.2       1 RES1    0.0000
     11 C2         7.0808    3.0023    2.4469 C.2       1 RES1    0.0000
     12 C3         6.4571    3.2237    1.0495 C.3       1 RES1    0.0000
     13 C4         5.5889    1.4806   -0.5367 C.ar      1 RES1    0.0000
     14 C5         5.2615    2.4093   -1.5299 C.ar      1 RES1    0.0000
     15 C6         4.6720    1.9967   -2.7005 C.ar      1 RES1    0.0000
     16 C7         4.4119    0.6376   -2.8893 C.ar      1 RES1    0.0000
     17 C8         4.7620   -0.2733   -1.9398 C.ar      1 RES1    0.0000
     18 C9         5.3999    0.1089   -0.7776 C.ar      1 RES1    0.0000
     19 C10        7.6253   -0.5662    3.7514 C.3       1 RES1    0.0000
     20 C11        8.0354   -0.8055    5.1587 C.3       1 RES1    0.0000
     21 C12        8.4623    0.4447    5.7278 C.3       1 RES1    0.0000
     22 C13        8.0389    1.5163    4.8924 C.3       1 RES1    0.0000
     23 C14        7.5349    3.8542    0.2029 C.ar      1 RES1    0.0000
     24 C15        7.8303    5.2580    0.1719 C.ar      1 RES1    0.0000
     25 C16        8.9250    5.7188   -0.5846 C.ar      1 RES1    0.0000
     26 C17        9.7360    4.8026   -1.3340 C.ar      1 RES1    0.0000
     27 C18        9.4167    3.5023   -1.2523 C.ar      1 RES1    0.0000
     28 C19        8.3537    3.0308   -0.5466 C.ar      1 RES1    0.0000
     29 C20        5.1725    4.1024    1.1791 C.2       1 RES1    0.0000
     30 C21        3.1994    4.2007    2.3708 C.3       1 RES1    0.0000
     31 H1         5.4439    3.3398   -1.3946 H         1 RES1    0.0000
     32 H2         4.4413    2.6254   -3.3668 H         1 RES1    0.0000
     33 H3         4.5655   -1.1966   -2.0849 H         1 RES1    0.0000
     34 H4         5.7161   -0.5358   -0.1550 H         1 RES1    0.0000
     35 H5         9.1325    6.6439   -0.6057 H         1 RES1    0.0000
     36 H6        10.4639    5.1080   -1.8595 H         1 RES1    0.0000
     37 H7         9.9625    2.8755   -1.7186 H         1 RES1    0.0000
     38 H8         8.1680    2.1075   -0.5635 H         1 RES1    0.0000
     39 H9         8.2490   -0.9466    3.1414 H         1 RES1    0.0000
     40 H10        6.7581   -0.9287    3.5781 H         1 RES1    0.0000
     41 H11        8.7536   -1.4288    5.1840 H         1 RES1    0.0000
     42 H12        7.2974   -1.1430    5.6489 H         1 RES1    0.0000
     43 H13        9.4078    0.4465    5.8039 H         1 RES1    0.0000
     44 H14        8.0802    0.5537    6.5927 H         1 RES1    0.0000
     45 H15        7.3147    1.9825    5.2967 H         1 RES1    0.0000
     46 H16        8.7530    2.1253    4.7473 H         1 RES1    0.0000
     47 H17        2.7306    3.7327    3.0428 H         1 RES1    0.0000
     48 H18        3.3725    5.0901    2.6625 H         1 RES1    0.0000
     49 H19        2.6751    4.2328    1.5777 H         1 RES1    0.0000
     50 H20        7.2885    7.0904    0.6621 Du        2 SUP2    0.0000
@<TRIPOS>BOND
     1    1    8 2
     2    2    8 2
     3    3   11 2
     4    4   29 1
     5    5   29 2
     6    6    7 1
     7    7   10 2
     8    8   16 1
     9    9   10 1
    10   10   11 1
    11   11   12 1
    12   12    6 1
    13   13    6 1
    14   14   13 ar
    15   15   14 ar
    16   16   15 ar
    17   17   16 ar
    18   18   13 ar
    19   19    9 1
    20   20   19 1
    21   21   20 1
    22   22    9 1
    23   23   12 1
    24   24   23 ar
    25   25   24 ar
    26   26   25 ar
    27   27   26 ar
    28   28   23 ar
    29   29   12 1
    30   30    4 1
    31   31   14 1
    32   32   15 1
    33   33   17 1
    34   34   18 1
    35   35   25 1
    36   36   26 1
    37   37   27 1
    38   38   28 1
    39   39   19 1
    40   40   19 1
    41   41   20 1
    42   42   20 1
    43   43   21 1
    44   44   21 1
    45   45   22 1
    46   46   22 1
    47   47   30 1
    48   48   30 1
    49   49   30 1
    50   17   18 ar
    51   21   22 1
    52   27   28 ar
@<TRIPOS>SUBSTRUCTURE
     1 RES1 1
     2 SUP2 50

@<TRIPOS>CRYSIN
   7.8500   17.8600   14.2670  90.0000  99.1100  90.0000 231 1

