# MOL2 file generated by ConQuest
# Please check atom types

@<TRIPOS>MOLECULE
HEBJEE
    96   102     1
SMALL
NO_CHARGES
****
Generated from CSD

@<TRIPOS>ATOM
      1 C1         9.8559    1.3035    2.8948 C.ar      1 RES1    0.0000
      2 C2        10.7159    0.9813    1.8570 C.ar      1 RES1    0.0000
      3 H1        10.7913    1.5740    1.1194 H         1 RES1    0.0000
      4 C3        11.4653   -0.1754    1.8661 C.ar      1 RES1    0.0000
      5 H2        12.0506   -0.3798    1.1458 H         1 RES1    0.0000
      6 C4        11.3491   -1.0324    2.9412 C.ar      1 RES1    0.0000
      7 H3        11.8498   -1.8396    2.9551 H         1 RES1    0.0000
      8 C5        10.5124   -0.7266    3.9978 C.ar      1 RES1    0.0000
      9 H4        10.4541   -1.3237    4.7335 H         1 RES1    0.0000
     10 C6         9.7503    0.4450    4.0048 C.ar      1 RES1    0.0000
     11 N1         8.9305    0.7786    5.0840 N.3       1 RES1    0.0000
     12 C7         8.5620   -0.3100    5.9909 C.3       1 RES1    0.0000
     13 H5         7.9914    0.0395    6.7056 H         1 RES1    0.0000
     14 H6         9.3727   -0.6981    6.3801 H         1 RES1    0.0000
     15 H7         8.0760   -0.9988    5.4917 H         1 RES1    0.0000
     16 C8         7.8887    1.7724    4.8744 C.3       1 RES1    0.0000
     17 H8         7.1435    1.3852    4.3304 H         1 RES1    0.0000
     18 C9         7.3576    2.3212    6.1835 C.ar      1 RES1    0.0000
     19 C10        8.2395    2.8048    7.1360 C.ar      1 RES1    0.0000
     20 H9         9.1755    2.7396    6.9894 H         1 RES1    0.0000
     21 C11        7.7628    3.3841    8.3038 C.ar      1 RES1    0.0000
     22 H10        8.3731    3.7121    8.9538 H         1 RES1    0.0000
     23 C12        6.4041    3.4844    8.5243 C.ar      1 RES1    0.0000
     24 H11        6.0746    3.8877    9.3181 H         1 RES1    0.0000
     25 C13        5.5388    2.9978    7.5863 C.ar      1 RES1    0.0000
     26 H12        4.6034    3.0601    7.7351 H         1 RES1    0.0000
     27 C14        6.0077    2.4110    6.4140 C.ar      1 RES1    0.0000
     28 H13        5.3928    2.0723    5.7738 H         1 RES1    0.0000
     29 N2         8.5154    2.9187    4.1555 N.3       1 RES1    0.0000
     30 O1         7.4087    3.8177    3.8409 O.3       1 RES1    0.0000
     31 C15        9.0456    2.5649    2.8285 C.3       1 RES1    0.0000
     32 H14        9.6496    3.3038    2.5319 H         1 RES1    0.0000
     33 C16        7.7969    2.5519    1.8782 C.3       1 RES1    0.0000
     34 C17        7.5341    1.3083    1.0727 C.2       1 RES1    0.0000
     35 O2         7.5716    1.2642   -0.1248 O.2       1 RES1    0.0000
     36 O3         7.3572    0.2691    1.8749 O.3       1 RES1    0.0000
     37 C18        7.2026   -1.0096    1.2357 C.3       1 RES1    0.0000
     38 H15        7.0937   -1.7057    1.9179 H         1 RES1    0.0000
     39 H16        7.9983   -1.2030    0.6961 H         1 RES1    0.0000
     40 H17        6.4122   -0.9922    0.6574 H         1 RES1    0.0000
     41 C19        6.7973    3.3444    2.6371 C.3       1 RES1    0.0000
     42 C20        5.3142    3.0742    2.8018 C.2       1 RES1    0.0000
     43 O4         4.5267    3.9007    3.1246 O.2       1 RES1    0.0000
     44 O5         5.0292    1.7917    2.6195 O.3       1 RES1    0.0000
     45 C21        3.6213    1.4758    2.6652 C.3       1 RES1    0.0000
     46 H18        3.4974    0.5137    2.5226 H         1 RES1    0.0000
     47 H19        3.1522    1.9735    1.9629 H         1 RES1    0.0000
     48 H20        3.2583    1.7254    3.5396 H         1 RES1    0.0000
     49 C22        7.3803    3.9395    1.3481 C.3       1 RES1    0.0000
     50 C23        6.3758    3.9852    0.2191 C.2       1 RES1    0.0000
     51 O6         5.3808    3.3301    0.1830 O.2       1 RES1    0.0000
     52 O7         6.7163    4.9001   -0.6828 O.3       1 RES1    0.0000
     53 C24        5.7426    5.1074   -1.7537 C.3       1 RES1    0.0000
     54 H21        6.0759    5.7931   -2.3706 H         1 RES1    0.0000
     55 H22        4.8914    5.4002   -1.3690 H         1 RES1    0.0000
     56 H23        5.6088    4.2675   -2.2404 H         1 RES1    0.0000
     57 C25        8.3451    5.0681    1.3712 C.2       1 RES1    0.0000
     58 C26        9.6578    5.1192    0.5177 C.3       1 RES1    0.0000
     59 O8        10.1925    3.8919    0.2439 O.3       1 RES1    0.0000
     60 C27       11.5179    3.9489   -0.3408 C.3       1 RES1    0.0000
     61 H24       11.8395    3.0382   -0.5085 H         1 RES1    0.0000
     62 H25       12.1279    4.4036    0.2775 H         1 RES1    0.0000
     63 H26       11.4811    4.4431   -1.1861 H         1 RES1    0.0000
     64 O9        10.4982    5.9000    1.4098 O.3       1 RES1    0.0000
     65 C28        9.4309    6.1586   -0.6085 C.2       1 RES1    0.0000
     66 C29        9.2241    5.8498   -2.0412 C.2       1 RES1    0.0000
     67 O10        9.4597    4.7822   -2.5454 O.2       1 RES1    0.0000
     68 O11        8.7639    6.9140   -2.6950 O.3       1 RES1    0.0000
     69 C30        8.5627    6.7252   -4.1158 C.3       1 RES1    0.0000
     70 H27        8.2277    7.5559   -4.5118 H         1 RES1    0.0000
     71 H28        7.9109    6.0083   -4.2606 H         1 RES1    0.0000
     72 H29        9.4147    6.4824   -4.5366 H         1 RES1    0.0000
     73 C31        9.3531    7.3249    0.0172 C.2       1 RES1    0.0000
     74 C32        8.9053    8.6627   -0.4609 C.2       1 RES1    0.0000
     75 O12        7.7853    9.0462   -0.3068 O.2       1 RES1    0.0000
     76 O13        9.8837    9.3331   -1.0509 O.3       1 RES1    0.0000
     77 C33        9.5284   10.6792   -1.4636 C.3       1 RES1    0.0000
     78 H30       10.3041   11.1099   -1.8807 H         1 RES1    0.0000
     79 H31        9.2481   11.1977   -0.6806 H         1 RES1    0.0000
     80 H32        8.7915   10.6401   -2.1086 H         1 RES1    0.0000
     81 C34        9.5756    7.0062    1.5194 C.3       1 RES1    0.0000
     82 C35       10.0879    8.1341    2.3872 C.2       1 RES1    0.0000
     83 O14        9.9021    9.2859    2.1170 O.2       1 RES1    0.0000
     84 O15       10.7373    7.6724    3.4364 O.3       1 RES1    0.0000
     85 C36       11.1161    8.6807    4.4079 C.3       1 RES1    0.0000
     86 H33       11.5946    8.2561    5.1506 H         1 RES1    0.0000
     87 H34       10.3102    9.1233    4.7505 H         1 RES1    0.0000
     88 H35       11.6963    9.3450    3.9815 H         1 RES1    0.0000
     89 C37        8.3100    6.2500    1.9901 C.2       1 RES1    0.0000
     90 C38        7.3876    6.8306    2.9863 C.2       1 RES1    0.0000
     91 O16        7.7292    7.7133    3.7392 O.2       1 RES1    0.0000
     92 O17        6.1874    6.2688    2.9573 O.3       1 RES1    0.0000
     93 C39        5.3150    6.6291    4.0536 C.3       1 RES1    0.0000
     94 H36        4.4561    6.1663    3.9536 H         1 RES1    0.0000
     95 H37        5.1675    7.5976    4.0482 H         1 RES1    0.0000
     96 H38        5.7299    6.3661    4.9009 H         1 RES1    0.0000
@<TRIPOS>BOND
     1    1    2 ar
     2    2    3 1
     3    4    2 ar
     4    5    4 1
     5    6    4 ar
     6    7    6 1
     7    8    6 ar
     8    9    8 1
     9   10    1 ar
    10   11   10 1
    11   12   11 1
    12   13   12 1
    13   14   12 1
    14   15   12 1
    15   16   11 1
    16   17   16 1
    17   18   16 1
    18   19   18 ar
    19   20   19 1
    20   21   19 ar
    21   22   21 1
    22   23   21 ar
    23   24   23 1
    24   25   23 ar
    25   26   25 1
    26   27   18 ar
    27   28   27 1
    28   29   16 1
    29   30   29 1
    30   31    1 1
    31   32   31 1
    32   33   31 1
    33   34   33 1
    34   35   34 2
    35   36   34 1
    36   37   36 1
    37   38   37 1
    38   39   37 1
    39   40   37 1
    40   41   30 1
    41   42   41 1
    42   43   42 2
    43   44   42 1
    44   45   44 1
    45   46   45 1
    46   47   45 1
    47   48   45 1
    48   49   33 1
    49   50   49 1
    50   51   50 2
    51   52   50 1
    52   53   52 1
    53   54   53 1
    54   55   53 1
    55   56   53 1
    56   57   49 1
    57   58   57 1
    58   59   58 1
    59   60   59 1
    60   61   60 1
    61   62   60 1
    62   63   60 1
    63   64   58 1
    64   65   58 1
    65   66   65 1
    66   67   66 2
    67   68   66 1
    68   69   68 1
    69   70   69 1
    70   71   69 1
    71   72   69 1
    72   73   65 2
    73   74   73 1
    74   75   74 2
    75   76   74 1
    76   77   76 1
    77   78   77 1
    78   79   77 1
    79   80   77 1
    80   81   64 1
    81   82   81 1
    82   83   82 2
    83   84   82 1
    84   85   84 1
    85   86   85 1
    86   87   85 1
    87   88   85 1
    88   89   57 2
    89   90   89 1
    90   91   90 2
    91   92   90 1
    92   93   92 1
    93   94   93 1
    94   95   93 1
    95   96   93 1
    96    8   10 ar
    97   25   27 ar
    98   29   31 1
    99   33   41 1
   100   41   49 1
   101   73   81 1
   102   81   89 1
@<TRIPOS>SUBSTRUCTURE
     1 RES1 1

@<TRIPOS>CRYSIN
  11.1011   21.9520   15.9307  90.0000 103.2850  90.0000 231 1

