# MOL2 file generated by ConQuest
# Please check atom types

@<TRIPOS>MOLECULE
HEBJII
    86    92     2
SMALL
NO_CHARGES
****
Generated from CSD

@<TRIPOS>ATOM
      1 N1         1.9317    3.5708   14.5846 N.1       1 RES1    0.0000
      2 N2         1.9459    6.8765   14.8037 N.pl3     1 RES1    0.0000
      3 H1         2.3543    6.1814   15.0779 H         1 RES1    0.0000
      4 H2         2.2601    7.7625   14.9508 H         1 RES1    0.0000
      5 N3         0.3281    9.1651   14.1475 N.pl3     1 RES1    0.0000
      6 O1         1.2933    9.3853   14.9206 O.2       1 RES1    0.0000
      7 O2        -0.3329   10.1099   13.6720 O.2       1 RES1    0.0000
      8 C1        -0.9839    5.1873   13.4217 C.2       1 RES1    0.0000
      9 C2        -1.9418    6.3139   13.1836 C.3       1 RES1    0.0000
     10 H3        -2.4346    6.1076   12.3388 H         1 RES1    0.0000
     11 C3        -1.3043    7.7055   13.0069 C.3       1 RES1    0.0000
     12 H4        -1.9589    8.3755   13.3588 H         1 RES1    0.0000
     13 C4        -0.0447    7.8521   13.8175 C.2       1 RES1    0.0000
     14 C5        -2.9623    6.2079   14.3398 C.3       1 RES1    0.0000
     15 H5        -2.4865    6.2206   15.2082 H         1 RES1    0.0000
     16 H6        -3.5789    6.9811   14.3137 H         1 RES1    0.0000
     17 C6        -3.7585    4.9050   14.2023 C.3       1 RES1    0.0000
     18 H7        -4.1733    4.6925   15.0763 H         1 RES1    0.0000
     19 H8        -4.4905    5.0474   13.5511 H         1 RES1    0.0000
     20 C7        -2.9382    3.7160   13.7551 C.ar      1 RES1    0.0000
     21 C8        -3.5049    2.4401   13.7502 C.ar      1 RES1    0.0000
     22 H9        -4.4008    2.3301   14.0468 H         1 RES1    0.0000
     23 C9        -2.7938    1.3315   13.3231 C.ar      1 RES1    0.0000
     24 H10       -3.1954    0.4702   13.3461 H         1 RES1    0.0000
     25 C10       -1.4964    1.4794   12.8618 C.ar      1 RES1    0.0000
     26 H11       -1.0180    0.7237   12.5422 H         1 RES1    0.0000
     27 C11       -0.9000    2.7235   12.8666 C.ar      1 RES1    0.0000
     28 H12       -0.0065    2.8187   12.5581 H         1 RES1    0.0000
     29 C12       -1.6038    3.8510   13.3256 C.ar      1 RES1    0.0000
     30 C13        0.2722    5.4268   13.8723 C.2       1 RES1    0.0000
     31 C14       -1.0614    8.0453   11.5315 C.ar      1 RES1    0.0000
     32 C15       -0.2890    7.2234   10.7271 C.ar      1 RES1    0.0000
     33 H13        0.0827    6.4303   11.0916 H         1 RES1    0.0000
     34 C16       -0.0493    7.5389    9.3995 C.ar      1 RES1    0.0000
     35 H14        0.4742    6.9581    8.8609 H         1 RES1    0.0000
     36 C17       -0.5712    8.6938    8.8593 C.ar      1 RES1    0.0000
     37 H15       -0.3878    8.9264    7.9552 H         1 RES1    0.0000
     38 C18       -1.3621    9.5122    9.6442 C.ar      1 RES1    0.0000
     39 H16       -1.7420   10.3000    9.2724 H         1 RES1    0.0000
     40 C19       -1.6064    9.1891   10.9724 C.ar      1 RES1    0.0000
     41 H17       -2.1524    9.7584   11.5031 H         1 RES1    0.0000
     42 C20        1.1599    4.3595   14.2543 C.1       1 RES1    0.0000
     43 C21        0.7580    6.7903   14.1706 C.2       1 RES1    0.0000
     44 O3         0.3958   -1.6244    8.9543 O.2       2 RES2    0.0000
     45 O4         2.2385   -2.3649    9.8699 O.2       2 RES2    0.0000
     46 N4        -0.1381    4.1569    9.2635 N.1       2 RES2    0.0000
     47 N5        -0.2378    0.8684    9.2126 N.pl3     2 RES2    0.0000
     48 H18       -0.6794    1.5834    9.0881 H         2 RES2    0.0000
     49 H19       -0.6081    0.0069    9.0944 H         2 RES2    0.0000
     50 N6         1.4774   -1.4188    9.5735 N.pl3     2 RES2    0.0000
     51 C22        2.8061    2.5396   10.3688 C.2       2 RES2    0.0000
     52 C23        3.7746    1.4131   10.5595 C.3       2 RES2    0.0000
     53 H20        4.2702    1.5857   11.4109 H         2 RES2    0.0000
     54 C24        3.1609    0.0007   10.6647 C.3       2 RES2    0.0000
     55 H21        3.8059   -0.6407   10.2511 H         2 RES2    0.0000
     56 C25        1.8576   -0.1166    9.9176 C.2       2 RES2    0.0000
     57 C26        4.7799    1.5712    9.4025 C.3       2 RES2    0.0000
     58 H22        5.4045    0.8044    9.3963 H         2 RES2    0.0000
     59 H23        4.2964    1.5834    8.5383 H         2 RES2    0.0000
     60 C27        5.5633    2.8731    9.5749 C.3       2 RES2    0.0000
     61 H24        6.2769    2.7265   10.2463 H         2 RES2    0.0000
     62 H25        6.0027    3.0930    8.7147 H         2 RES2    0.0000
     63 C28        4.7291    4.0573   10.0091 C.ar      2 RES2    0.0000
     64 C29        5.2726    5.3314    9.9877 C.ar      2 RES2    0.0000
     65 H26        6.1521    5.4600    9.6505 H         2 RES2    0.0000
     66 C30        4.5512    6.4225   10.4514 C.ar      2 RES2    0.0000
     67 H27        4.9328    7.2923   10.4147 H         2 RES2    0.0000
     68 C31        3.2729    6.2487   10.9702 C.ar      2 RES2    0.0000
     69 H28        2.7955    6.9881   11.3299 H         2 RES2    0.0000
     70 C32        2.6997    4.9861   10.9583 C.ar      2 RES2    0.0000
     71 H29        1.8201    4.8654   11.2965 H         2 RES2    0.0000
     72 C33        3.4028    3.8923   10.4549 C.ar      2 RES2    0.0000
     73 C34        1.5324    2.3094    9.9654 C.2       2 RES2    0.0000
     74 C35        2.9572   -0.4204   12.1176 C.ar      2 RES2    0.0000
     75 C36        2.0589    0.2593   12.9313 C.ar      2 RES2    0.0000
     76 H30        1.5900    1.0095   12.5851 H         2 RES2    0.0000
     77 C37        1.8363   -0.1392   14.2343 C.ar      2 RES2    0.0000
     78 H31        1.2195    0.3342   14.7792 H         2 RES2    0.0000
     79 C38        2.5230   -1.2430   14.7459 C.ar      2 RES2    0.0000
     80 H32        2.3592   -1.5350   15.6356 H         2 RES2    0.0000
     81 C39        3.4394   -1.9083   13.9562 C.ar      2 RES2    0.0000
     82 H33        3.9232   -2.6459   14.3074 H         2 RES2    0.0000
     83 C40        3.6499   -1.4946   12.6493 C.ar      2 RES2    0.0000
     84 H34        4.2805   -1.9567   12.1100 H         2 RES2    0.0000
     85 C41        0.6479    3.3786    9.5955 C.1       2 RES2    0.0000
     86 C42        1.0147    0.9503    9.6880 C.2       2 RES2    0.0000
@<TRIPOS>BOND
     1    1   42 3
     2    2    3 1
     3    4    2 1
     4    5    6 2
     5    7    5 2
     6    8    9 1
     7    9   10 1
     8   11    9 1
     9   12   11 1
    10   13    5 1
    11   14    9 1
    12   15   14 1
    13   16   14 1
    14   17   14 1
    15   18   17 1
    16   19   17 1
    17   20   17 1
    18   21   20 ar
    19   22   21 1
    20   23   21 ar
    21   24   23 1
    22   25   23 ar
    23   26   25 1
    24   27   25 ar
    25   28   27 1
    26   29    8 1
    27   30    8 2
    28   31   11 1
    29   32   31 ar
    30   33   32 1
    31   34   32 ar
    32   35   34 1
    33   36   34 ar
    34   37   36 1
    35   38   36 ar
    36   39   38 1
    37   40   31 ar
    38   41   40 1
    39   42   30 1
    40   43    2 1
    41   44   50 2
    42   45   50 2
    43   46   85 3
    44   47   48 1
    45   49   47 1
    46   50   56 1
    47   51   52 1
    48   52   53 1
    49   54   52 1
    50   55   54 1
    51   56   54 1
    52   57   52 1
    53   58   57 1
    54   59   57 1
    55   60   57 1
    56   61   60 1
    57   62   60 1
    58   63   60 1
    59   64   63 ar
    60   65   64 1
    61   66   64 ar
    62   67   66 1
    63   68   66 ar
    64   69   68 1
    65   70   68 ar
    66   71   70 1
    67   72   51 1
    68   73   51 2
    69   74   54 1
    70   75   74 ar
    71   76   75 1
    72   77   75 ar
    73   78   77 1
    74   79   77 ar
    75   80   79 1
    76   81   79 ar
    77   82   81 1
    78   83   74 ar
    79   84   83 1
    80   85   73 1
    81   86   47 1
    82   11   13 1
    83   13   43 2
    84   20   29 ar
    85   27   29 ar
    86   30   43 1
    87   38   40 ar
    88   56   86 2
    89   63   72 ar
    90   70   72 ar
    91   73   86 1
    92   81   83 ar
@<TRIPOS>SUBSTRUCTURE
     1 RES1 1
     2 RES2 44

@<TRIPOS>CRYSIN
   8.9902   23.0477   15.9796  90.0000  96.1300  90.0000  14 1

