# MOL2 file generated by ConQuest
# Please check atom types

@<TRIPOS>MOLECULE
HECBAU
    49    52     1
SMALL
USER_CHARGES
****
Generated from CSD

@<TRIPOS>ATOM
      1 C1         0.0140    6.8058    6.1949 C.2       1 RES1    0.0000
      2 C2         1.1980    6.5871    5.2845 C.3       1 RES1    0.0000
      3 H1         1.3400    5.6343    5.1727 H         1 RES1    0.0000
      4 H2         1.9914    6.9585    5.7011 H         1 RES1    0.0000
      5 C3         1.0079    7.2354    3.8960 C.3       1 RES1    0.0000
      6 H3         0.0591    7.1391    3.6701 H         1 RES1    0.0000
      7 C4         1.7964    6.4456    2.8306 C.3       1 RES1    0.0000
      8 H4         1.5374    5.5092    2.9553 H         1 RES1    0.0000
      9 C5         1.3857    6.7941    1.4087 C.2       1 RES1    0.0000
     10 C6         2.2375    6.2571    0.3124 C.ar      1 RES1    0.0000
     11 C7         1.7927    6.3840   -1.0107 C.ar      1 RES1    0.0000
     12 H5         0.9774    6.7954   -1.1875 H         1 RES1    0.0000
     13 C8         2.5532    5.9048   -2.0499 C.ar      1 RES1    0.0000
     14 H6         2.2461    5.9717   -2.9245 H         1 RES1    0.0000
     15 C9         3.7768    5.3230   -1.7860 C.ar      1 RES1    0.0000
     16 H7         4.3026    5.0197   -2.4903 H         1 RES1    0.0000
     17 C10        4.2295    5.1847   -0.4871 C.ar      1 RES1    0.0000
     18 H8         5.0558    4.7900   -0.3247 H         1 RES1    0.0000
     19 C11        3.4556    5.6337    0.5782 C.ar      1 RES1    0.0000
     20 C12        3.9145    5.4298    1.9991 C.3       1 RES1    0.0000
     21 H9         4.8827    5.4854    2.0329 H         1 RES1    0.0000
     22 H10        3.6561    4.5429    2.2943 H         1 RES1    0.0000
     23 C13        3.3197    6.4645    2.9403 C.3       1 RES1    0.0000
     24 H11        3.6537    7.3466    2.7112 H         1 RES1    0.0000
     25 H12        3.5848    6.2679    3.8526 H         1 RES1    0.0000
     26 C14        0.0323    6.3808    7.6414 C.ar      1 RES1    0.0000
     27 C15       -1.0530    6.6995    8.4308 C.ar      1 RES1    0.0000
     28 H13       -1.7775    7.1454    8.0568 H         1 RES1    0.0000
     29 C16       -1.0773    6.3651    9.7651 C.ar      1 RES1    0.0000
     30 H14       -1.8079    6.5910   10.2954 H         1 RES1    0.0000
     31 C17       -0.0140    5.6973   10.3008 C.ar      1 RES1    0.0000
     32 H15       -0.0171    5.4664   11.2023 H         1 RES1    0.0000
     33 C18        1.0414    5.3726    9.5251 C.ar      1 RES1    0.0000
     34 H16        1.7598    4.9183    9.9034 H         1 RES1    0.0000
     35 C19        1.2979    8.7308    3.9287 C.ar      1 RES1    0.0000
     36 C20        0.3321    9.6258    3.4860 C.ar      1 RES1    0.0000
     37 H17       -0.4838    9.2981    3.1820 H         1 RES1    0.0000
     38 C21        0.5527   10.9923    3.4848 C.ar      1 RES1    0.0000
     39 H18       -0.1097   11.5727    3.1858 H         1 RES1    0.0000
     40 C22        1.7647   11.4921    3.9299 C.ar      1 RES1    0.0000
     41 H19        1.9286   12.4075    3.9141 H         1 RES1    0.0000
     42 C23        2.7244   10.6225    4.3970 C.ar      1 RES1    0.0000
     43 H20        3.5330   10.9565    4.7134 H         1 RES1    0.0000
     44 C24        2.4983    9.2518    4.4016 C.ar      1 RES1    0.0000
     45 H21        3.1552    8.6772    4.7230 H         1 RES1    0.0000
     46 N1         1.0792    5.6950    8.1973 N.pl3     1 RES1    1.0000
     47 O1        -0.9938    7.3417    5.8010 O.2       1 RES1    0.0000
     48 O2         0.3802    7.4359    1.1702 O.2       1 RES1    0.0000
     49 O3         2.0962    5.3005    7.5027 O.2       1 RES1   -1.0000
@<TRIPOS>BOND
     1    1    2 1
     2    2    3 1
     3    4    2 1
     4    5    2 1
     5    6    5 1
     6    7    5 1
     7    8    7 1
     8    9    7 1
     9   10    9 1
    10   11   10 ar
    11   12   11 1
    12   13   11 ar
    13   14   13 1
    14   15   13 ar
    15   16   15 1
    16   17   15 ar
    17   18   17 1
    18   19   10 ar
    19   20   19 1
    20   21   20 1
    21   22   20 1
    22   23    7 1
    23   24   23 1
    24   25   23 1
    25   26    1 1
    26   27   26 ar
    27   28   27 1
    28   29   27 ar
    29   30   29 1
    30   31   29 ar
    31   32   31 1
    32   33   31 ar
    33   34   33 1
    34   35    5 1
    35   36   35 ar
    36   37   36 1
    37   38   36 ar
    38   39   38 1
    39   40   38 ar
    40   41   40 1
    41   42   40 ar
    42   43   42 1
    43   44   35 ar
    44   45   44 1
    45   46   26 ar
    46   47    1 2
    47   48    9 2
    48   49   46 1
    49   17   19 ar
    50   20   23 1
    51   33   46 ar
    52   42   44 ar
@<TRIPOS>SUBSTRUCTURE
     1 RES1 1

@<TRIPOS>CRYSIN
   6.0935   15.8400   19.2150  90.0000  90.0000  90.0000  19 1

