# MOL2 file generated by ConQuest
# Please check atom types

@<TRIPOS>MOLECULE
HECDIC
    74    74     2
SMALL
NO_CHARGES
****
Generated from CSD

@<TRIPOS>ATOM
      1 C1        12.0415    5.0880    5.5320 C.ar      1 RES1    0.0000
      2 C2        12.3122    6.0627    4.5807 C.ar      1 RES1    0.0000
      3 C3        13.5548    6.0655    3.9278 C.ar      1 RES1    0.0000
      4 C4        14.5956    5.2086    4.2036 C.ar      1 RES1    0.0000
      5 C5        13.1370    4.3040    5.9970 C.ar      1 RES1    0.0000
      6 C6        14.3301    4.3972    5.2961 C.ar      1 RES1    0.0000
      7 C7        10.5760    4.7929    6.0129 C.3       1 RES1    0.0000
      8 C8        10.2312    5.6789    7.2214 C.3       1 RES1    0.0000
      9 C9        10.3471    3.3253    6.3820 C.3       1 RES1    0.0000
     10 C10        9.5705    5.0664    4.8898 C.3       1 RES1    0.0000
     11 C11       11.3961    7.2502    4.2862 C.3       1 RES1    0.0000
     12 C12       15.8858    5.1769    3.3922 C.3       1 RES1    0.0000
     13 C13       13.1445    3.4729    7.2480 C.3       1 RES1    0.0000
     14 N1        13.7876    7.0506    2.8433 N.pl3     1 RES1    0.0000
     15 N2        15.4581    3.5434    5.7571 N.pl3     1 RES1    0.0000
     16 O1        13.2945    6.8470    1.7587 O.2       1 RES1    0.0000
     17 O2        14.4611    8.0292    3.1084 O.2       1 RES1    0.0000
     18 O3        16.3257    4.0471    6.4380 O.2       1 RES1    0.0000
     19 O4        15.4774    2.3924    5.4174 O.2       1 RES1    0.0000
     20 C14        6.1874    1.3864    1.5908 C.ar      2 RES2    0.0000
     21 C15        5.0636    0.9712    2.3596 C.ar      2 RES2    0.0000
     22 C16        3.8699    1.6594    2.2024 C.ar      2 RES2    0.0000
     23 C17        3.6456    2.6878    1.3217 C.ar      2 RES2    0.0000
     24 C18        4.7108    2.9358    0.4970 C.ar      2 RES2    0.0000
     25 C19        5.9626    2.3011    0.5583 C.ar      2 RES2    0.0000
     26 C20        7.6596    0.8871    1.9186 C.3       2 RES2    0.0000
     27 C21        7.9449   -0.4047    1.1698 C.3       2 RES2    0.0000
     28 C22        8.7182    1.9773    1.5722 C.3       2 RES2    0.0000
     29 C23        7.8250    0.6645    3.4521 C.3       2 RES2    0.0000
     30 C24        5.0430   -0.2209    3.2789 C.3       2 RES2    0.0000
     31 C25        2.3367    3.4496    1.2591 C.3       2 RES2    0.0000
     32 C26        6.9332    2.5466   -0.6009 C.3       2 RES2    0.0000
     33 N3         2.7267    1.2616    3.0418 N.pl3     2 RES2    0.0000
     34 N4         4.5326    3.9677   -0.5383 N.pl3     2 RES2    0.0000
     35 O5         1.9591    0.4256    2.5968 O.2       2 RES2    0.0000
     36 O6         2.5711    1.7804    4.1103 O.2       2 RES2    0.0000
     37 O7         3.9218    3.6575   -1.5122 O.2       2 RES2    0.0000
     38 O8         5.0097    5.0552   -0.3637 O.2       2 RES2    0.0000
     39 H1        10.7037    5.6679    8.1008 H         1 RES1    0.0000
     40 H2        10.4161    6.6292    7.0482 H         1 RES1    0.0000
     41 H3         9.3223    5.4586    7.5278 H         1 RES1    0.0000
     42 H4        10.6574    2.9687    5.3561 H         1 RES1    0.0000
     43 H5        10.9655    2.9140    7.0615 H         1 RES1    0.0000
     44 H6         9.4628    3.1808    6.5286 H         1 RES1    0.0000
     45 H7         9.5527    6.0052    4.6633 H         1 RES1    0.0000
     46 H8         9.7524    4.8272    4.1303 H         1 RES1    0.0000
     47 H9         8.7654    4.7786    5.1296 H         1 RES1    0.0000
     48 H10       10.9108    7.0796    3.3975 H         1 RES1    0.0000
     49 H11       10.8041    7.4643    5.0230 H         1 RES1    0.0000
     50 H12       11.9366    7.9408    4.0371 H         1 RES1    0.0000
     51 H13       15.8646    5.6371    2.4782 H         1 RES1    0.0000
     52 H14       16.6201    5.2522    3.9838 H         1 RES1    0.0000
     53 H15       16.2064    4.3494    3.3975 H         1 RES1    0.0000
     54 H16       12.4989    3.7539    7.8476 H         1 RES1    0.0000
     55 H17       12.9236    2.4215    6.9949 H         1 RES1    0.0000
     56 H18       14.0429    3.4198    7.7277 H         1 RES1    0.0000
     57 H19        7.3422   -1.2435    1.6122 H         2 RES2    0.0000
     58 H20        8.0026   -0.0706    0.2132 H         2 RES2    0.0000
     59 H21        8.9071   -0.8735    1.3590 H         2 RES2    0.0000
     60 H22        8.7677    1.9043    0.4530 H         2 RES2    0.0000
     61 H23        8.3604    2.9256    1.7321 H         2 RES2    0.0000
     62 H24        9.4662    1.8979    2.0385 H         2 RES2    0.0000
     63 H25        8.7014    0.6043    3.5174 H         2 RES2    0.0000
     64 H26        7.7100   -0.3876    3.5974 H         2 RES2    0.0000
     65 H27        7.8592    1.8433    3.5974 H         2 RES2    0.0000
     66 H28        5.6327   -0.9340    3.0378 H         2 RES2    0.0000
     67 H29        5.2428    0.0526    4.1570 H         2 RES2    0.0000
     68 H30        4.1033   -0.5951    3.2776 H         2 RES2    0.0000
     69 H31        1.7164    3.0332    0.6129 H         2 RES2    0.0000
     70 H32        2.0736    3.1417    2.2384 H         2 RES2    0.0000
     71 H33        2.4740    4.4633    0.9859 H         2 RES2    0.0000
     72 H34        7.3594    3.4092   -0.3464 H         2 RES2    0.0000
     73 H35        7.3092    1.5261   -0.7994 H         2 RES2    0.0000
     74 H36        6.3669    2.5481   -1.2791 H         2 RES2    0.0000
@<TRIPOS>BOND
     1    1    2 ar
     2    2    3 ar
     3    3    4 ar
     4    4    6 ar
     5    5    1 ar
     6    6    5 ar
     7    7    1 1
     8    8    7 1
     9    9    7 1
    10   10    7 1
    11   11    2 1
    12   12    4 1
    13   13    5 1
    14   14    3 1
    15   15    6 1
    16   16   14 2
    17   17   14 2
    18   18   15 2
    19   19   15 2
    20   20   21 ar
    21   21   22 ar
    22   22   23 ar
    23   23   24 ar
    24   24   25 ar
    25   25   20 ar
    26   26   20 1
    27   27   26 1
    28   28   26 1
    29   29   26 1
    30   30   21 1
    31   31   23 1
    32   32   25 1
    33   33   22 1
    34   34   24 1
    35   35   33 2
    36   36   33 2
    37   37   34 2
    38   38   34 2
    39   39    8 1
    40   40    8 1
    41   41    8 1
    42   42    9 1
    43   43    9 1
    44   44    9 1
    45   45   10 1
    46   46   10 1
    47   47   10 1
    48   48   11 1
    49   49   11 1
    50   50   11 1
    51   51   12 1
    52   52   12 1
    53   53   12 1
    54   54   13 1
    55   55   13 1
    56   56   13 1
    57   57   27 1
    58   58   27 1
    59   59   27 1
    60   60   28 1
    61   61   28 1
    62   62   28 1
    63   63   29 1
    64   64   29 1
    65   65   29 1
    66   66   30 1
    67   67   30 1
    68   68   30 1
    69   69   31 1
    70   70   31 1
    71   71   31 1
    72   72   32 1
    73   73   32 1
    74   74   32 1
@<TRIPOS>SUBSTRUCTURE
     1 RES1 1
     2 RES2 20

@<TRIPOS>CRYSIN
   9.9320   11.2000   14.0800  74.1000  75.5400  71.5300   2 1

