# MOL2 file generated by ConQuest
# Please check atom types

@<TRIPOS>MOLECULE
HECFOK
    24    25     1
SMALL
NO_CHARGES
****
Generated from CSD

@<TRIPOS>ATOM
      1 N1         4.4247    0.7128    8.5830 N.pl3     1 RES1    0.0000
      2 C1         4.6109    0.1076    7.2618 C.3       1 RES1    0.0000
      3 C2         3.2373    0.9552    9.1929 C.2       1 RES1    0.0000
      4 C3         1.9238    0.8855    8.5329 C.ar      1 RES1    0.0000
      5 C4         1.7199    1.4006    7.2561 C.ar      1 RES1    0.0000
      6 C5         0.4526    1.4112    6.6986 C.ar      1 RES1    0.0000
      7 C6        -0.6197    0.9196    7.4145 C.ar      1 RES1    0.0000
      8 C7        -0.4312    0.4091    8.6811 C.ar      1 RES1    0.0000
      9 C8         0.8334    0.3878    9.2465 C.ar      1 RES1    0.0000
     10 N2         3.3912    1.3211   10.4663 N.2       1 RES1    0.0000
     11 C9         4.7264    1.3279   10.6783 C.2       1 RES1    0.0000
     12 C10        5.3740    0.9552    9.5440 C.2       1 RES1    0.0000
     13 N3         6.7674    0.9052    9.3149 N.pl3     1 RES1    0.0000
     14 O1         7.4938    1.1014   10.2736 O.2       1 RES1    0.0000
     15 O2         7.1829    0.7211    8.1795 O.2       1 RES1    0.0000
     16 H1         3.7413   -0.3257    6.9996 H         1 RES1    0.0000
     17 H2         4.8267    0.7878    6.6234 H         1 RES1    0.0000
     18 H3         5.3314   -0.5302    7.2960 H         1 RES1    0.0000
     19 H4         2.4583    1.7498    6.7488 H         1 RES1    0.0000
     20 H5         0.3034    1.7953    5.8254 H         1 RES1    0.0000
     21 H6        -1.5034    0.8863    7.0110 H         1 RES1    0.0000
     22 H7        -1.1825    0.0833    9.1998 H         1 RES1    0.0000
     23 H8         1.0098    0.0530   10.1118 H         1 RES1    0.0000
     24 H9         5.1604    1.5529   11.4797 H         1 RES1    0.0000
@<TRIPOS>BOND
     1    1    2 1
     2    2   16 1
     3    3    1 1
     4    4    3 1
     5    5    4 ar
     6    6    5 ar
     7    7    6 ar
     8    8    7 ar
     9    9    4 ar
    10   10    3 2
    11   11   10 1
    12   12    1 1
    13   13   12 1
    14   14   13 2
    15   15   13 2
    16   17    2 1
    17   18    2 1
    18   19    5 1
    19   20    6 1
    20   21    7 1
    21   22    8 1
    22   23    9 1
    23   24   11 1
    24    8    9 ar
    25   11   12 2
@<TRIPOS>SUBSTRUCTURE
     1 RES1 1

@<TRIPOS>CRYSIN
  11.1270    7.5750   12.0460  90.0000 108.8500  90.0000  14 1

