# MOL2 file generated by ConQuest
# Please check atom types

@<TRIPOS>MOLECULE
HECLAC
    34    36     1
SMALL
NO_CHARGES
****
Generated from CSD

@<TRIPOS>ATOM
      1 O1         0.5761    2.3739    8.2725 O.3       1 RES1    0.0000
      2 O2        -2.0407    0.3437   13.0604 O.3       1 RES1    0.0000
      3 N1         0.7640    1.0058    7.9161 N.2       1 RES1    0.0000
      4 N2        -0.4492    1.1578    9.8011 N.2       1 RES1    0.0000
      5 N3        -1.4778    2.5722   11.9144 N.3       1 RES1    0.0000
      6 N4        -1.6809    1.3902   13.9443 N.2       1 RES1    0.0000
      7 C1        -1.1027    3.7201   11.2076 C.2       1 RES1    0.0000
      8 C2        -0.4614    3.6364   10.0133 C.2       1 RES1    0.0000
      9 C3        -0.0712    4.8999    9.2830 C.3       1 RES1    0.0000
     10 C4         0.2540    6.0125   10.2563 C.3       1 RES1    0.0000
     11 C5        -1.2626    7.4259   11.6949 C.ar      1 RES1    0.0000
     12 C6        -2.3073    7.5603   12.5876 C.ar      1 RES1    0.0000
     13 C7        -2.9651    6.4477   13.0399 C.ar      1 RES1    0.0000
     14 C8        -2.5774    5.1885   12.6125 C.ar      1 RES1    0.0000
     15 C9        -1.5055    5.0365   11.7330 C.ar      1 RES1    0.0000
     16 C10       -0.8542    6.1789   11.2529 C.ar      1 RES1    0.0000
     17 C11       -0.1489    2.3717    9.4148 C.2       1 RES1    0.0000
     18 C12        0.1502    0.3657    8.8601 C.2       1 RES1    0.0000
     19 C13       -1.4417    2.4533   13.2770 C.2       1 RES1    0.0000
     20 C14        0.1177   -1.1214    8.9245 C.3       1 RES1    0.0000
     21 H1        -2.0449   -0.3745   13.6106 H         1 RES1    0.0000
     22 H2        -1.4423    1.7405   11.4739 H         1 RES1    0.0000
     23 H3        -0.7771    5.1445    8.6786 H         1 RES1    0.0000
     24 H4         0.7349    4.6708    8.7225 H         1 RES1    0.0000
     25 H5         1.0586    5.7504   10.6983 H         1 RES1    0.0000
     26 H6         0.4041    6.8960    9.7616 H         1 RES1    0.0000
     27 H7        -0.8310    8.2179   11.3276 H         1 RES1    0.0000
     28 H8        -2.5673    8.4823   12.8789 H         1 RES1    0.0000
     29 H9        -3.7371    6.5215   13.6253 H         1 RES1    0.0000
     30 H10       -3.0721    4.3844   12.8935 H         1 RES1    0.0000
     31 H11       -1.2084    3.2497   13.7863 H         1 RES1    0.0000
     32 H12        0.5524   -1.4761    8.1810 H         1 RES1    0.0000
     33 H13       -0.8275   -1.4541    9.0299 H         1 RES1    0.0000
     34 H14        0.5513   -1.4431    9.7031 H         1 RES1    0.0000
@<TRIPOS>BOND
     1    1    3 1
     2    2    6 1
     3    3   18 2
     4    4   17 2
     5    5    7 1
     6    6   19 2
     7    7    8 2
     8    8    9 1
     9    9   10 1
    10   10   16 1
    11   11   12 ar
    12   12   13 ar
    13   13   14 ar
    14   14   15 ar
    15   15    7 1
    16   16   11 ar
    17   17    1 1
    18   18    4 1
    19   19    5 1
    20   20   18 1
    21   21    2 1
    22   22    5 1
    23   23    9 1
    24   24    9 1
    25   25   10 1
    26   26   10 1
    27   27   11 1
    28   28   12 1
    29   29   13 1
    30   30   14 1
    31   31   19 1
    32   32   20 1
    33   33   20 1
    34   34   20 1
    35    8   17 1
    36   15   16 ar
@<TRIPOS>SUBSTRUCTURE
     1 RES1 1

@<TRIPOS>CRYSIN
   8.2460   11.0160   14.7400  90.0000  96.8400  90.0000  14 2

