# MOL2 file generated by ConQuest
# Please check atom types

@<TRIPOS>MOLECULE
HECLOS
    36    36     1
SMALL
NO_CHARGES
****
Generated from CSD

@<TRIPOS>ATOM
      1 O1         3.1102    0.5868    4.4501 O.3       1 RES1    0.0000
      2 H1         3.4883    1.2614    3.8434 H         1 RES1    0.0000
      3 N1         2.7629   -0.4472    3.4883 N.3       1 RES1    0.0000
      4 C1         1.4274   -0.9625    3.8953 C.3       1 RES1    0.0000
      5 C2         3.8272   -1.3887    3.5243 C.2       1 RES1    0.0000
      6 N2         5.2448   -3.0130    2.8610 N.2       1 RES1    0.0000
      7 N3         5.6671   -2.4641    4.0102 N.3       1 RES1    0.0000
      8 C3         4.1469   -2.3534    2.5625 C.2       1 RES1    0.0000
      9 H2         3.6343   -2.5125    1.7908 H         1 RES1    0.0000
     10 C4         4.8324   -1.4955    4.4411 C.2       1 RES1    0.0000
     11 H3         4.9254   -0.9887    5.2275 H         1 RES1    0.0000
     12 C5         1.4350   -1.5387    5.3100 C.3       1 RES1    0.0000
     13 H4         2.0552   -2.2841    5.3525 H         1 RES1    0.0000
     14 H5         0.5445   -1.8466    5.5387 H         1 RES1    0.0000
     15 H6         1.7107   -0.8523    5.9372 H         1 RES1    0.0000
     16 C6         1.0155   -2.0341    2.8802 C.3       1 RES1    0.0000
     17 H7         0.9961   -1.6478    1.9901 H         1 RES1    0.0000
     18 H8         0.1350   -2.3728    3.1054 H         1 RES1    0.0000
     19 H9         1.6565   -2.7625    2.9014 H         1 RES1    0.0000
     20 C7         0.4627    0.2045    3.8057 C.3       1 RES1    0.0000
     21 H10        0.4608    0.5523    2.9002 H         1 RES1    0.0000
     22 H11        0.7401    0.9011    4.4199 H         1 RES1    0.0000
     23 H12       -0.4300   -0.0955    4.0379 H         1 RES1    0.0000
     24 C8         6.8235   -2.9955    4.6958 C.3       1 RES1    0.0000
     25 H13        7.2243   -2.3046    5.2641 H         1 RES1    0.0000
     26 H14        7.4961   -3.2875    4.0450 H         1 RES1    0.0000
     27 C9         6.3447   -4.2455    5.5989 C.3       1 RES1    0.0000
     28 H15        5.5935   -3.9626    6.1601 H         1 RES1    0.0000
     29 H16        6.0248   -4.9592    5.0082 H         1 RES1    0.0000
     30 C10        7.3552   -4.7569    6.4194 C.3       1 RES1    0.0000
     31 H17        7.7002   -4.0478    7.0018 H         1 RES1    0.0000
     32 H18        8.0952   -5.0876    5.8677 H         1 RES1    0.0000
     33 C11        6.7873   -5.9092    7.2789 C.3       1 RES1    0.0000
     34 H19        7.4904   -6.2717    7.8401 H         1 RES1    0.0000
     35 H20        6.4442   -6.6069    6.6988 H         1 RES1    0.0000
     36 H21        6.0696   -5.5717    7.8377 H         1 RES1    0.0000
@<TRIPOS>BOND
     1    1    2 1
     2    3    1 1
     3    4    3 1
     4    5    3 1
     5    6    7 1
     6    7   10 1
     7    8    5 1
     8    9    8 1
     9   10    5 2
    10   11   10 1
    11   12    4 1
    12   13   12 1
    13   14   12 1
    14   15   12 1
    15   16    4 1
    16   17   16 1
    17   18   16 1
    18   19   16 1
    19   20    4 1
    20   21   20 1
    21   22   20 1
    22   23   20 1
    23   24    7 1
    24   25   24 1
    25   26   24 1
    26   27   24 1
    27   28   27 1
    28   29   27 1
    29   30   27 1
    30   31   30 1
    31   32   30 1
    32   33   30 1
    33   34   33 1
    34   35   33 1
    35   36   33 1
    36    6    8 2
@<TRIPOS>SUBSTRUCTURE
     1 RES1 1

@<TRIPOS>CRYSIN
   9.8331   11.3638   11.8070  90.0000  93.1120  90.0000  14 1

