# MOL2 file generated by ConQuest
# Please check atom types

@<TRIPOS>MOLECULE
HECMAD
    35    35     1
SMALL
NO_CHARGES
****
Generated from CSD

@<TRIPOS>ATOM
      1 N1        -2.4220    2.7770   10.0210 N.am      1 RES1    0.0000
      2 N2         1.3137    6.4732    6.2614 N.pl3     1 RES1    0.0000
      3 O1        -0.8848    3.5559   11.4758 O.2       1 RES1    0.0000
      4 O2         0.7757    6.5940    5.1716 O.2       1 RES1    0.0000
      5 O3         2.3804    6.9675    6.5287 O.2       1 RES1    0.0000
      6 O4        -7.8424   -2.4188    9.7554 O.co2     1 RES1    0.0000
      7 O5        -8.2090   -3.4296   11.6540 O.co2     1 RES1    0.0000
      8 C1        -1.2584    4.3766    7.9407 C.ar      1 RES1    0.0000
      9 C2        -0.6002    5.0986    6.9588 C.ar      1 RES1    0.0000
     10 C3         0.6166    5.6942    7.2981 C.ar      1 RES1    0.0000
     11 C4         1.1825    5.5998    8.5370 C.ar      1 RES1    0.0000
     12 C5         0.5100    4.8889    9.5086 C.ar      1 RES1    0.0000
     13 C6        -0.7077    4.2460    9.2207 C.ar      1 RES1    0.0000
     14 C7        -1.3717    3.5087   10.3225 C.2       1 RES1    0.0000
     15 C8        -3.1409    1.9911   11.0251 C.3       1 RES1    0.0000
     16 C9        -4.0403    0.9803   10.3740 C.3       1 RES1    0.0000
     17 C10       -4.7589    0.0972   11.3336 C.3       1 RES1    0.0000
     18 C11       -5.7567   -0.8387   10.6378 C.3       1 RES1    0.0000
     19 C12       -6.4638   -1.8134   11.5923 C.3       1 RES1    0.0000
     20 C13       -7.5619   -2.5465   10.9034 C.2       1 RES1    0.0000
     21 H1        -2.2059    3.9086    7.7162 H         1 RES1    0.0000
     22 H2        -2.7661    2.7548    8.9962 H         1 RES1    0.0000
     23 H3         2.1307    6.0705    8.7512 H         1 RES1    0.0000
     24 H4        -6.5071   -0.2333   10.1495 H         1 RES1    0.0000
     25 H5        -5.2228   -1.4149    9.8959 H         1 RES1    0.0000
     26 H6        -1.0142    5.1985    5.9667 H         1 RES1    0.0000
     27 H7         0.9246    4.8236   10.5042 H         1 RES1    0.0000
     28 H8        -2.4254    1.4746   11.6488 H         1 RES1    0.0000
     29 H9        -3.7369    2.6548   11.6334 H         1 RES1    0.0000
     30 H10       -6.8782   -1.2552   12.4200 H         1 RES1    0.0000
     31 H11       -5.7432   -2.5257   11.9641 H         1 RES1    0.0000
     32 H12       -4.0330   -0.5026   11.8613 H         1 RES1    0.0000
     33 H13       -5.2967    0.7151   12.0378 H         1 RES1    0.0000
     34 H14       -3.4406    0.3610    9.7245 H         1 RES1    0.0000
     35 H15       -4.7751    1.5121    9.7862 H         1 RES1    0.0000
@<TRIPOS>BOND
     1    1   14 1
     2    2    4 2
     3    3   14 2
     4    5    2 2
     5    6   20 1
     6    7   20 2
     7    8    9 ar
     8    9   10 ar
     9   10    2 1
    10   11   10 ar
    11   12   11 ar
    12   13    8 ar
    13   14   13 1
    14   15    1 1
    15   16   15 1
    16   17   16 1
    17   18   17 1
    18   19   18 1
    19   20   19 1
    20   21    8 1
    21   22    1 1
    22   23   11 1
    23   24   18 1
    24   25   18 1
    25   26    9 1
    26   27   12 1
    27   28   15 1
    28   29   15 1
    29   30   19 1
    30   31   19 1
    31   32   17 1
    32   33   17 1
    33   34   16 1
    34   35   16 1
    35   12   13 ar
@<TRIPOS>SUBSTRUCTURE
     1 RES1 1

@<TRIPOS>CRYSIN
   5.7680   13.8850   17.1360  90.0000  90.3400  90.0000 231 1

