# MOL2 file generated by ConQuest
# Please check atom types

@<TRIPOS>MOLECULE
HECVIU
    22    25     1
SMALL
NO_CHARGES
****
Generated from CSD

@<TRIPOS>ATOM
      1 N1         0.0918   10.0370    2.5316 N.3       1 RES1    0.0000
      2 C1         0.1855   11.3821    1.9687 C.3       1 RES1    0.0000
      3 N2         1.5174   11.7884    1.5275 N.3       1 RES1    0.0000
      4 C2         1.8602   11.2743    0.1947 C.3       1 RES1    0.0000
      5 C3         2.2834    9.7908    0.1065 C.3       1 RES1    0.0000
      6 N3         1.8905    8.9351    1.2045 N.3       1 RES1    0.0000
      7 C4         2.7631    9.0059    2.3660 C.3       1 RES1    0.0000
      8 C5         2.3915   10.1971    3.2672 C.3       1 RES1    0.0000
      9 C6         0.9384    9.9632    3.7091 C.3       1 RES1    0.0000
     10 C7         2.5211   11.5606    2.5782 C.3       1 RES1    0.0000
     11 C8         0.4837    8.9782    1.5873 C.3       1 RES1    0.0000
     12 C9         2.9083   12.2070   -0.4069 C.2       1 RES1    0.0000
     13 C10        2.5079   13.5120   -1.0040 C.ar      1 RES1    0.0000
     14 C11        1.2130   13.9737   -1.0215 C.ar      1 RES1    0.0000
     15 C12        0.9095   15.2017   -1.5764 C.ar      1 RES1    0.0000
     16 C13        1.8987   15.9774   -2.1378 C.ar      1 RES1    0.0000
     17 C14        3.1949   15.5249   -2.1283 C.ar      1 RES1    0.0000
     18 C15        3.5001   14.3061   -1.5691 C.ar      1 RES1    0.0000
     19 O1         4.0879   11.8961   -0.3791 O.2       1 RES1    0.0000
     20 N4         3.3012   10.1632    4.4616 N.pl3     1 RES1    0.0000
     21 O2         4.0747   11.0928    4.6468 O.2       1 RES1    0.0000
     22 O3         3.2456    9.1998    5.1958 O.2       1 RES1    0.0000
@<TRIPOS>BOND
     1    1    2 1
     2    2    3 1
     3    3    4 1
     4    4    5 1
     5    5    6 1
     6    6    7 1
     7    7    8 1
     8    8    9 1
     9    9    1 1
    10   10    3 1
    11   11    1 1
    12   12    4 1
    13   13   12 1
    14   14   13 ar
    15   15   14 ar
    16   16   15 ar
    17   17   16 ar
    18   18   13 ar
    19   19   12 2
    20   20    8 1
    21   21   20 2
    22   22   20 2
    23    6   11 1
    24    8   10 1
    25   17   18 ar
@<TRIPOS>SUBSTRUCTURE
     1 RES1 1

@<TRIPOS>CRYSIN
   6.2920   30.7790    7.6670  90.0000 108.0100  90.0000  14 1

