# MOL2 file generated by ConQuest
# Please check atom types

@<TRIPOS>MOLECULE
HEDCOL
    42    43     1
SMALL
NO_CHARGES
****
Generated from CSD

@<TRIPOS>ATOM
      1 C1         1.5243   15.5006    2.2937 C.2       1 RES1    0.0000
      2 C2         0.7454   16.7946    2.2177 C.3       1 RES1    0.0000
      3 C3         2.9375   17.1904    1.4765 C.3       1 RES1    0.0000
      4 H1         2.9364   17.1974    0.4961 H         1 RES1    0.0000
      5 C4        -0.1951   16.7362    1.0218 C.3       1 RES1    0.0000
      6 H2        -0.6521   17.5749    0.9322 H         1 RES1    0.0000
      7 H3        -0.8369   16.0348    1.1528 H         1 RES1    0.0000
      8 H4         0.3108   16.5609    0.2248 H         1 RES1    0.0000
      9 C5         0.0346   17.1189    3.5133 C.3       1 RES1    0.0000
     10 H5         0.6776   17.1753    4.2240 H         1 RES1    0.0000
     11 H6        -0.6017   16.4284    3.7110 H         1 RES1    0.0000
     12 H7        -0.4220   17.9584    3.4262 H         1 RES1    0.0000
     13 C6         4.5529   14.5183    2.6783 C.3       1 RES1    0.0000
     14 H8         4.0154   14.1495    3.3966 H         1 RES1    0.0000
     15 H9         5.0249   15.2960    3.0138 H         1 RES1    0.0000
     16 C7         5.5232   13.4977    2.1763 C.ar      1 RES1    0.0000
     17 C8         5.1250   12.2444    1.8221 C.ar      1 RES1    0.0000
     18 H10        4.2232   12.0191    1.8576 H         1 RES1    0.0000
     19 C9         6.0552   11.3019    1.4080 C.ar      1 RES1    0.0000
     20 H11        5.7843   10.4469    1.1655 H         1 RES1    0.0000
     21 C10        7.3661   11.6477    1.3641 C.ar      1 RES1    0.0000
     22 H12        7.9959   11.0212    1.0911 H         1 RES1    0.0000
     23 C11        7.7653   12.8684    1.7055 C.ar      1 RES1    0.0000
     24 H13        8.6673   13.0913    1.6734 H         1 RES1    0.0000
     25 C12        6.8469   13.7959    2.1027 C.ar      1 RES1    0.0000
     26 H14        7.1334   14.6514    2.3292 H         1 RES1    0.0000
     27 C13        4.1357   17.8809    2.0005 C.2       1 RES1    0.0000
     28 H15        4.2392   17.9162    2.9242 H         1 RES1    0.0000
     29 C14        5.0677   18.4505    1.2677 C.2       1 RES1    0.0000
     30 H16        4.9750   18.3841    0.3448 H         1 RES1    0.0000
     31 C15        6.2213   19.1689    1.7571 C.2       1 RES1    0.0000
     32 H17        6.3412   19.1952    2.6783 H         1 RES1    0.0000
     33 C16        7.1124   19.7843    1.0252 C.2       1 RES1    0.0000
     34 H18        7.0087   19.7293    0.1023 H         1 RES1    0.0000
     35 C17        8.2767   20.5664    1.5238 C.3       1 RES1    0.0000
     36 H19        8.3077   20.5184    2.4822 H         1 RES1    0.0000
     37 H20        8.1871   21.4822    1.2525 H         1 RES1    0.0000
     38 H21        9.0865   20.2032    1.1587 H         1 RES1    0.0000
     39 N1         2.7836   15.8317    1.9819 N.am      1 RES1    0.0000
     40 O1         1.1036   14.3936    2.5735 O.2       1 RES1    0.0000
     41 O2         1.7551   17.8010    1.9853 O.3       1 RES1    0.0000
     42 O3         3.7092   14.8855    1.5534 O.3       1 RES1    0.0000
@<TRIPOS>BOND
     1    1    2 1
     2    2    5 1
     3    3    4 1
     4    5    6 1
     5    7    5 1
     6    8    5 1
     7    9    2 1
     8   10    9 1
     9   11    9 1
    10   12    9 1
    11   13   14 1
    12   15   13 1
    13   16   13 1
    14   17   16 ar
    15   18   17 1
    16   19   17 ar
    17   20   19 1
    18   21   19 ar
    19   22   21 1
    20   23   21 ar
    21   24   23 1
    22   25   16 ar
    23   26   25 1
    24   27    3 1
    25   28   27 1
    26   29   27 2
    27   30   29 1
    28   31   29 1
    29   32   31 1
    30   33   31 2
    31   34   33 1
    32   35   33 1
    33   36   35 1
    34   37   35 1
    35   38   35 1
    36   39    1 1
    37   40    1 2
    38   41    2 1
    39   42   13 1
    40    3   39 1
    41    3   41 1
    42   23   25 ar
    43   39   42 1
@<TRIPOS>SUBSTRUCTURE
     1 RES1 1

@<TRIPOS>CRYSIN
   9.9297   20.0787    8.6718  90.0000 102.9430  90.0000  14 1

