# MOL2 file generated by ConQuest
# Please check atom types

@<TRIPOS>MOLECULE
HEDFUU
    39    41     1
SMALL
NO_CHARGES
****
Generated from CSD

@<TRIPOS>ATOM
      1 N1        -0.7818    1.7378    1.8289 N.2       1 RES1    0.0000
      2 O1        -2.4001    1.1856   -0.8729 O.2       1 RES1    0.0000
      3 C1        -3.1517    2.3161    2.3599 C.ar      1 RES1    0.0000
      4 O2        -2.3660    3.2533   -0.0758 O.3       1 RES1    0.0000
      5 N2        -1.0446   -0.4769    1.4499 N.3       1 RES1    0.0000
      6 N3        -5.9106    4.4254    4.6870 N.pl3     1 RES1    0.0000
      7 O3        -5.4936    5.0737    5.6274 O.2       1 RES1    0.0000
      8 C2        -2.3466    1.9393    0.0437 C.2       1 RES1    0.0000
      9 O4        -7.0757    4.3751    4.3714 O.2       1 RES1    0.0000
     10 C3        -5.4187    2.8918    2.8673 C.ar      1 RES1    0.0000
     11 H1        -6.3299    2.8251    2.6926 H         1 RES1    0.0000
     12 C4        -4.9486    3.6800    3.8875 C.ar      1 RES1    0.0000
     13 C5        -2.4076    0.0068    1.6384 C.3       1 RES1    0.0000
     14 H2        -3.0101   -0.3383    0.9464 H         1 RES1    0.0000
     15 C6        -3.6185    3.7970    4.1682 C.ar      1 RES1    0.0000
     16 H3        -3.3295    4.3321    4.8722 H         1 RES1    0.0000
     17 C7        -2.2058    1.5223    1.5043 C.3       1 RES1    0.0000
     18 C8        -4.5041    2.2091    2.1159 C.ar      1 RES1    0.0000
     19 H4        -4.8005    1.6610    1.4255 H         1 RES1    0.0000
     20 C9        -2.7125    3.1113    3.3946 C.ar      1 RES1    0.0000
     21 H5        -1.8023    3.1845    3.5702 H         1 RES1    0.0000
     22 C10       -2.7841   -0.5144    3.0131 C.3       1 RES1    0.0000
     23 H6        -2.5616    0.1337    3.6997 H         1 RES1    0.0000
     24 H7        -3.7339   -0.7066    3.0602 H         1 RES1    0.0000
     25 C11       -0.2553    0.5793    1.7599 C.2       1 RES1    0.0000
     26 H8         0.6530    0.4611    1.9196 H         1 RES1    0.0000
     27 C12       -0.8880   -1.7753    2.1044 C.3       1 RES1    0.0000
     28 H9        -0.0017   -1.8401    2.5173 H         1 RES1    0.0000
     29 C13       -2.4753    3.7735   -1.4081 C.3       1 RES1    0.0000
     30 H10       -1.8254    3.3479   -1.9724 H         1 RES1    0.0000
     31 H11       -2.3181    4.7205   -1.3956 H         1 RES1    0.0000
     32 H12       -3.3564    3.6002   -1.7483 H         1 RES1    0.0000
     33 C14       -1.0797   -2.8892    1.1204 C.3       1 RES1    0.0000
     34 H13       -1.9635   -2.8398    0.7491 H         1 RES1    0.0000
     35 H14       -0.9665   -3.7324    1.5650 H         1 RES1    0.0000
     36 H15       -0.4319   -2.8094    0.4164 H         1 RES1    0.0000
     37 C15       -1.9727   -1.7760    3.1838 C.3       1 RES1    0.0000
     38 H16       -2.5408   -2.5559    3.0871 H         1 RES1    0.0000
     39 H17       -1.5677   -1.7979    4.0653 H         1 RES1    0.0000
@<TRIPOS>BOND
     1    1   17 1
     2    2    8 2
     3    3   17 1
     4    4    8 1
     5    5   13 1
     6    6    7 2
     7    8   17 1
     8    9    6 2
     9   10   11 1
    10   12    6 1
    11   13   14 1
    12   15   12 ar
    13   16   15 1
    14   17   13 1
    15   18    3 ar
    16   19   18 1
    17   20    3 ar
    18   21   20 1
    19   22   13 1
    20   23   22 1
    21   24   22 1
    22   25    1 2
    23   26   25 1
    24   27    5 1
    25   28   27 1
    26   29    4 1
    27   30   29 1
    28   31   29 1
    29   32   29 1
    30   33   27 1
    31   34   33 1
    32   35   33 1
    33   36   33 1
    34   37   22 1
    35   38   37 1
    36   39   37 1
    37    5   25 1
    38   10   12 ar
    39   10   18 ar
    40   15   20 ar
    41   27   37 1
@<TRIPOS>SUBSTRUCTURE
     1 RES1 1

@<TRIPOS>CRYSIN
   7.7150    9.5430   10.8840 109.6640  96.7000 106.5260   2 1

