# MOL2 file generated by ConQuest
# Please check atom types

@<TRIPOS>MOLECULE
HEDHEG
    36    34     2
SMALL
NO_CHARGES
****
Generated from CSD

@<TRIPOS>ATOM
      1 N1         2.1832    5.7713    7.4792 N.pl3     1 RES1    0.0000
      2 O1         2.8092    5.0901    4.2156 O.2       1 RES1    0.0000
      3 O2         1.7974    5.6345    6.1373 O.3       1 RES1    0.0000
      4 C1         2.9251    5.2276    5.4073 C.2       1 RES1    0.0000
      5 C2         5.3179    4.6811    6.2301 C.ar      1 RES1    0.0000
      6 C3         6.0162    4.6678    7.4171 C.ar      1 RES1    0.0000
      7 H1         6.9098    4.4115    7.4076 H         1 RES1    0.0000
      8 C4         5.4384    5.0210    8.6228 C.ar      1 RES1    0.0000
      9 N2         4.1503    5.4007    8.7454 N.ar      1 RES1    0.0000
     10 C5         3.4961    5.4000    7.5938 C.ar      1 RES1    0.0000
     11 C6         3.9882    5.0775    6.3449 C.ar      1 RES1    0.0000
     12 C7         5.9170    4.3119    4.9197 C.3       1 RES1    0.0000
     13 H2         5.4130    3.5956    4.5274 H         1 RES1    0.0000
     14 H3         6.8255    4.0288    5.0515 H         1 RES1    0.0000
     15 H4         5.9015    5.0727    4.3345 H         1 RES1    0.0000
     16 C8         6.2441    5.0294    9.8777 C.3       1 RES1    0.0000
     17 H5         6.0362    5.8163   10.3866 H         1 RES1    0.0000
     18 H6         7.1787    5.0283    9.6577 H         1 RES1    0.0000
     19 H7         6.0368    4.2487   10.3964 H         1 RES1    0.0000
     20 C9         1.2168    5.9604    8.4268 C.2       1 RES1    0.0000
     21 H8         1.5025    5.9785    9.3116 H         1 RES1    0.0000
     22 C10       -0.0814    6.1195    8.2228 C.2       1 RES1    0.0000
     23 H9        -0.6007    6.2503    8.9837 H         1 RES1    0.0000
     24 C11       -0.8033    6.1160    6.9421 C.2       1 RES1    0.0000
     25 O3        -1.1089    4.8940    6.5689 O.3       1 RES1    0.0000
     26 O4        -1.1101    7.0862    6.3363 O.2       1 RES1    0.0000
     27 C12       -1.8529    4.7425    5.3298 C.3       1 RES1    0.0000
     28 H10       -2.6134    5.3447    5.3289 H         1 RES1    0.0000
     29 H11       -1.2848    4.9720    4.5772 H         1 RES1    0.0000
     30 C13       -2.3006    3.4066    5.1981 C.3       1 RES1    0.0000
     31 H12       -2.6155    3.2608    4.3034 H         1 RES1    0.0000
     32 H13       -3.0167    3.2474    5.8188 H         1 RES1    0.0000
     33 H14       -1.5763    2.8060    5.3854 H         1 RES1    0.0000
     34 H15        6.7982    4.2459    9.9072 Du        2 SUP2    0.0000
     35 H16        5.6557    5.0339   10.6361 Du        2 SUP2    0.0000
     36 H17        6.7977    5.8135    9.8974 Du        2 SUP2    0.0000
@<TRIPOS>BOND
     1    1    3 1
     2    2    4 2
     3    3    4 1
     4    4   11 1
     5    5    6 ar
     6    6    7 1
     7    8    6 ar
     8    9    8 ar
     9   10    1 1
    10   11    5 ar
    11   12    5 1
    12   13   12 1
    13   14   12 1
    14   15   12 1
    15   16    8 1
    16   17   16 1
    17   18   16 1
    18   19   16 1
    19   20    1 1
    20   21   20 1
    21   22   20 2
    22   23   22 1
    23   24   22 1
    24   25   24 1
    25   26   24 2
    26   27   25 1
    27   28   27 1
    28   29   27 1
    29   30   27 1
    30   31   30 1
    31   32   30 1
    32   33   30 1
    33    9   10 ar
    34   10   11 ar
@<TRIPOS>SUBSTRUCTURE
     1 RES1 1
     2 SUP2 34

@<TRIPOS>CRYSIN
  12.5735    6.9794   15.5620  90.0000 107.9430  90.0000  14 1

