# MOL2 file generated by ConQuest
# Please check atom types

@<TRIPOS>MOLECULE
HEFXAT
    29    28     2
SMALL
NO_CHARGES
****
Generated from CSD

@<TRIPOS>ATOM
      1 O1         1.4032    5.5106   13.0902 O.3       1 RES1    0.0000
      2 N1         1.4435    3.3306   15.9406 N.ar      1 RES1    0.0000
      3 N2         1.3617    2.8618   13.6245 N.pl3     1 RES1    0.0000
      4 O2         2.3032    2.7780   12.8768 O.2       1 RES1    0.0000
      5 O3         0.3333    2.2112   13.5451 O.2       1 RES1    0.0000
      6 C1         1.2441    5.7749   10.3994 C.ar      1 RES1    0.0000
      7 H1         1.2739    4.9410   10.8086 H         1 RES1    0.0000
      8 C2         1.1573    5.8531    9.0206 C.ar      1 RES1    0.0000
      9 H2         1.1337    5.0739    8.5147 H         1 RES1    0.0000
     10 C3         1.1052    7.0740    8.3932 C.ar      1 RES1    0.0000
     11 H3         1.0395    7.1248    7.4669 H         1 RES1    0.0000
     12 C4         1.1506    8.2141    9.1508 C.ar      1 RES1    0.0000
     13 H4         1.1203    9.0454    8.7354 H         1 RES1    0.0000
     14 C5         1.2419    8.1392   10.5246 C.ar      1 RES1    0.0000
     15 H5         1.2727    8.9229   11.0256 H         1 RES1    0.0000
     16 C6         1.2882    6.9131   11.1731 C.ar      1 RES1    0.0000
     17 C7         1.3677    6.8817   12.6826 C.3       1 RES1    0.0000
     18 H6         2.1671    7.3411   12.9847 H         1 RES1    0.0000
     19 H7         0.5953    7.3255   13.0677 H         1 RES1    0.0000
     20 C8         1.4615    5.2070   14.4118 C.ar      1 RES1    0.0000
     21 C9         1.5319    6.0864   15.4695 C.ar      1 RES1    0.0000
     22 H8         1.5461    7.0049   15.3257 H         1 RES1    0.0000
     23 C10        1.5809    5.5651   16.7504 C.ar      1 RES1    0.0000
     24 H9         1.6500    6.1358   17.4807 H         1 RES1    0.0000
     25 C11        1.5286    4.2100   16.9438 C.ar      1 RES1    0.0000
     26 H10        1.5536    3.8868   17.8155 H         1 RES1    0.0000
     27 C12        1.4295    3.8573   14.7360 C.ar      1 RES1    0.0000
     28 O4         2.3988    2.2829   13.3566 Du        2 SUP2    0.0000
     29 O5         0.3579    2.6568   13.0454 Du        2 SUP2    0.0000
@<TRIPOS>BOND
     1    1   17 1
     2    2   25 ar
     3    3    4 2
     4    5    3 2
     5    6    7 1
     6    8    6 ar
     7    9    8 1
     8   10    8 ar
     9   11   10 1
    10   12   10 ar
    11   13   12 1
    12   14   12 ar
    13   15   14 1
    14   16    6 ar
    15   17   16 1
    16   18   17 1
    17   19   17 1
    18   20    1 1
    19   21   20 ar
    20   22   21 1
    21   23   21 ar
    22   24   23 1
    23   25   23 ar
    24   26   25 1
    25   27    2 ar
    26    3   27 1
    27   14   16 ar
    28   20   27 ar
@<TRIPOS>SUBSTRUCTURE
     1 RES1 1
     2 SUP2 28

@<TRIPOS>CRYSIN
   7.1120   13.0300   12.4070  90.0000  92.0040  90.0000 231 1

