# MOL2 file generated by ConQuest
# Please check atom types

@<TRIPOS>MOLECULE
HEGBON
    29    31     1
SMALL
NO_CHARGES
****
Generated from CSD

@<TRIPOS>ATOM
      1 O1         2.2061    5.2266   13.1661 O.3       1 RES1    0.0000
      2 O2         2.2370   -0.6567   13.4790 O.3       1 RES1    0.0000
      3 O3         3.2758    4.0703   11.5341 O.2       1 RES1    0.0000
      4 N1         1.4611    3.5504   14.4873 N.2       1 RES1    0.0000
      5 O4        -1.2208    8.4637   18.6636 O.2       1 RES1    0.0000
      6 N2        -0.6344    8.8070   17.6659 N.pl3     1 RES1    0.0000
      7 O5        -0.5186    9.9666   17.3397 O.2       1 RES1    0.0000
      8 C1         1.9095    0.5887   13.9574 C.2       1 RES1    0.0000
      9 C2         1.5348    4.8128   14.3028 C.2       1 RES1    0.0000
     10 C3         2.1311    2.9816   13.4009 C.2       1 RES1    0.0000
     11 C4         0.9846    5.8547   15.1537 C.ar      1 RES1    0.0000
     12 C5         2.3223    1.6777   13.1557 C.2       1 RES1    0.0000
     13 C6         0.4157    5.4963   16.3782 C.ar      1 RES1    0.0000
     14 C7         2.6275    4.0495   12.5433 C.2       1 RES1    0.0000
     15 C8        -0.0600    7.7728   16.7984 C.ar      1 RES1    0.0000
     16 C9         0.4826    8.1522   15.5949 C.ar      1 RES1    0.0000
     17 C10        1.0101    7.1841   14.7696 C.ar      1 RES1    0.0000
     18 C11       -0.1091    6.4585   17.2042 C.ar      1 RES1    0.0000
     19 C12        1.2673    0.4486   15.1428 C.2       1 RES1    0.0000
     20 C13        1.2014   -0.9278   15.4109 C.2       1 RES1    0.0000
     21 C14        1.7926   -1.5481   14.3930 C.2       1 RES1    0.0000
     22 H1         0.3738    4.5837   16.6333 H         1 RES1    0.0000
     23 H2         2.8263    1.4333   12.3635 H         1 RES1    0.0000
     24 H3         1.4255    7.4214   13.9065 H         1 RES1    0.0000
     25 H4         0.4624    9.0583   15.3555 H         1 RES1    0.0000
     26 H5        -0.5209    6.2561   18.0943 H         1 RES1    0.0000
     27 H6         0.9511    1.1600   15.6327 H         1 RES1    0.0000
     28 H7         0.8135   -1.3610   16.1800 H         1 RES1    0.0000
     29 H8         1.9878   -2.4475   14.1693 H         1 RES1    0.0000
@<TRIPOS>BOND
     1    1    9 1
     2    2    8 1
     3    3   14 2
     4    4    9 2
     5    5    6 2
     6    6    7 2
     7    8   12 1
     8    9   11 1
     9   10    4 1
    10   11   13 ar
    11   12   10 2
    12   13   18 ar
    13   14    1 1
    14   15    6 1
    15   16   15 ar
    16   17   11 ar
    17   18   15 ar
    18   19    8 2
    19   20   19 1
    20   21    2 1
    21   22   13 1
    22   23   12 1
    23   24   17 1
    24   25   16 1
    25   26   18 1
    26   27   19 1
    27   28   20 1
    28   29   21 1
    29   10   14 1
    30   16   17 ar
    31   20   21 2
@<TRIPOS>SUBSTRUCTURE
     1 RES1 1

@<TRIPOS>CRYSIN
   3.8334   13.1375   24.1378  90.0000  92.7640  90.0000  14 1

