# MOL2 file generated by ConQuest
# Please check atom types

@<TRIPOS>MOLECULE
HEGFOP
    44    44     1
SMALL
NO_CHARGES
****
Generated from CSD

@<TRIPOS>ATOM
      1 C1         6.9207   10.2166    5.4545 C.2       1 RES1    0.0000
      2 C2         7.6106    9.4369    4.4299 C.2       1 RES1    0.0000
      3 C3         7.3519    8.0226    4.7718 C.2       1 RES1    0.0000
      4 C4         6.8531   11.6796    5.6165 C.3       1 RES1    0.0000
      5 H1         6.3380   11.8916    6.3989 H         1 RES1    0.0000
      6 H2         6.4367   12.0690    4.8438 H         1 RES1    0.0000
      7 H3         7.7399   12.0327    5.7144 H         1 RES1    0.0000
      8 C5         6.1824    7.0127    6.7508 C.3       1 RES1    0.0000
      9 H4         6.5524    7.1579    7.6354 H         1 RES1    0.0000
     10 H5         6.5479    6.1801    6.4107 H         1 RES1    0.0000
     11 C6         4.6981    6.8782    6.8638 C.3       1 RES1    0.0000
     12 H6         4.3308    7.7314    7.1436 H         1 RES1    0.0000
     13 H7         4.4998    6.2330    7.5601 H         1 RES1    0.0000
     14 C7         4.0144    6.4574    5.6230 C.3       1 RES1    0.0000
     15 H8         4.3234    5.5696    5.3830 H         1 RES1    0.0000
     16 H9         4.2698    7.0606    4.9073 H         1 RES1    0.0000
     17 C8         2.4891    6.4335    5.7241 C.3       1 RES1    0.0000
     18 H10        2.2436    5.8493    6.4581 H         1 RES1    0.0000
     19 H11        2.1866    7.3271    5.9512 H         1 RES1    0.0000
     20 C9         1.7655    5.9978    4.5307 C.3       1 RES1    0.0000
     21 H12        1.9876    5.0671    4.3714 H         1 RES1    0.0000
     22 H13        2.1018    6.5061    3.7763 H         1 RES1    0.0000
     23 C10        0.2837    6.1191    4.5403 C.3       1 RES1    0.0000
     24 H14       -0.0460    5.5687    5.2678 H         1 RES1    0.0000
     25 H15        0.0729    7.0391    4.7663 H         1 RES1    0.0000
     26 C11       -0.4777    5.7824    3.3759 C.3       1 RES1    0.0000
     27 H16       -0.2894    4.8542    3.1715 H         1 RES1    0.0000
     28 H17       -0.1236    6.3089    2.6420 H         1 RES1    0.0000
     29 C12       -1.9169    5.9376    3.3512 C.3       1 RES1    0.0000
     30 H18       -2.2796    5.3649    4.0442 H         1 RES1    0.0000
     31 H19       -2.1128    6.8518    3.6084 H         1 RES1    0.0000
     32 C13       -2.6449    5.6669    2.1491 C.3       1 RES1    0.0000
     33 H20       -2.2589    6.2363    1.4647 H         1 RES1    0.0000
     34 H21       -2.4275    4.7552    1.9005 H         1 RES1    0.0000
     35 C14       -3.9774    5.7808    2.0210 C.3       1 RES1    0.0000
     36 H22       -4.2692    5.2824    1.2548 H         1 RES1    0.0000
     37 H23       -4.2098    6.7058    1.9102 H         1 RES1    0.0000
     38 H24       -4.4037    5.4359    2.8088 H         1 RES1    0.0000
     39 N1         6.3412    9.4171    6.2867 N.2       1 RES1    0.0000
     40 N2         6.6017    8.1000    5.8800 N.am      1 RES1    0.0000
     41 N3         8.3677    9.7150    3.4152 N.2       1 RES1    0.0000
     42 O1         7.7363    7.0074    4.2190 O.2       1 RES1    0.0000
     43 O2         8.5506   11.0460    3.2857 O.3       1 RES1    0.0000
     44 H25        9.0787   11.0797    2.6043 H         1 RES1    0.0000
@<TRIPOS>BOND
     1    1    2 1
     2    2    3 1
     3    3   40 1
     4    4    1 1
     5    5    4 1
     6    6    4 1
     7    7    4 1
     8    8    9 1
     9   10    8 1
    10   11    8 1
    11   12   11 1
    12   13   11 1
    13   14   11 1
    14   15   14 1
    15   16   14 1
    16   17   14 1
    17   18   17 1
    18   19   17 1
    19   20   17 1
    20   21   20 1
    21   22   20 1
    22   23   20 1
    23   24   23 1
    24   25   23 1
    25   26   23 1
    26   27   26 1
    27   28   26 1
    28   29   26 1
    29   30   29 1
    30   31   29 1
    31   32   29 1
    32   33   32 1
    33   34   32 1
    34   35   32 1
    35   36   35 1
    36   37   35 1
    37   38   35 1
    38   39    1 2
    39   40    8 1
    40   41    2 2
    41   42    3 2
    42   43   41 1
    43   44   43 1
    44   39   40 1
@<TRIPOS>SUBSTRUCTURE
     1 RES1 1

@<TRIPOS>CRYSIN
  17.9480    8.2512   10.7620  90.0000  90.4610  90.0000  14 1

