# MOL2 file generated by ConQuest
# Please check atom types

@<TRIPOS>MOLECULE
HEGLAH
    57    60     1
SMALL
NO_CHARGES
****
Generated from CSD

@<TRIPOS>ATOM
      1 O1         0.0906    0.3177   16.4261 O.2       1 RES1    0.0000
      2 O2        -0.7957    2.3843   18.3571 O.3       1 RES1    0.0000
      3 O3         0.4495    3.1236   14.1288 O.3       1 RES1    0.0000
      4 O4        -0.2890    7.5487   12.5902 O.3       1 RES1    0.0000
      5 O5        -1.1701    6.2790   17.1662 O.3       1 RES1    0.0000
      6 N1        -1.2399    3.3018   17.3639 N.2       1 RES1    0.0000
      7 C1         1.2778   -0.3267   18.4698 C.3       1 RES1    0.0000
      8 C2         0.5988    0.6014   17.4766 C.2       1 RES1    0.0000
      9 C3         0.6033    2.0261   18.0989 C.3       1 RES1    0.0000
     10 C4         1.3402    1.7463   19.4242 C.3       1 RES1    0.0000
     11 C5         0.3707    0.9811   20.3364 C.3       1 RES1    0.0000
     12 C6         0.2704   -0.4026   19.6574 C.3       1 RES1    0.0000
     13 C7         2.3625    0.6344   19.0302 C.3       1 RES1    0.0000
     14 C8         3.1262    0.0759   20.2478 C.3       1 RES1    0.0000
     15 C9         3.4063    1.0180   17.9816 C.3       1 RES1    0.0000
     16 C10        1.7080   -1.6614   17.8905 C.3       1 RES1    0.0000
     17 C11        1.0876    3.1320   17.1373 C.3       1 RES1    0.0000
     18 C12       -0.2348    3.6974   16.6936 C.2       1 RES1    0.0000
     19 C13        1.9494    4.2429   17.7580 C.3       1 RES1    0.0000
     20 C14       -0.3529    4.7145   15.6244 C.ar      1 RES1    0.0000
     21 C15        0.0431    4.4098   14.3072 C.ar      1 RES1    0.0000
     22 C16        0.0074    5.3608   13.3061 C.ar      1 RES1    0.0000
     23 C17       -0.3633    6.6626   13.6219 C.ar      1 RES1    0.0000
     24 C18       -0.7585    7.0083   14.9028 C.ar      1 RES1    0.0000
     25 C19       -0.7786    6.0192   15.8815 C.ar      1 RES1    0.0000
     26 C20       -1.9888    7.4069   17.3994 C.3       1 RES1    0.0000
     27 C21       -0.3105    8.9484   12.9109 C.3       1 RES1    0.0000
     28 C22        0.8328    2.7104   12.8174 C.3       1 RES1    0.0000
     29 H1         0.2528    5.1041   12.3252 H         1 RES1    0.0000
     30 H2        -1.0342    7.9850   15.1289 H         1 RES1    0.0000
     31 H3         1.6193    2.6448   19.8717 H         1 RES1    0.0000
     32 H4        -0.5588    1.4491   20.3681 H         1 RES1    0.0000
     33 H5         0.7492    0.8967   21.2999 H         1 RES1    0.0000
     34 H6        -0.6964   -0.5743   19.3070 H         1 RES1    0.0000
     35 H7         0.5356   -1.1603   20.3184 H         1 RES1    0.0000
     36 H8         2.4510   -0.1484   21.0048 H         1 RES1    0.0000
     37 H9         3.8052    0.7863   20.5843 H         1 RES1    0.0000
     38 H10        3.6339   -0.7863   19.9666 H         1 RES1    0.0000
     39 H11        2.9276    1.4064   17.1420 H         1 RES1    0.0000
     40 H12        3.9518    0.1765   17.7097 H         1 RES1    0.0000
     41 H13        4.0485    1.7364   18.3743 H         1 RES1    0.0000
     42 H14        0.8671   -2.1949   17.5911 H         1 RES1    0.0000
     43 H15        2.2213   -2.2032   18.6159 H         1 RES1    0.0000
     44 H16        2.3282   -1.5010   17.0732 H         1 RES1    0.0000
     45 H17        1.6267    2.7391   16.3383 H         1 RES1    0.0000
     46 H18        1.4132    4.7171   18.5093 H         1 RES1    0.0000
     47 H19        2.2045    4.9327   17.0220 H         1 RES1    0.0000
     48 H20        2.8154    3.8262   18.1564 H         1 RES1    0.0000
     49 H21       -2.0741    7.5686   18.4267 H         1 RES1    0.0000
     50 H22       -2.9388    7.2333   17.0040 H         1 RES1    0.0000
     51 H23       -1.5731    8.2415   16.9500 H         1 RES1    0.0000
     52 H24       -0.1787    9.5083   12.0481 H         1 RES1    0.0000
     53 H25        0.4536    9.1599   13.5853 H         1 RES1    0.0000
     54 H26       -1.2275    9.1898   13.3454 H         1 RES1    0.0000
     55 H27        1.2101    1.7405   12.8602 H         1 RES1    0.0000
     56 H28        1.5596    3.3514   12.4512 H         1 RES1    0.0000
     57 H29        0.0007    2.7288   12.1929 H         1 RES1    0.0000
@<TRIPOS>BOND
     1    1    8 2
     2    2    6 1
     3    3   21 1
     4    4   23 1
     5    5   25 1
     6    6   18 2
     7    7    8 1
     8    8    9 1
     9    9    2 1
    10   10    9 1
    11   11   10 1
    12   12    7 1
    13   13    7 1
    14   14   13 1
    15   15   13 1
    16   16    7 1
    17   17    9 1
    18   18   17 1
    19   19   17 1
    20   20   18 1
    21   21   20 ar
    22   22   21 ar
    23   23   22 ar
    24   24   23 ar
    25   25   20 ar
    26   26    5 1
    27   27    4 1
    28   28    3 1
    29   29   22 1
    30   30   24 1
    31   31   10 1
    32   32   11 1
    33   33   11 1
    34   34   12 1
    35   35   12 1
    36   36   14 1
    37   37   14 1
    38   38   14 1
    39   39   15 1
    40   40   15 1
    41   41   15 1
    42   42   16 1
    43   43   16 1
    44   44   16 1
    45   45   17 1
    46   46   19 1
    47   47   19 1
    48   48   19 1
    49   49   26 1
    50   50   26 1
    51   51   26 1
    52   52   27 1
    53   53   27 1
    54   54   27 1
    55   55   28 1
    56   56   28 1
    57   57   28 1
    58   10   13 1
    59   11   12 1
    60   24   25 ar
@<TRIPOS>SUBSTRUCTURE
     1 RES1 1

@<TRIPOS>CRYSIN
   7.4292    9.9904   27.2705  90.0000  90.0000  90.0000  19 1

