# MOL2 file generated by ConQuest
# Please check atom types

@<TRIPOS>MOLECULE
HEGLEM
    15    15     1
SMALL
NO_CHARGES
****
Generated from CSD

@<TRIPOS>ATOM
      1 O1         6.8543    3.1630    2.9456 O.3       1 RES1    0.0000
      2 O2         6.4352    4.6057    1.2461 O.2       1 RES1    0.0000
      3 O3         5.7606    2.5294    1.1774 O.2       1 RES1    0.0000
      4 O4        12.3114    2.2347    3.4693 O.2       1 RES1    0.0000
      5 O5        13.1006    3.8569    2.2523 O.2       1 RES1    0.0000
      6 N1        10.6681    5.0355    2.1368 N.2       1 RES1    0.0000
      7 N2         9.3950    5.2831    2.3204 N.2       1 RES1    0.0000
      8 N3         8.9296    4.2740    3.0572 N.3       1 RES1    0.0000
      9 N4         9.8338    3.3595    3.3732 N.2       1 RES1    0.0000
     10 N5         6.2914    3.4867    1.6508 N.pl3     1 RES1    0.0000
     11 N6        12.1986    3.2808    2.8413 N.pl3     1 RES1    0.0000
     12 C1        10.8847    3.8796    2.7757 C.2       1 RES1    0.0000
     13 C2         7.5498    4.2360    3.5315 C.3       1 RES1    0.0000
     14 H1         7.5419    4.1373    4.5165 H         1 RES1    0.0000
     15 H2         7.0987    5.0867    3.3035 H         1 RES1    0.0000
@<TRIPOS>BOND
     1    1   10 1
     2    2   10 2
     3    3   10 2
     4    4   11 2
     5    5   11 2
     6    6    7 2
     7    7    8 1
     8    8    9 1
     9    9   12 2
    10   11   12 1
    11   12    6 1
    12   13    1 1
    13   14   13 1
    14   15   13 1
    15    8   13 1
@<TRIPOS>SUBSTRUCTURE
     1 RES1 1

@<TRIPOS>CRYSIN
  21.2090    5.2805    6.2460  90.0000  90.0000  90.0000  33 1

