# MOL2 file generated by ConQuest
# Please check atom types

@<TRIPOS>MOLECULE
HEGLAI
    53    39     2
SMALL
NO_CHARGES
****
Generated from CSD

@<TRIPOS>ATOM
      1 O1         6.5552    3.9704    8.3017 O.3       1 RES1    0.0000
      2 H1         6.9682    4.3935    7.7335 H         1 RES1    0.0000
      3 O2         6.4982    7.1979    7.7428 O.2       1 RES1    0.0000
      4 O3         6.9482    6.4922    5.0971 O.3       1 RES1    0.0000
      5 H2         7.4239    6.7387    4.4764 H         1 RES1    0.0000
      6 O4         9.2547    4.9487    4.9662 O.2       1 RES1    0.0000
      7 N1         7.7356    6.1194    6.1577 N.am      1 RES1    0.0000
      8 C1         9.2976    4.9633    7.4140 C.3       1 RES1    0.0000
      9 H3         9.0923    4.0188    7.6619 H         1 RES1    0.0000
     10 C2         8.5098    5.9127    8.3250 C.3       1 RES1    0.0000
     11 H4         9.1101    6.6455    8.5739 H         1 RES1    0.0000
     12 C3         7.9675    5.3234    9.5968 C.ar      1 RES1    0.0000
     13 C4         8.4342    5.7292   10.8414 C.ar      1 RES1    0.0000
     14 H5         9.1112    6.3650   10.8928 H         1 RES1    0.0000
     15 C5         7.9058    5.1982   12.0033 C.ar      1 RES1    0.0000
     16 H6         8.2337    5.4661   12.8307 H         1 RES1    0.0000
     17 C6         6.8900    4.2692   11.9287 C.ar      1 RES1    0.0000
     18 H7         6.5183    3.9285   12.7097 H         1 RES1    0.0000
     19 C7         6.9639    4.3585    9.5434 C.ar      1 RES1    0.0000
     20 C8         6.4251    3.8441   10.7114 C.ar      1 RES1    0.0000
     21 H8         5.7471    3.2092   10.6700 H         1 RES1    0.0000
     22 C9         7.4378    6.4902    7.4231 C.2       1 RES1    0.0000
     23 C10        8.8153    5.2836    6.0193 C.2       1 RES1    0.0000
     24 O5        11.2406    6.2136    8.0197 Du        2 SUP2    0.0000
     25 C11       11.8043    3.7771    7.2659 Du        2 SUP2    0.0000
     26 C12       10.7524    5.2613    7.4775 Du        2 SUP2    0.0000
     27 C13       11.3966    3.0626    8.5840 Du        2 SUP2    0.0000
     28 H9        10.4820    2.7792    8.5266 Du        2 SUP2    0.0000
     29 H10       11.4986    3.6693    9.3207 Du        2 SUP2    0.0000
     30 H11       11.9617    2.2977    8.7190 Du        2 SUP2    0.0000
     31 C14       13.1470    4.3051    7.2880 Du        2 SUP2    0.0000
     32 H12       13.2525    4.8788    8.0499 Du        2 SUP2    0.0000
     33 H13       13.3081    4.8060    6.4859 Du        2 SUP2    0.0000
     34 H14       13.7746    3.5800    7.3445 Du        2 SUP2    0.0000
     35 C15       11.3642    3.0238    6.0959 Du        2 SUP2    0.0000
     36 H15       10.4303    2.8151    6.1805 Du        2 SUP2    0.0000
     37 H16       11.8680    2.2094    6.0324 Du        2 SUP2    0.0000
     38 H17       11.5038    3.5490    5.3048 Du        2 SUP2    0.0000
     39 O6        11.2756    6.2262    7.5017 O.2       1 RES1    0.0000
     40 C16       12.6794    4.5255    6.1442 C.3       1 RES1    0.0000
     41 H18       12.1551    4.6439    5.3481 H         1 RES1    0.0000
     42 H19       13.3192    3.8246    6.0032 H         1 RES1    0.0000
     43 H20       13.1385    5.3428    6.3488 H         1 RES1    0.0000
     44 C17       11.1807    2.7316    6.9545 C.3       1 RES1    0.0000
     45 H21       10.5239    2.8296    6.2611 H         1 RES1    0.0000
     46 H22       10.7801    2.3103    7.7183 H         1 RES1    0.0000
     47 H23       11.9058    2.1909    6.6340 H         1 RES1    0.0000
     48 C18       12.7278    3.8693    8.5286 C.3       1 RES1    0.0000
     49 H24       13.2847    3.1199    8.3069 H         1 RES1    0.0000
     50 H25       12.2400    3.6781    9.3338 H         1 RES1    0.0000
     51 H26       13.2735    4.6468    8.6616 H         1 RES1    0.0000
     52 C19       11.7214    4.1333    7.3566 C.3       1 RES1    0.0000
     53 C20       10.9091    5.0380    7.5581 C.2       1 RES1    0.0000
@<TRIPOS>BOND
     1    1    2 1
     2    3   22 2
     3    4    5 1
     4    6   23 2
     5    7    4 1
     6    8    9 1
     7   10    8 1
     8   11   10 1
     9   12   10 1
    10   13   12 ar
    11   14   13 1
    12   15   13 ar
    13   16   15 1
    14   17   15 ar
    15   18   17 1
    16   19    1 1
    17   20   17 ar
    18   21   20 1
    19   22    7 1
    20   23    7 1
    21   39   53 2
    22   40   41 1
    23   42   40 1
    24   43   40 1
    25   44   45 1
    26   46   44 1
    27   47   44 1
    28   48   49 1
    29   50   48 1
    30   51   48 1
    31   52   40 1
    32   53    8 1
    33    8   23 1
    34   10   22 1
    35   12   19 ar
    36   19   20 ar
    37   44   52 1
    38   48   52 1
    39   52   53 1
@<TRIPOS>SUBSTRUCTURE
     1 RES1 1
     2 SUP2 24

@<TRIPOS>CRYSIN
  15.3654    9.7072   10.4846  90.0000 106.0190  90.0000  14 1

