# MOL2 file generated by ConQuest
# Please check atom types

@<TRIPOS>MOLECULE
HEGMAH
    47    49     1
SMALL
NO_CHARGES
****
Generated from CSD

@<TRIPOS>ATOM
      1 C1         2.9019   -4.5815    4.7035 C.2       1 RES1    0.0000
      2 C2         2.1680   -3.3600    5.2679 C.3       1 RES1    0.0000
      3 C3         1.7077   -2.6389    4.0156 C.2       1 RES1    0.0000
      4 C4         2.0396   -3.4186    2.7686 C.3       1 RES1    0.0000
      5 C5         2.5996   -4.7446    3.2359 C.3       1 RES1    0.0000
      6 C6         0.9490   -3.9355    6.0330 C.3       1 RES1    0.0000
      7 C7         0.5571    0.4318    4.9934 C.3       1 RES1    0.0000
      8 C8         3.0418   -2.5547    6.2477 C.3       1 RES1    0.0000
      9 C9         4.9470   -1.8571    4.6869 C.2       1 RES1    0.0000
     10 C10        3.9210   -1.4230    5.7126 C.3       1 RES1    0.0000
     11 C11        4.6032   -0.6834    6.8679 C.3       1 RES1    0.0000
     12 C12        5.3910    0.5095    6.3587 C.3       1 RES1    0.0000
     13 C13        6.3909    0.0993    5.3091 C.ar      1 RES1    0.0000
     14 C14        7.5524    0.8411    5.1210 C.ar      1 RES1    0.0000
     15 C15        8.4538    0.4961    4.1326 C.ar      1 RES1    0.0000
     16 C16        8.2152   -0.6117    3.3136 C.ar      1 RES1    0.0000
     17 C17        7.0808   -1.3538    3.5084 C.ar      1 RES1    0.0000
     18 C18        6.1500   -1.0175    4.5041 C.ar      1 RES1    0.0000
     19 C19        9.8971    2.3159    4.6763 C.3       1 RES1    0.0000
     20 N1         1.0934   -1.5263    3.9019 N.2       1 RES1    0.0000
     21 O1         3.5426   -5.3587    5.3703 O.2       1 RES1    0.0000
     22 O2         0.8288   -0.9432    5.1742 O.3       1 RES1    0.0000
     23 O3         4.7566   -2.8480    3.9916 O.2       1 RES1    0.0000
     24 O4         9.6130    1.1683    3.8806 O.3       1 RES1    0.0000
     25 H1         1.2392   -3.5588    2.2374 H         1 RES1    0.0000
     26 H2         2.6989   -2.9416    2.2394 H         1 RES1    0.0000
     27 H3         3.4105   -4.9579    2.7479 H         1 RES1    0.0000
     28 H4         1.9473   -5.4510    3.1036 H         1 RES1    0.0000
     29 H5         0.3962   -3.2064    6.3567 H         1 RES1    0.0000
     30 H6         1.2618   -4.4624    6.7841 H         1 RES1    0.0000
     31 H7         0.4259   -4.4981    5.4401 H         1 RES1    0.0000
     32 H8         0.3602    0.7820    5.8768 H         1 RES1    0.0000
     33 H9        -0.1881    0.6123    4.4004 H         1 RES1    0.0000
     34 H10        1.3569    0.8580    4.6470 H         1 RES1    0.0000
     35 H11        3.6314   -3.1886    6.6857 H         1 RES1    0.0000
     36 H12        2.4449   -2.1636    6.9038 H         1 RES1    0.0000
     37 H13        3.3185   -0.8256    5.2440 H         1 RES1    0.0000
     38 H14        5.2063   -1.2920    7.3225 H         1 RES1    0.0000
     39 H15        3.9257   -0.3747    7.4907 H         1 RES1    0.0000
     40 H16        5.8617    0.9171    7.1019 H         1 RES1    0.0000
     41 H17        4.7746    1.1523    5.9745 H         1 RES1    0.0000
     42 H18        7.7314    1.6065    5.6887 H         1 RES1    0.0000
     43 H19        8.8461   -0.8514    2.6163 H         1 RES1    0.0000
     44 H20        6.9167   -2.1275    2.9467 H         1 RES1    0.0000
     45 H21       10.7586    2.6250    4.3539 H         1 RES1    0.0000
     46 H22        9.9599    2.1110    5.6222 H         1 RES1    0.0000
     47 H23        9.2333    3.0103    4.5394 H         1 RES1    0.0000
@<TRIPOS>BOND
     1    1    2 1
     2    2    3 1
     3    3    4 1
     4    4    5 1
     5    5    1 1
     6    6    2 1
     7    7   22 1
     8    8    2 1
     9    9   10 1
    10   10    8 1
    11   11   10 1
    12   12   11 1
    13   13   12 1
    14   14   13 ar
    15   15   14 ar
    16   16   15 ar
    17   17   16 ar
    18   18    9 1
    19   19   24 1
    20   20    3 2
    21   21    1 2
    22   22   20 1
    23   23    9 2
    24   24   15 1
    25   25    4 1
    26   26    4 1
    27   27    5 1
    28   28    5 1
    29   29    6 1
    30   30    6 1
    31   31    6 1
    32   32    7 1
    33   33    7 1
    34   34    7 1
    35   35    8 1
    36   36    8 1
    37   37   10 1
    38   38   11 1
    39   39   11 1
    40   40   12 1
    41   41   12 1
    42   42   14 1
    43   43   16 1
    44   44   17 1
    45   45   19 1
    46   46   19 1
    47   47   19 1
    48   13   18 ar
    49   17   18 ar
@<TRIPOS>SUBSTRUCTURE
     1 RES1 1

@<TRIPOS>CRYSIN
  14.7680    8.8650    9.2220 133.2450  91.0010  97.2840   2 1

