# MOL2 file generated by ConQuest
# Please check atom types

@<TRIPOS>MOLECULE
HEGRES
    41    43     1
SMALL
USER_CHARGES
****
Generated from CSD

@<TRIPOS>ATOM
      1 C1         0.1556    3.2779    8.2897 C.ar      1 RES1    0.0000
      2 C2         0.0515    4.6506    8.1103 C.ar      1 RES1    0.0000
      3 C3         0.2794    5.5363    9.1263 C.ar      1 RES1    0.0000
      4 C4         0.6060    5.0953   10.4072 C.ar      1 RES1    0.0000
      5 C5         0.7053    3.7340   10.5413 C.ar      1 RES1    0.0000
      6 C6         0.8511    5.9249   11.6223 C.3       1 RES1    0.0000
      7 O1         0.6186    1.5910    9.8387 O.2       1 RES1   -1.0000
      8 O2         0.4676    7.7825    9.6520 O.2       1 RES1    0.0000
      9 O3        -0.1682    7.2598    7.6653 O.2       1 RES1    0.0000
     10 N1         0.4899    2.8405    9.5452 N.pl3     1 RES1    1.0000
     11 N2         0.1789    6.9557    8.7990 N.pl3     1 RES1    0.0000
     12 N3        -0.3841    3.0208    6.0394 N.ar      1 RES1    0.0000
     13 C7        -0.1025    2.3592    7.1587 C.ar      1 RES1    0.0000
     14 C8        -0.0747    0.9602    7.2007 C.ar      1 RES1    0.0000
     15 C9        -0.3841    0.2795    6.0394 C.ar      1 RES1    0.0000
     16 H1        -0.1883    4.9556    7.2208 H         1 RES1    0.0000
     17 H2         0.9434    3.3739   11.4073 H         1 RES1    0.0000
     18 H3         0.9829    5.3347   12.4026 H         1 RES1    0.0000
     19 H4         0.0791    6.5058   11.7479 H         1 RES1    0.0000
     20 H5         1.6496    6.4753   11.4677 H         1 RES1    0.0000
     21 H6         0.1421    0.4951    8.0131 H         1 RES1    0.0000
     22 H7        -0.3841   -0.6628    6.0394 H         1 RES1    0.0000
     23 C1B       -0.9238    3.2779    3.7891 C.ar      1 RES1    0.0000
     24 C2B       -0.8197    4.6506    3.9686 C.ar      1 RES1    0.0000
     25 C3B       -1.0476    5.5363    2.9526 C.ar      1 RES1    0.0000
     26 C4B       -1.3742    5.0953    1.6717 C.ar      1 RES1    0.0000
     27 C5B       -1.4735    3.7340    1.5376 C.ar      1 RES1    0.0000
     28 C6B       -1.6192    5.9249    0.4566 C.3       1 RES1    0.0000
     29 O1B       -1.3868    1.5910    2.2402 O.2       1 RES1   -1.0000
     30 O2B       -1.2358    7.7825    2.4269 O.2       1 RES1    0.0000
     31 O3B       -0.5999    7.2598    4.4136 O.2       1 RES1    0.0000
     32 N1B       -1.2581    2.8405    2.5337 N.pl3     1 RES1    1.0000
     33 N2B       -0.9471    6.9557    3.2799 N.pl3     1 RES1    0.0000
     34 C7B       -0.6657    2.3592    4.9202 C.ar      1 RES1    0.0000
     35 C8B       -0.6935    0.9602    4.8782 C.ar      1 RES1    0.0000
     36 H1B       -0.5799    4.9556    4.8581 H         1 RES1    0.0000
     37 H2B       -1.7116    3.3739    0.6716 H         1 RES1    0.0000
     38 H3B       -1.7511    5.3347   -0.3237 H         1 RES1    0.0000
     39 H4B       -0.8472    6.5058    0.3310 H         1 RES1    0.0000
     40 H5B       -2.4178    6.4753    0.6112 H         1 RES1    0.0000
     41 H6B       -0.9103    0.4951    4.0658 H         1 RES1    0.0000
@<TRIPOS>BOND
     1    1    2 ar
     2    2    3 ar
     3    3    4 ar
     4    4    5 ar
     5    5   10 ar
     6    6    4 1
     7    7   10 1
     8    8   11 2
     9    9   11 2
    10   10    1 ar
    11   11    3 1
    12   12   13 ar
    13   13    1 1
    14   14   13 ar
    15   15   14 ar
    16   16    2 1
    17   17    5 1
    18   18    6 1
    19   19    6 1
    20   20    6 1
    21   21   14 1
    22   22   15 1
    23   23   24 ar
    24   24   25 ar
    25   25   26 ar
    26   26   27 ar
    27   27   32 ar
    28   28   26 1
    29   29   32 1
    30   30   33 2
    31   31   33 2
    32   32   23 ar
    33   33   25 1
    34   34   12 ar
    35   35   15 ar
    36   36   24 1
    37   37   27 1
    38   38   28 1
    39   39   28 1
    40   40   28 1
    41   41   35 1
    42   23   34 1
    43   34   35 ar
@<TRIPOS>SUBSTRUCTURE
     1 RES1 1

@<TRIPOS>CRYSIN
   6.3456   10.1653   24.2066  90.0000  93.6390  90.0000  15 1

