# MOL2 file generated by ConQuest
# Please check atom types

@<TRIPOS>MOLECULE
HEGROC
    81    82     3
SMALL
NO_CHARGES
****
Generated from CSD

@<TRIPOS>ATOM
      1 C1        -0.0268   16.5971    5.7659 C.3       1 RES1    0.0000
      2 H1        -0.6143   17.1275    5.1889 H         1 RES1    0.0000
      3 H2         0.1487   17.0878    6.5944 H         1 RES1    0.0000
      4 H3        -0.4605   15.7436    5.9757 H         1 RES1    0.0000
      5 C2         1.2704   16.3372    5.0542 C.ar      1 RES1    0.0000
      6 C3         1.6191   15.0516    4.6751 C.ar      1 RES1    0.0000
      7 H4         1.0082   14.3596    4.8984 H         1 RES1    0.0000
      8 C4         3.5929   15.6615    3.7005 C.ar      1 RES1    0.0000
      9 C5         3.3722   16.9838    4.0284 C.ar      1 RES1    0.0000
     10 H5         4.0017   17.6573    3.7941 H         1 RES1    0.0000
     11 C6         2.2117   17.3040    4.7064 C.ar      1 RES1    0.0000
     12 C7         4.8263   15.2486    2.9756 C.ar      1 RES1    0.0000
     13 N1         5.6190   16.2544    2.5724 N.ar      1 RES1    0.0000
     14 C8         6.7663   15.9409    1.9475 C.ar      1 RES1    0.0000
     15 C9         7.1525   14.6268    1.7107 C.ar      1 RES1    0.0000
     16 H6         7.9758   14.4357    1.2764 H         1 RES1    0.0000
     17 C10        5.1338   13.9172    2.7577 C.ar      1 RES1    0.0000
     18 H7         4.5428   13.2306    3.0437 H         1 RES1    0.0000
     19 C11        7.6264   17.0921    1.5602 C.ar      1 RES1    0.0000
     20 C12        7.1618   18.3903    1.6748 C.ar      1 RES1    0.0000
     21 H8         6.2729   18.5711    1.9569 H         1 RES1    0.0000
     22 C13        8.0372   19.4131    1.3645 C.ar      1 RES1    0.0000
     23 C14        9.3427   19.1777    0.9560 C.ar      1 RES1    0.0000
     24 C15        9.6631   17.8324    0.8263 C.ar      1 RES1    0.0000
     25 H9        10.5355   17.6242    0.5138 H         1 RES1    0.0000
     26 C16       10.3532   20.2352    0.6389 C.3       1 RES1    0.0000
     27 H10       10.6494   20.6636    1.4687 H         1 RES1    0.0000
     28 H11        9.9491   20.9053    0.0498 H         1 RES1    0.0000
     29 H12       11.1223   19.8260    0.1896 H         1 RES1    0.0000
     30 C17        5.3378   20.9103    7.6690 C.3       2 RES2    0.0000
     31 H13        4.4832   20.5014    7.4202 H         2 RES2    0.0000
     32 H14        5.2650   21.2927    8.5688 H         2 RES2    0.0000
     33 H15        6.0418   20.2299    7.6609 H         2 RES2    0.0000
     34 C18        5.6781   21.9907    6.6912 C.ar      2 RES2    0.0000
     35 C19        5.8048   21.8672    5.3153 C.ar      2 RES2    0.0000
     36 C20        6.1241   22.9386    4.5024 C.ar      2 RES2    0.0000
     37 H16        6.2273   22.8290    3.5642 H         2 RES2    0.0000
     38 C21        6.2893   24.1762    5.1011 C.ar      2 RES2    0.0000
     39 C22        6.5700   25.3990    4.2978 C.ar      2 RES2    0.0000
     40 C23        5.8717   23.2905    7.1579 C.ar      2 RES2    0.0000
     41 H17        5.7933   23.4250    8.0953 H         2 RES2    0.0000
     42 N2         6.7587   25.2268    2.9782 N.ar      2 RES2    0.0000
     43 C24        6.9488   26.3148    2.2192 C.ar      2 RES2    0.0000
     44 C25        6.9206   27.6070    2.7383 C.ar      2 RES2    0.0000
     45 H18        7.0100   28.3616    2.1681 H         2 RES2    0.0000
     46 C26        6.5917   26.6555    4.8997 C.ar      2 RES2    0.0000
     47 H19        6.4935   26.7459    5.8412 H         2 RES2    0.0000
     48 C27        7.2110   26.0896    0.7740 C.ar      2 RES2    0.0000
     49 C28        7.4994   24.8298    0.2668 C.ar      2 RES2    0.0000
     50 H20        7.5096   24.0640    0.8285 H         2 RES2    0.0000
     51 C29        7.7705   24.7278   -1.0886 C.ar      2 RES2    0.0000
     52 C30        7.7599   25.8231   -1.9381 C.ar      2 RES2    0.0000
     53 C31        7.4476   27.0253   -1.3006 C.ar      2 RES2    0.0000
     54 H21        7.4162   27.8054   -1.8426 H         2 RES2    0.0000
     55 C32        8.0770   25.8300   -3.4095 C.3       2 RES2    0.0000
     56 H22        8.9035   25.3288   -3.5682 H         2 RES2    0.0000
     57 H23        8.1919   26.7558   -3.7134 H         2 RES2    0.0000
     58 H24        7.3404   25.4115   -3.9031 H         2 RES2    0.0000
     59 N3         2.7267   14.6887    4.0263 N.ar      1 RES1    0.0000
     60 C33        6.3208   13.6070    2.1155 C.ar      1 RES1    0.0000
     61 H25        6.5579   12.7008    1.9556 H         1 RES1    0.0000
     62 N4         8.8582   16.8064    1.1003 N.ar      1 RES1    0.0000
     63 N5         2.0162   18.7029    5.0443 N.pl3     1 RES1    0.0000
     64 O1         1.6097   18.9443    6.1599 O.2       1 RES1    0.0000
     65 O2         2.2529   19.4912    4.1761 O.2       1 RES1    0.0000
     66 N6         7.5205   20.7871    1.4507 N.pl3     1 RES1    0.0000
     67 N7         6.1539   24.3507    6.4242 N.ar      2 RES2    0.0000
     68 C34        6.7590   27.7666    4.1008 C.ar      2 RES2    0.0000
     69 H26        6.7636   28.6364    4.4841 H         2 RES2    0.0000
     70 N8         7.1892   27.1806   -0.0062 N.ar      2 RES2    0.0000
     71 N9         5.5465   20.5805    4.6482 N.pl3     2 RES2    0.0000
     72 O3         5.0688   19.6310    5.4269 O.2       2 RES2    0.0000
     73 N10        8.0984   23.3839   -1.5961 N.pl3     2 RES2    0.0000
     74 O4         6.5017   21.0414    0.8187 O.2       1 RES1    0.0000
     75 O5         8.1362   21.5887    2.1260 O.2       1 RES1    0.0000
     76 O6         5.3154   20.5640    3.4730 O.2       2 RES2    0.0000
     77 O7         8.5189   22.5651   -0.8012 O.2       2 RES2    0.0000
     78 O8         7.9424   23.1439   -2.7837 O.2       2 RES2    0.0000
     79 O9         3.0328   19.3694    5.4861 Du        3 SUP3    0.0000
     80 O10        6.0501   19.5644    5.0893 Du        3 SUP3    0.0000
     81 O11        0.9488   19.2869    4.9952 Du        3 SUP3    0.0000
@<TRIPOS>BOND
     1    1    2 1
     2    3    1 1
     3    4    1 1
     4    5    1 1
     5    6    5 ar
     6    7    6 1
     7    8    9 ar
     8    9   10 1
     9   11    5 ar
    10   12    8 1
    11   13   12 ar
    12   14   13 ar
    13   15   14 ar
    14   16   15 1
    15   17   12 ar
    16   18   17 1
    17   19   14 1
    18   20   19 ar
    19   21   20 1
    20   22   20 ar
    21   23   22 ar
    22   24   23 ar
    23   25   24 1
    24   26   23 1
    25   27   26 1
    26   28   26 1
    27   29   26 1
    28   30   31 1
    29   32   30 1
    30   33   30 1
    31   34   30 1
    32   35   34 ar
    33   36   35 ar
    34   37   36 1
    35   38   36 ar
    36   39   38 1
    37   40   34 ar
    38   41   40 1
    39   42   39 ar
    40   43   42 ar
    41   44   43 ar
    42   45   44 1
    43   46   39 ar
    44   47   46 1
    45   48   43 1
    46   49   48 ar
    47   50   49 1
    48   51   49 ar
    49   52   51 ar
    50   53   52 ar
    51   54   53 1
    52   55   52 1
    53   56   55 1
    54   57   55 1
    55   58   55 1
    56   59    6 ar
    57   60   15 ar
    58   61   60 1
    59   62   19 ar
    60   63   11 1
    61   64   63 2
    62   65   63 2
    63   66   22 1
    64   67   38 ar
    65   68   44 ar
    66   69   68 1
    67   70   48 ar
    68   71   35 1
    69   72   71 2
    70   73   51 1
    71   74   66 2
    72   75   66 2
    73   76   71 2
    74   77   73 2
    75   78   73 2
    76    8   59 ar
    77    9   11 ar
    78   17   60 ar
    79   24   62 ar
    80   40   67 ar
    81   46   68 ar
    82   53   70 ar
@<TRIPOS>SUBSTRUCTURE
     1 RES1 1
     2 RES2 30
     3 SUP3 79

@<TRIPOS>CRYSIN
   7.0290   33.1095   13.7736  90.0000 102.4510  90.0000 231 1

