# MOL2 file generated by ConQuest
# Please check atom types

@<TRIPOS>MOLECULE
HEGSET
    56    58     1
SMALL
NO_CHARGES
****
Generated from CSD

@<TRIPOS>ATOM
      1 O1        14.3737    3.3922    2.0977 O.3       1 RES1    0.0000
      2 N1        13.2007    3.2181    2.8721 N.am      1 RES1    0.0000
      3 C1        11.2457    4.3336    3.7234 C.ar      1 RES1    0.0000
      4 C2         9.2966    5.4420    4.5220 C.ar      1 RES1    0.0000
      5 O2        13.2743    5.4735    3.2057 O.2       1 RES1    0.0000
      6 C3        10.5943    5.5200    4.0870 C.ar      1 RES1    0.0000
      7 N2         8.5950    6.6733    4.9127 N.pl3     1 RES1    0.0000
      8 C4        16.6240    2.5634    0.7982 C.ar      1 RES1    0.0000
      9 H1        15.8407    2.0994    0.6135 H         1 RES1    0.0000
     10 O3        18.6365    1.3195   -1.8284 O.2       1 RES1    0.0000
     11 C5        12.6546    4.4234    3.2293 C.2       1 RES1    0.0000
     12 C6        16.6976    3.3756    1.8999 C.ar      1 RES1    0.0000
     13 C7        17.7044    2.4358   -0.0307 C.ar      1 RES1    0.0000
     14 C8        17.8639    4.0972    2.1604 C.ar      1 RES1    0.0000
     15 C9         8.6192    4.2422    4.5822 C.ar      1 RES1    0.0000
     16 H2         7.7330    4.2146    4.8565 H         1 RES1    0.0000
     17 C10       15.5358    3.3764    2.8388 C.2       1 RES1    0.0000
     18 C11       12.4060    2.0656    2.4111 C.3       1 RES1    0.0000
     19 C12       10.5843    3.1172    3.7976 C.ar      1 RES1    0.0000
     20 C13       11.3398    1.8560    3.4676 C.3       1 RES1    0.0000
     21 H3        10.7142    1.1848    3.1540 H         1 RES1    0.0000
     22 H4        11.7576    1.5173    4.2742 H         1 RES1    0.0000
     23 N3        17.6350    1.4921   -1.1502 N.pl3     1 RES1    0.0000
     24 O4        15.5653    3.3536    4.0261 O.2       1 RES1    0.0000
     25 O5        16.5779    0.9020   -1.3492 O.2       1 RES1    0.0000
     26 C14       17.7396    6.4929    3.1022 C.3       1 RES1    0.0000
     27 C15       18.9157    3.9696    1.2669 C.ar      1 RES1    0.0000
     28 H5        19.6941    4.4588    1.4136 H         1 RES1    0.0000
     29 O6         7.3772    6.6260    5.0530 O.2       1 RES1    0.0000
     30 C16        9.2754    3.0928    4.2306 C.ar      1 RES1    0.0000
     31 H6         8.8289    2.2790    4.2853 H         1 RES1    0.0000
     32 O7         9.2775    7.6753    5.0690 O.2       1 RES1    0.0000
     33 C17       18.8459    3.1448    0.1734 C.ar      1 RES1    0.0000
     34 H7        19.5617    3.0731   -0.4156 H         1 RES1    0.0000
     35 C18       13.3191    0.8437    2.3738 C.3       1 RES1    0.0000
     36 H8        13.9999    0.9729    1.7092 H         1 RES1    0.0000
     37 H9        12.8024    0.0646    2.1560 H         1 RES1    0.0000
     38 H10       13.7297    0.7248    3.2317 H         1 RES1    0.0000
     39 C19       18.0396    5.0371    3.3398 C.3       1 RES1    0.0000
     40 H11       17.4686    4.7259    4.0608 H         1 RES1    0.0000
     41 H12       18.9566    4.9654    3.6474 H         1 RES1    0.0000
     42 C20       11.8000    2.3366    1.0402 C.3       1 RES1    0.0000
     43 H13       12.5009    2.4744    0.4023 H         1 RES1    0.0000
     44 H14       11.2481    3.1212    1.0847 H         1 RES1    0.0000
     45 H15       11.2650    1.5850    0.7735 H         1 RES1    0.0000
     46 C21       16.3538    6.7261    2.5249 C.3       1 RES1    0.0000
     47 H16       16.2173    7.6659    2.3871 H         1 RES1    0.0000
     48 H17       15.6912    6.3936    3.1362 H         1 RES1    0.0000
     49 H18       16.2730    6.2644    1.6870 H         1 RES1    0.0000
     50 C22       17.9656    7.3169    4.3675 C.3       1 RES1    0.0000
     51 H19       17.7660    8.2394    4.1875 H         1 RES1    0.0000
     52 H20       18.8825    7.2350    4.6431 H         1 RES1    0.0000
     53 H21       17.3907    6.9955    5.0654 H         1 RES1    0.0000
     54 N4        18.7685    7.0097    2.0893 N.pl3     1 RES1    0.0000
     55 O8        18.4097    7.3894    1.0113 O.2       1 RES1    0.0000
     56 O9        19.9437    6.9301    2.4116 O.2       1 RES1    0.0000
@<TRIPOS>BOND
     1    1    2 1
     2    2   11 1
     3    3    6 ar
     4    4    6 ar
     5    5   11 2
     6    7    4 1
     7    8    9 1
     8   10   23 2
     9   11    3 1
    10   12    8 ar
    11   13    8 ar
    12   14   12 ar
    13   15    4 ar
    14   16   15 1
    15   17    1 1
    16   18    2 1
    17   19    3 ar
    18   20   18 1
    19   21   20 1
    20   22   20 1
    21   23   13 1
    22   24   17 2
    23   25   23 2
    24   26   39 1
    25   27   14 ar
    26   28   27 1
    27   29    7 2
    28   30   15 ar
    29   31   30 1
    30   32    7 2
    31   33   13 ar
    32   34   33 1
    33   35   18 1
    34   36   35 1
    35   37   35 1
    36   38   35 1
    37   39   14 1
    38   40   39 1
    39   41   39 1
    40   42   18 1
    41   43   42 1
    42   44   42 1
    43   45   42 1
    44   46   26 1
    45   47   46 1
    46   48   46 1
    47   49   46 1
    48   50   26 1
    49   51   50 1
    50   52   50 1
    51   53   50 1
    52   54   26 1
    53   55   54 2
    54   56   54 2
    55   12   17 1
    56   19   20 1
    57   19   30 ar
    58   27   33 ar
@<TRIPOS>SUBSTRUCTURE
     1 RES1 1

@<TRIPOS>CRYSIN
  26.9500    7.8778   24.0920  90.0000 112.6950  90.0000  15 1

