# MOL2 file generated by ConQuest
# Please check atom types

@<TRIPOS>MOLECULE
HEHTUJ
    56    56     4
SMALL
NO_CHARGES
****
Generated from CSD

@<TRIPOS>ATOM
      1 N1         7.1161    3.6575    2.1395 N.3       1 RES1    0.0000
      2 N2         6.1384    4.4610    1.6297 N.2       1 RES1    0.0000
      3 C1         6.5590    5.7032    1.8095 C.2       1 RES1    0.0000
      4 C2         7.8223    5.6595    2.4340 C.2       1 RES1    0.0000
      5 C3         8.1436    4.3377    2.6259 C.2       1 RES1    0.0000
      6 N3         8.6313    6.7519    2.8335 N.pl3     1 RES1    0.0000
      7 O1         8.2424    7.8915    2.5805 O.2       1 RES1    0.0000
      8 O2         9.6898    6.5282    3.4249 O.2       1 RES1    0.0000
      9 C4         5.7360    6.8630    1.3745 C.3       1 RES1    0.0000
     10 H1         7.0113    2.8108    2.1372 H         1 RES1    0.0000
     11 H2         8.8587    3.9316    3.0133 H         1 RES1    0.0000
     12 H3         5.5630    7.3849    2.1448 H         1 RES1    0.0000
     13 H4         6.2800    7.4913    0.8232 H         1 RES1    0.0000
     14 H5         5.0336    6.6244    0.8383 H         1 RES1    0.0000
     15 N4         4.4466    2.2695    0.6993 N.3       2 RES2    0.0000
     16 N5         5.3360    1.4780    1.3639 N.2       2 RES2    0.0000
     17 C5         4.9420    0.2345    1.1577 C.2       2 RES2    0.0000
     18 C6         3.7833    0.2597    0.3482 C.2       2 RES2    0.0000
     19 C7         3.4967    1.5810    0.0770 C.2       2 RES2    0.0000
     20 N6         3.0190   -0.8432   -0.0989 N.pl3     2 RES2    0.0000
     21 O3         3.3640   -1.9737    0.2303 O.2       2 RES2    0.0000
     22 O4         2.0313   -0.6326   -0.8043 O.2       2 RES2    0.0000
     23 C8         5.6944   -0.9069    1.7377 C.3       2 RES2    0.0000
     24 H6         4.6285    3.1361    0.7477 H         2 RES2    0.0000
     25 H7         2.7663    1.9533   -0.4456 H         2 RES2    0.0000
     26 H8         5.1549   -1.4698    2.2354 H         2 RES2    0.0000
     27 H9         5.8994   -1.6230    1.0875 H         2 RES2    0.0000
     28 H10        6.4171   -0.7041    2.2052 H         2 RES2    0.0000
     29 N7         2.0309    1.2289    3.1651 N.3       3 RES3    0.0000
     30 N8         1.0276    0.6484    2.4416 N.2       3 RES3    0.0000
     31 C9         1.1577   -0.6613    2.6440 C.2       3 RES3    0.0000
     32 C10        2.2505   -0.8798    3.5064 C.2       3 RES3    0.0000
     33 C11        2.7819    0.3569    3.8153 C.2       3 RES3    0.0000
     34 N9         2.7412   -2.1147    3.9777 N.pl3     3 RES3    0.0000
     35 O5         2.1238   -3.1413    3.7081 O.2       3 RES3    0.0000
     36 O6         3.7842   -2.1275    4.6445 O.2       3 RES3    0.0000
     37 C12        0.2302   -1.6251    1.9998 C.3       3 RES3    0.0000
     38 H11        2.0831    2.1224    3.1492 H         3 RES3    0.0000
     39 H12        3.5140    0.5879    4.3273 H         3 RES3    0.0000
     40 H13        0.7341   -2.2370    1.4500 H         3 RES3    0.0000
     41 H14       -0.2156   -2.2144    2.6206 H         3 RES3    0.0000
     42 H15       -0.3229   -1.1961    1.3594 H         3 RES3    0.0000
     43 N10       -0.2127    3.1314    1.5935 N.3       4 RES4    0.0000
     44 N11        0.9028    3.7217    2.1138 N.2       4 RES4    0.0000
     45 C13        0.7223    5.0247    1.9862 C.2       4 RES4    0.0000
     46 C14       -0.5301    5.2374    1.3639 C.2       4 RES4    0.0000
     47 C15       -1.0938    4.0091    1.1290 C.2       4 RES4    0.0000
     48 N12       -1.1262    6.4863    1.0158 N.pl3     4 RES4    0.0000
     49 O7        -0.5461    7.5188    1.3261 O.2       4 RES4    0.0000
     50 O8        -2.1981    6.4782    0.4184 O.2       4 RES4    0.0000
     51 C16        1.7410    5.9980    2.4635 C.3       4 RES4    0.0000
     52 H16       -0.2577    2.2784    1.6010 H         4 RES4    0.0000
     53 H17       -1.8787    3.7367    0.7401 H         4 RES4    0.0000
     54 H18        1.9585    6.6172    1.7747 H         4 RES4    0.0000
     55 H19        1.3479    6.6566    3.0510 H         4 RES4    0.0000
     56 H20        2.4566    5.6217    2.9000 H         4 RES4    0.0000
@<TRIPOS>BOND
     1    1    2 1
     2    2    3 2
     3    3    4 1
     4    4    5 2
     5    5    1 1
     6    6    4 1
     7    7    6 2
     8    8    6 2
     9    9    3 1
    10   10    1 1
    11   11    5 1
    12   12    9 1
    13   13    9 1
    14   14    9 1
    15   15   16 1
    16   16   17 2
    17   17   18 1
    18   18   19 2
    19   19   15 1
    20   20   18 1
    21   21   20 2
    22   22   20 2
    23   23   17 1
    24   24   15 1
    25   25   19 1
    26   26   23 1
    27   27   23 1
    28   28   23 1
    29   29   30 1
    30   30   31 2
    31   31   32 1
    32   32   33 2
    33   33   29 1
    34   34   32 1
    35   35   34 2
    36   36   34 2
    37   37   31 1
    38   38   29 1
    39   39   33 1
    40   40   37 1
    41   41   37 1
    42   42   37 1
    43   43   44 1
    44   44   45 2
    45   45   46 1
    46   46   47 2
    47   47   43 1
    48   48   46 1
    49   49   48 2
    50   50   48 2
    51   51   45 1
    52   52   43 1
    53   53   47 1
    54   54   51 1
    55   55   51 1
    56   56   51 1
@<TRIPOS>SUBSTRUCTURE
     1 RES1 1
     2 RES2 15
     3 RES3 29
     4 RES4 43

@<TRIPOS>CRYSIN
  12.7068   11.5857    7.6762  99.8630  93.9920  84.1230   2 1

