# MOL2 file generated by ConQuest
# Please check atom types

@<TRIPOS>MOLECULE
HEHVAR
    42    42     3
SMALL
NO_CHARGES
****
Generated from CSD

@<TRIPOS>ATOM
      1 N1         1.5005    0.7577    4.2677 N.3       1 RES1    0.0000
      2 N2         1.4638   -0.5874    4.0702 N.2       1 RES1    0.0000
      3 C1         1.9123   -1.1004    5.2049 C.2       1 RES1    0.0000
      4 C2         2.2103   -0.0894    6.1053 C.2       1 RES1    0.0000
      5 C3         1.9320    1.1196    5.4874 C.2       1 RES1    0.0000
      6 N3         2.7261   -0.2639    7.4295 N.pl3     1 RES1    0.0000
      7 O1         2.9788   -1.4005    7.7901 O.2       1 RES1    0.0000
      8 O2         2.9121    0.7215    8.1266 O.2       1 RES1    0.0000
      9 C4         2.0505    2.5541    5.8997 C.3       1 RES1    0.0000
     10 H1         1.0509    1.3835    3.6177 H         1 RES1    0.0000
     11 H2         1.9173   -2.1923    5.3749 H         1 RES1    0.0000
     12 H3         3.0403    2.6393    6.1214 H         1 RES1    0.0000
     13 H4         1.7107    2.7457    6.7301 H         1 RES1    0.0000
     14 H5         1.7951    3.1075    5.0877 H         1 RES1    0.0000
     15 N4         0.7321   -1.6687    1.5125 N.3       2 RES2    0.0000
     16 N5         0.7463   -0.8088    0.4479 N.2       2 RES2    0.0000
     17 C5         0.5873   -1.5793   -0.6179 C.2       2 RES2    0.0000
     18 C6         0.5158   -2.9032   -0.2262 C.2       2 RES2    0.0000
     19 C7         0.6203   -2.9479    1.1600 C.2       2 RES2    0.0000
     20 N6         0.3805   -4.0227   -1.1152 N.pl3     2 RES2    0.0000
     21 O3         0.4228   -3.8227   -2.3004 O.2       2 RES2    0.0000
     22 O4         0.2207   -5.1231   -0.6248 O.2       2 RES2    0.0000
     23 C8         0.5928   -4.0653    2.1442 C.3       2 RES2    0.0000
     24 H6         1.1680   -1.4473    2.2510 H         2 RES2    0.0000
     25 H7         0.5982   -1.1919   -1.5160 H         2 RES2    0.0000
     26 H8         1.3226   -4.7677    1.7801 H         2 RES2    0.0000
     27 H9         0.7618   -3.6822    2.9975 H         2 RES2    0.0000
     28 H10       -0.0621   -4.6187    2.0902 H         2 RES2    0.0000
     29 N7         0.7033    2.0688    0.8131 N.3       3 RES3    0.0000
     30 N8         0.7012    2.4881    2.1166 N.2       3 RES3    0.0000
     31 C9         0.5620    3.7886    2.0627 C.2       3 RES3    0.0000
     32 C10        0.4487    4.2058    0.7201 C.2       3 RES3    0.0000
     33 C11        0.5421    3.0692   -0.0643 C.2       3 RES3    0.0000
     34 N9         0.2574    5.5446    0.2791 N.pl3     3 RES3    0.0000
     35 O5        -0.0148    6.3938    1.1198 O.2       3 RES3    0.0000
     36 O6         0.3708    5.8000   -0.9142 O.2       3 RES3    0.0000
     37 C12        0.4985    2.8415   -1.5263 C.3       3 RES3    0.0000
     38 H11        0.5134    1.0855    0.7121 H         3 RES3    0.0000
     39 H12        0.5111    4.4271    2.8712 H         3 RES3    0.0000
     40 H13        1.2061    3.2778   -2.0328 H         3 RES3    0.0000
     41 H14        0.4338    1.8517   -1.6193 H         3 RES3    0.0000
     42 H15       -0.0366    3.1714   -2.0673 H         3 RES3    0.0000
@<TRIPOS>BOND
     1    1    2 1
     2    2    3 2
     3    3    4 1
     4    4    5 2
     5    5    1 1
     6    6    4 1
     7    7    6 2
     8    8    6 2
     9    9    5 1
    10   10    1 1
    11   11    3 1
    12   12    9 1
    13   13    9 1
    14   14    9 1
    15   15   16 1
    16   16   17 2
    17   17   18 1
    18   18   19 2
    19   19   15 1
    20   20   18 1
    21   21   20 2
    22   22   20 2
    23   23   19 1
    24   24   15 1
    25   25   17 1
    26   26   23 1
    27   27   23 1
    28   28   23 1
    29   29   30 1
    30   30   31 2
    31   31   32 1
    32   32   33 2
    33   33   29 1
    34   34   32 1
    35   35   34 2
    36   36   34 2
    37   37   33 1
    38   38   29 1
    39   39   31 1
    40   40   37 1
    41   41   37 1
    42   42   37 1
@<TRIPOS>SUBSTRUCTURE
     1 RES1 1
     2 RES2 15
     3 RES3 29

