# MOL2 file generated by ConQuest
# Please check atom types

@<TRIPOS>MOLECULE
HEHWIA
    19    19     1
SMALL
NO_CHARGES
****
Generated from CSD

@<TRIPOS>ATOM
      1 C1         0.1822    2.1242   -0.8796 C.3       1 RES1    0.0000
      2 N1         1.6930    0.1355   -1.3904 N.pl3     1 RES1    0.0000
      3 O1         2.2508    0.8820   -2.1778 O.2       1 RES1    0.0000
      4 O2         1.9996   -1.0406   -1.2209 O.2       1 RES1    0.0000
      5 N2         1.4048    3.9606    0.3476 N.pl3     1 RES1    0.0000
      6 O3         1.5906    4.6287    1.3544 O.2       1 RES1    0.0000
      7 O4         2.0519    4.1115   -0.6708 O.2       1 RES1    0.0000
      8 C2         0.5573    0.7096   -0.6125 C.2       1 RES1    0.0000
      9 C3        -0.0561   -0.0800    0.2734 C.2       1 RES1    0.0000
     10 C4        -1.0862    0.3679    1.1446 C.2       1 RES1    0.0000
     11 C5        -1.1787    1.5839    1.6967 C.2       1 RES1    0.0000
     12 C6        -0.2689    2.6630    1.5006 C.2       1 RES1    0.0000
     13 C7         0.3872    2.8770    0.3741 C.2       1 RES1    0.0000
     14 H1         0.3499   -0.8158    0.2014 H         1 RES1    0.0000
     15 H2        -1.8305   -0.3848    1.5897 H         1 RES1    0.0000
     16 H3        -1.8763    2.0165    2.2679 H         1 RES1    0.0000
     17 H4        -0.1871    2.9862    2.0666 H         1 RES1    0.0000
     18 H5        -0.7793    2.1088   -1.1128 H         1 RES1    0.0000
     19 H6         0.6105    2.6014   -1.6532 H         1 RES1    0.0000
@<TRIPOS>BOND
     1    1    8 1
     2    2    3 2
     3    4    2 2
     4    5    6 2
     5    7    5 2
     6    8    2 1
     7    9    8 2
     8   10    9 1
     9   11   10 2
    10   12   11 1
    11   13    1 1
    12   14    9 1
    13   15   10 1
    14   16   11 1
    15   17   12 1
    16   18    1 1
    17   19    1 1
    18    5   13 1
    19   12   13 2
@<TRIPOS>SUBSTRUCTURE
     1 RES1 1

@<TRIPOS>CRYSIN
   4.9980   15.3930   10.7140  90.0000  98.4500  90.0000   9 1

