# MOL2 file generated by ConQuest
# Please check atom types

@<TRIPOS>MOLECULE
HEHXAV
    56    61     1
SMALL
NO_CHARGES
****
Generated from CSD

@<TRIPOS>ATOM
      1 N1         2.9768    3.6795    8.3230 N.pl3     1 RES1    0.0000
      2 H1         3.5503    3.1265    7.9985 H         1 RES1    0.0000
      3 C1         1.7629    3.3293    8.9084 C.ar      1 RES1    0.0000
      4 C2         1.1870    2.0765    9.0545 C.ar      1 RES1    0.0000
      5 H2         1.6277    1.3112    8.7641 H         1 RES1    0.0000
      6 C3        -0.0722    1.9968    9.6479 C.ar      1 RES1    0.0000
      7 C4        -0.7240    3.1547   10.1088 C.ar      1 RES1    0.0000
      8 H3        -1.5563    3.0841   10.5187 H         1 RES1    0.0000
      9 C5        -0.1344    4.3992    9.9569 C.ar      1 RES1    0.0000
     10 H4        -0.5697    5.1614   10.2635 H         1 RES1    0.0000
     11 C6         1.1156    4.5069    9.3426 C.ar      1 RES1    0.0000
     12 C7         1.9871    5.6129    8.9953 C.ar      1 RES1    0.0000
     13 C8         1.9118    6.9954    9.1362 C.ar      1 RES1    0.0000
     14 H5         1.1893    7.3829    9.5748 H         1 RES1    0.0000
     15 C9         2.9176    7.7874    8.6200 C.ar      1 RES1    0.0000
     16 H6         2.8601    8.7100    8.7167 H         1 RES1    0.0000
     17 C10        4.0317    7.2335    7.9486 C.ar      1 RES1    0.0000
     18 C11        4.1369    5.8474    7.8163 C.ar      1 RES1    0.0000
     19 H7         4.8671    5.4618    7.3866 H         1 RES1    0.0000
     20 C12        3.1165    5.0578    8.3459 C.ar      1 RES1    0.0000
     21 N2        -0.7317    0.7268    9.7697 N.pl3     1 RES1    0.0000
     22 C13        0.0384   -0.4087   10.1330 C.ar      1 RES1    0.0000
     23 C14        0.9244   -0.3190   11.2097 C.ar      1 RES1    0.0000
     24 H8         1.0051    0.4790   11.6794 H         1 RES1    0.0000
     25 C15        1.6899   -1.4316   11.5805 C.ar      1 RES1    0.0000
     26 H9         2.2819   -1.3641   12.2936 H         1 RES1    0.0000
     27 C16        1.5771   -2.6316   10.8969 C.ar      1 RES1    0.0000
     28 H10        2.0838   -3.3699   11.1487 H         1 RES1    0.0000
     29 C17        0.6979   -2.7098    9.8376 C.ar      1 RES1    0.0000
     30 H11        0.6027   -3.5142    9.3806 H         1 RES1    0.0000
     31 C18       -0.0438   -1.6117    9.4431 C.ar      1 RES1    0.0000
     32 H12       -0.6066   -1.6790    8.7054 H         1 RES1    0.0000
     33 C19       -1.8857    0.5197    8.9429 C.ar      1 RES1    0.0000
     34 C20       -2.9123   -0.3228    9.3738 C.ar      1 RES1    0.0000
     35 H13       -2.8754   -0.7052   10.2206 H         1 RES1    0.0000
     36 C21       -3.9826   -0.5888    8.5403 C.ar      1 RES1    0.0000
     37 H14       -4.6613   -1.1551    8.8296 H         1 RES1    0.0000
     38 C22       -4.0555   -0.0172    7.2768 C.ar      1 RES1    0.0000
     39 H15       -4.7711   -0.2077    6.7136 H         1 RES1    0.0000
     40 C23       -3.0643    0.8243    6.8713 C.ar      1 RES1    0.0000
     41 H16       -3.1165    1.2265    6.0339 H         1 RES1    0.0000
     42 C24       -1.9779    1.0905    7.6932 C.ar      1 RES1    0.0000
     43 H17       -1.3053    1.6605    7.3979 H         1 RES1    0.0000
     44 C25        5.0767    8.1267    7.3812 C.ar      1 RES1    0.0000
     45 C26        4.7696    9.4311    6.9600 C.ar      1 RES1    0.0000
     46 H18        3.8966    9.7407    7.0456 H         1 RES1    0.0000
     47 C27        5.7324   10.2646    6.4230 C.ar      1 RES1    0.0000
     48 H19        5.5166   11.1259    6.1491 H         1 RES1    0.0000
     49 C28        7.0192    9.7879    6.3040 C.ar      1 RES1    0.0000
     50 C29        7.3763    8.5089    6.7035 C.ar      1 RES1    0.0000
     51 H20        8.2508    8.2085    6.6075 H         1 RES1    0.0000
     52 C30        6.4058    7.6913    7.2466 C.ar      1 RES1    0.0000
     53 H21        6.6361    6.8351    7.5288 H         1 RES1    0.0000
     54 N3         8.0719   10.6709    5.7692 N.pl3     1 RES1    0.0000
     55 O1         9.2136   10.2834    5.7266 O.2       1 RES1    0.0000
     56 O2         7.7271   11.7729    5.3946 O.2       1 RES1    0.0000
@<TRIPOS>BOND
     1    1    2 1
     2    3    1 1
     3    4    3 ar
     4    5    4 1
     5    6    4 ar
     6    7    6 ar
     7    8    7 1
     8    9    7 ar
     9   10    9 1
    10   11    3 ar
    11   12   11 1
    12   13   12 ar
    13   14   13 1
    14   15   13 ar
    15   16   15 1
    16   17   15 ar
    17   18   17 ar
    18   19   18 1
    19   20    1 1
    20   21    6 1
    21   22   21 1
    22   23   22 ar
    23   24   23 1
    24   25   23 ar
    25   26   25 1
    26   27   25 ar
    27   28   27 1
    28   29   27 ar
    29   30   29 1
    30   31   22 ar
    31   32   31 1
    32   33   21 1
    33   34   33 ar
    34   35   34 1
    35   36   34 ar
    36   37   36 1
    37   38   36 ar
    38   39   38 1
    39   40   38 ar
    40   41   40 1
    41   42   33 ar
    42   43   42 1
    43   44   17 1
    44   45   44 ar
    45   46   45 1
    46   47   45 ar
    47   48   47 1
    48   49   47 ar
    49   50   49 ar
    50   51   50 1
    51   52   44 ar
    52   53   52 1
    53   54   49 1
    54   55   54 2
    55   56   54 2
    56    9   11 ar
    57   12   20 ar
    58   18   20 ar
    59   29   31 ar
    60   40   42 ar
    61   50   52 ar
@<TRIPOS>SUBSTRUCTURE
     1 RES1 1

@<TRIPOS>CRYSIN
   7.6780   13.2310   22.5820  90.0000  90.0000  90.0000  19 1

