# MOL2 file generated by ConQuest
# Please check atom types

@<TRIPOS>MOLECULE
HEHZOM
    66    72     1
SMALL
NO_CHARGES
****
Generated from CSD

@<TRIPOS>ATOM
      1 O1        -0.8132    4.3222    3.3916 O.3       1 RES1    0.0000
      2 O2         1.6048    7.6695    3.1913 O.2       1 RES1    0.0000
      3 O3        -0.4423    4.1295    6.3955 O.2       1 RES1    0.0000
      4 N1        -0.6265    7.8695    9.7762 N.pl3     1 RES1    0.0000
      5 N2        -1.9461    8.2025    8.1094 N.2       1 RES1    0.0000
      6 N3        -1.1988    8.8246    8.9926 N.2       1 RES1    0.0000
      7 N4        -1.9681    5.8423    6.0813 N.am      1 RES1    0.0000
      8 N5         0.2672    4.1241    2.4780 N.2       1 RES1    0.0000
      9 C1        -0.4762    5.4352    4.2922 C.3       1 RES1    0.0000
     10 C2         2.5759    4.7793    2.1439 C.ar      1 RES1    0.0000
     11 C3         1.9770    7.5765    5.5335 C.ar      1 RES1    0.0000
     12 C4         2.6847    4.3246    0.8159 C.ar      1 RES1    0.0000
     13 H1         1.9089    4.0289    0.3536 H         1 RES1    0.0000
     14 C5        -1.3456    6.6388    3.9941 C.ar      1 RES1    0.0000
     15 C6         1.0614    5.5480    4.1722 C.3       1 RES1    0.0000
     16 H2         1.4888    5.0284    4.9122 H         1 RES1    0.0000
     17 C7        -1.0160    6.6251    9.3831 C.2       1 RES1    0.0000
     18 H3        -0.7642    5.7910    9.7622 H         1 RES1    0.0000
     19 C8         2.4915    7.3880    7.8918 C.ar      1 RES1    0.0000
     20 H4         2.5320    6.8741    8.6893 H         1 RES1    0.0000
     21 C9         0.2436    8.2498   10.8489 C.ar      1 RES1    0.0000
     22 C10       -0.9366    5.0224    5.7212 C.2       1 RES1    0.0000
     23 C11        0.2724    7.4708   12.0119 C.ar      1 RES1    0.0000
     24 H5        -0.2647    6.6908   12.0860 H         1 RES1    0.0000
     25 C12        1.2826    4.8183    2.8566 C.2       1 RES1    0.0000
     26 C13        5.0891    4.7152    0.8374 C.ar      1 RES1    0.0000
     27 C14        1.8616    9.7651   11.7694 C.ar      1 RES1    0.0000
     28 H6         2.4115   10.5354   11.6910 H         1 RES1    0.0000
     29 C15        2.0329    6.8085    6.7100 C.ar      1 RES1    0.0000
     30 H7         1.7594    5.8988    6.6995 H         1 RES1    0.0000
     31 C16       -2.2366    6.8102    5.0637 C.ar      1 RES1    0.0000
     32 C17        3.7394    5.1849    2.8095 C.ar      1 RES1    0.0000
     33 H8         3.6865    5.4975    3.7052 H         1 RES1    0.0000
     34 C18        2.3563    8.9358    5.5597 C.ar      1 RES1    0.0000
     35 H9         2.2995    9.4607    4.7695 H         1 RES1    0.0000
     36 C19        1.9007    9.0052   12.9377 C.ar      1 RES1    0.0000
     37 H10        2.4695    9.2635   13.6539 H         1 RES1    0.0000
     38 C20        2.8138    9.5057    6.7429 C.ar      1 RES1    0.0000
     39 H11        3.0719   10.4199    6.7642 H         1 RES1    0.0000
     40 C21        1.1023    7.8612   13.0561 C.ar      1 RES1    0.0000
     41 H12        1.1278    7.3484   13.8551 H         1 RES1    0.0000
     42 C22       -1.4478    7.4474    2.8611 C.ar      1 RES1    0.0000
     43 H13       -0.8449    7.3445    2.1348 H         1 RES1    0.0000
     44 C23        2.8924    8.7274    7.9013 C.ar      1 RES1    0.0000
     45 H14        3.2214    9.1128    8.7051 H         1 RES1    0.0000
     46 C24        1.5668    7.0035    4.2165 C.2       1 RES1    0.0000
     47 C25       -3.3430    8.5715    3.8940 C.ar      1 RES1    0.0000
     48 H15       -4.0243    9.2322    3.8442 H         1 RES1    0.0000
     49 C26       -2.4603    8.4146    2.8201 C.ar      1 RES1    0.0000
     50 H16       -2.5481    8.9703    2.0544 H         1 RES1    0.0000
     51 C27        1.0264    9.4069   10.7196 C.ar      1 RES1    0.0000
     52 H17        0.9863    9.9343    9.9304 H         1 RES1    0.0000
     53 C28        3.9252    4.3059    0.1742 C.ar      1 RES1    0.0000
     54 H18        3.9807    4.0099   -0.7266 H         1 RES1    0.0000
     55 C29        4.9710    5.1334    2.1687 C.ar      1 RES1    0.0000
     56 H19        5.7523    5.3885    2.6457 H         1 RES1    0.0000
     57 C30       -1.8515    6.8441    8.3201 C.2       1 RES1    0.0000
     58 C31       -3.2417    7.7711    5.0461 C.ar      1 RES1    0.0000
     59 H20       -3.8342    7.8819    5.7803 H         1 RES1    0.0000
     60 C32       -2.5535    5.8510    7.4340 C.3       1 RES1    0.0000
     61 H21       -2.4799    4.9470    7.8297 H         1 RES1    0.0000
     62 H22       -3.5140    6.0838    7.3750 H         1 RES1    0.0000
     63 C33        6.4406    4.7576    0.1585 C.3       1 RES1    0.0000
     64 H23        6.3757    4.3394   -0.7254 H         1 RES1    0.0000
     65 H24        7.0949    4.2713    0.7023 H         1 RES1    0.0000
     66 H25        6.7270    5.6891    0.0585 H         1 RES1    0.0000
@<TRIPOS>BOND
     1    1    8 1
     2    2   46 2
     3    3   22 2
     4    4    6 1
     5    5    6 2
     6    7   22 1
     7    8   25 2
     8    9    1 1
     9   10   12 ar
    10   11   29 ar
    11   12   13 1
    12   14    9 1
    13   15    9 1
    14   16   15 1
    15   17    4 1
    16   18   17 1
    17   19   20 1
    18   21    4 1
    19   22    9 1
    20   23   21 ar
    21   24   23 1
    22   25   10 1
    23   26   53 ar
    24   27   28 1
    25   29   19 ar
    26   30   29 1
    27   31    7 1
    28   32   10 ar
    29   33   32 1
    30   34   11 ar
    31   35   34 1
    32   36   27 ar
    33   37   36 1
    34   38   34 ar
    35   39   38 1
    36   40   23 ar
    37   41   40 1
    38   42   14 ar
    39   43   42 1
    40   44   19 ar
    41   45   44 1
    42   46   11 1
    43   47   48 1
    44   49   42 ar
    45   50   49 1
    46   51   21 ar
    47   52   51 1
    48   53   12 ar
    49   54   53 1
    50   55   26 ar
    51   56   55 1
    52   57    5 1
    53   58   31 ar
    54   59   58 1
    55   60    7 1
    56   61   60 1
    57   62   60 1
    58   63   26 1
    59   64   63 1
    60   65   63 1
    61   66   63 1
    62   14   31 ar
    63   15   25 1
    64   15   46 1
    65   17   57 2
    66   27   51 ar
    67   32   55 ar
    68   36   40 ar
    69   38   44 ar
    70   47   49 ar
    71   47   58 ar
    72   57   60 1
@<TRIPOS>SUBSTRUCTURE
     1 RES1 1

@<TRIPOS>CRYSIN
   8.9740   12.1500   13.5720 104.7490 109.2330  96.0130   2 1

