# MOL2 file generated by ConQuest
# Please check atom types

@<TRIPOS>MOLECULE
HEJLEQ
    45    47     1
SMALL
NO_CHARGES
****
Generated from CSD

@<TRIPOS>ATOM
      1 N1         2.9085    5.2393   11.4686 N.pl3     1 RES1    0.0000
      2 O1         5.1748    7.7850    5.3492 O.2       1 RES1    0.0000
      3 O2         2.1335    9.9056    4.2065 O.2       1 RES1    0.0000
      4 O3         2.2906    5.6275   12.4370 O.2       1 RES1    0.0000
      5 O4         3.7065    4.3283   11.5199 O.2       1 RES1    0.0000
      6 C1         4.3160    8.2964    6.0387 C.2       1 RES1    0.0000
      7 C2         2.8668    8.1938    5.6377 C.2       1 RES1    0.0000
      8 C3         2.5352    8.7637    4.2801 C.2       1 RES1    0.0000
      9 C4         1.9051    7.6986    6.4249 C.2       1 RES1    0.0000
     10 C5         0.4552    7.7017    6.0169 C.3       1 RES1    0.0000
     11 H1         0.0133    8.4567    6.4118 H         1 RES1    0.0000
     12 H2         0.0366    6.8918    6.3176 H         1 RES1    0.0000
     13 H3         0.3923    7.7584    5.0606 H         1 RES1    0.0000
     14 C6         4.6605    9.0699    7.2606 C.ar      1 RES1    0.0000
     15 C7         3.7676    9.9618    7.8337 C.ar      1 RES1    0.0000
     16 H4         2.9257   10.0843    7.4575 H         1 RES1    0.0000
     17 C8         4.1307   10.6718    8.9675 C.ar      1 RES1    0.0000
     18 H5         3.5376   11.2836    9.3400 H         1 RES1    0.0000
     19 C9         5.3611   10.4753    9.5435 C.ar      1 RES1    0.0000
     20 H6         5.5943   10.9416   10.3133 H         1 RES1    0.0000
     21 C10        6.2472    9.5918    8.9820 C.ar      1 RES1    0.0000
     22 H7         7.0802    9.4587    9.3750 H         1 RES1    0.0000
     23 C11        5.9085    8.9013    7.8372 C.ar      1 RES1    0.0000
     24 H8         6.5217    8.3183    7.4503 H         1 RES1    0.0000
     25 C12        2.6957    7.9123    3.0766 C.ar      1 RES1    0.0000
     26 C13        2.4026    8.4519    1.8342 C.ar      1 RES1    0.0000
     27 H9         2.0984    9.3284    1.7666 H         1 RES1    0.0000
     28 C14        2.5632    7.6903    0.7018 C.ar      1 RES1    0.0000
     29 H10        2.3683    8.0564   -0.1304 H         1 RES1    0.0000
     30 C15        3.0059    6.3993    0.7862 C.ar      1 RES1    0.0000
     31 H11        3.1094    5.8922    0.0133 H         1 RES1    0.0000
     32 C16        3.2986    5.8546    2.0070 C.ar      1 RES1    0.0000
     33 H12        3.6027    4.9774    2.0636 H         1 RES1    0.0000
     34 C17        3.1430    6.6055    3.1550 C.ar      1 RES1    0.0000
     35 H13        3.3405    6.2315    3.9835 H         1 RES1    0.0000
     36 C18        2.2010    7.0944    7.7483 C.ar      1 RES1    0.0000
     37 C19        1.4605    7.4500    8.8718 C.ar      1 RES1    0.0000
     38 H14        0.7950    8.0942    8.7966 H         1 RES1    0.0000
     39 C20        1.6993    6.8622   10.0871 C.ar      1 RES1    0.0000
     40 H15        1.2135    7.1143   10.8385 H         1 RES1    0.0000
     41 C21        2.6722    5.8907   10.1733 C.ar      1 RES1    0.0000
     42 C22        3.4212    5.5027    9.0863 C.ar      1 RES1    0.0000
     43 H16        4.0739    4.8456    9.1661 H         1 RES1    0.0000
     44 C23        3.1771    6.1149    7.8775 C.ar      1 RES1    0.0000
     45 H17        3.6764    5.8676    7.1327 H         1 RES1    0.0000
@<TRIPOS>BOND
     1    1    4 2
     2    2    6 2
     3    3    8 2
     4    5    1 2
     5    6    7 1
     6    7    8 1
     7    8   25 1
     8    9    7 2
     9   10    9 1
    10   11   10 1
    11   12   10 1
    12   13   10 1
    13   14    6 1
    14   15   14 ar
    15   16   15 1
    16   17   15 ar
    17   18   17 1
    18   19   17 ar
    19   20   19 1
    20   21   19 ar
    21   22   21 1
    22   23   14 ar
    23   24   23 1
    24   25   26 ar
    25   26   27 1
    26   28   26 ar
    27   29   28 1
    28   30   28 ar
    29   31   30 1
    30   32   30 ar
    31   33   32 1
    32   34   25 ar
    33   35   34 1
    34   36    9 1
    35   37   36 ar
    36   38   37 1
    37   39   37 ar
    38   40   39 1
    39   41    1 1
    40   42   41 ar
    41   43   42 1
    42   44   36 ar
    43   45   44 1
    44   21   23 ar
    45   32   34 ar
    46   39   41 ar
    47   42   44 ar
@<TRIPOS>SUBSTRUCTURE
     1 RES1 1

@<TRIPOS>CRYSIN
   8.8259    8.9629   12.3910  77.0410  88.0490  83.2860   2 1

