# MOL2 file generated by ConQuest
# Please check atom types

@<TRIPOS>MOLECULE
HEJMOB
    32    31     2
SMALL
NO_CHARGES
****
Generated from CSD

@<TRIPOS>ATOM
      1 N1         1.8503   10.9372    5.8546 N.pl3     1 RES1    0.0000
      2 O1         6.1985    5.0715    9.2413 O.3       1 RES1    0.0000
      3 H1         5.8859    5.0614    9.9990 H         1 RES1    0.0000
      4 O2         5.3022    5.8804   11.3674 O.2       1 RES1    0.0000
      5 O3         2.1340   11.8157    5.0653 O.2       1 RES1    0.0000
      6 O4         0.7345   10.4697    5.9656 O.2       1 RES1    0.0000
      7 C1         6.8470    6.4683    7.4647 C.3       1 RES1    0.0000
      8 H2         7.8045    6.4237    7.5158 H         1 RES1    0.0000
      9 H3         6.5842    7.3213    7.1130 H         1 RES1    0.0000
     10 H4         6.5252    5.7708    6.8877 H         1 RES1    0.0000
     11 C2         6.2707    6.2937    8.8211 C.2       1 RES1    0.0000
     12 C3         5.8718    7.3615    9.6278 C.2       1 RES1    0.0000
     13 C4         5.3836    7.1043   10.9156 C.2       1 RES1    0.0000
     14 C5         4.9462    8.1566   11.8409 C.3       1 RES1    0.0000
     15 H5         4.4775    7.7595   12.5790 H         1 RES1    0.0000
     16 H6         4.3631    8.7650   11.3815 H         1 RES1    0.0000
     17 H7         5.7124    8.6341   12.1686 H         1 RES1    0.0000
     18 C6         7.0429    9.4910    9.4917 C.2       1 RES1    0.0000
     19 H8         7.1182   10.3707    9.2010 H         1 RES1    0.0000
     20 H9         7.6980    9.1255   10.0414 H         1 RES1    0.0000
     21 C7         6.0047    8.7588    9.1248 C.2       1 RES1    0.0000
     22 C8         4.9461    9.3079    8.2528 C.ar      1 RES1    0.0000
     23 C9         3.6669    8.7751    8.2670 C.ar      1 RES1    0.0000
     24 H10        3.4854    8.0454    8.8146 H         1 RES1    0.0000
     25 C10        2.6580    9.3000    7.4919 C.ar      1 RES1    0.0000
     26 H11        1.8023    8.9371    7.5213 H         1 RES1    0.0000
     27 C11        2.9328   10.3632    6.6776 C.ar      1 RES1    0.0000
     28 C12        4.1902   10.9081    6.6079 C.ar      1 RES1    0.0000
     29 H12        4.3651   11.6231    6.0397 H         1 RES1    0.0000
     30 C13        5.1885   10.3793    7.3939 C.ar      1 RES1    0.0000
     31 H13        6.0427   10.7446    7.3504 H         1 RES1    0.0000
     32 H14        5.6035    5.3620   10.8078 Du        2 SUP2    0.0000
@<TRIPOS>BOND
     1    1    5 2
     2    2    3 1
     3    4   13 2
     4    6    1 2
     5    7    8 1
     6    9    7 1
     7   10    7 1
     8   11    2 1
     9   12   11 2
    10   13   12 1
    11   14   13 1
    12   15   14 1
    13   16   14 1
    14   17   14 1
    15   18   19 1
    16   20   18 1
    17   21   12 1
    18   22   21 1
    19   23   22 ar
    20   24   23 1
    21   25   23 ar
    22   26   25 1
    23   27    1 1
    24   28   27 ar
    25   29   28 1
    26   30   22 ar
    27   31   30 1
    28    7   11 1
    29   18   21 2
    30   25   27 ar
    31   28   30 ar
@<TRIPOS>SUBSTRUCTURE
     1 RES1 1
     2 SUP2 32

@<TRIPOS>CRYSIN
   7.4586    7.9601   11.5382  75.7480  75.0310  80.8150   2 1

