# MOL2 file generated by ConQuest
# Please check atom types

@<TRIPOS>MOLECULE
HEJNAN
    98    98     2
SMALL
NO_CHARGES
****
Generated from CSD

@<TRIPOS>ATOM
      1 O1         2.5171    2.8967   11.1445 O.2       1 RES1    0.0000
      2 O2         6.0698    8.5438   12.7413 O.2       1 RES1    0.0000
      3 O3         7.1631    7.4813   14.2535 O.2       1 RES1    0.0000
      4 O4         0.5245    2.2288   13.9021 O.2       1 RES1    0.0000
      5 N1         3.1313    1.9096   13.0715 N.am      1 RES1    0.0000
      6 H1         3.4756    1.9226   13.8365 H         1 RES1    0.0000
      7 N2         6.3516    7.5141   13.3511 N.pl3     1 RES1    0.0000
      8 N3        -0.2242    1.0173   12.1567 N.am      1 RES1    0.0000
      9 C1         3.2005    2.9076   12.1717 C.2       1 RES1    0.0000
     10 C2         4.1201    4.0526   12.4677 C.ar      1 RES1    0.0000
     11 C3         3.9351    5.2131   11.7283 C.ar      1 RES1    0.0000
     12 H2         3.2874    5.2290   11.0323 H         1 RES1    0.0000
     13 C4         4.6806    6.3469   11.9919 C.ar      1 RES1    0.0000
     14 H3         4.5426    7.1458   11.4956 H         1 RES1    0.0000
     15 C5         5.6313    6.2919   12.9949 C.ar      1 RES1    0.0000
     16 C6         5.8880    5.1401   13.6808 C.ar      1 RES1    0.0000
     17 H4         6.5904    5.1108   14.3183 H         1 RES1    0.0000
     18 C7         5.1233    4.0210   13.4424 C.ar      1 RES1    0.0000
     19 H5         5.2778    3.2270   13.9390 H         1 RES1    0.0000
     20 C8         2.1645    0.8437   12.8536 C.3       1 RES1    0.0000
     21 H6         2.2799    0.4884   11.9261 H         1 RES1    0.0000
     22 C9         0.7569    1.4125   12.9906 C.2       1 RES1    0.0000
     23 C10       -1.5711    1.5389   12.3559 C.3       1 RES1    0.0000
     24 H7        -1.7347    1.6707   13.3241 H         1 RES1    0.0000
     25 H8        -2.2327    0.8838   12.0183 H         1 RES1    0.0000
     26 C11       -1.7553    2.8645   11.6247 C.3       1 RES1    0.0000
     27 H9        -2.6650    3.1979   11.7744 H         1 RES1    0.0000
     28 H10       -1.6091    2.7308   10.6654 H         1 RES1    0.0000
     29 H11       -1.1078    3.5177   11.9650 H         1 RES1    0.0000
     30 C12       -0.0347    0.1512   10.9678 C.3       1 RES1    0.0000
     31 H12        0.8922    0.2597   10.6388 H         1 RES1    0.0000
     32 H13       -0.6458    0.4516   10.2513 H         1 RES1    0.0000
     33 C13       -0.2854   -1.3063   11.2439 C.3       1 RES1    0.0000
     34 H14       -0.1454   -1.8218   10.4235 H         1 RES1    0.0000
     35 H15       -1.2078   -1.4245   11.5530 H         1 RES1    0.0000
     36 H16        0.3330   -1.6183   11.9363 H         1 RES1    0.0000
     37 C14        2.3830   -0.2994   13.8495 C.3       1 RES1    0.0000
     38 H17        2.3847    0.0736   14.7672 H         1 RES1    0.0000
     39 H18        1.6219   -0.9303   13.7832 H         1 RES1    0.0000
     40 C15        3.6779   -1.0675   13.6303 C.3       1 RES1    0.0000
     41 H19        4.4180   -0.3993   13.5496 H         1 RES1    0.0000
     42 C16        3.6649   -1.8955   12.3684 C.3       1 RES1    0.0000
     43 H20        3.4717   -1.3179   11.6001 H         1 RES1    0.0000
     44 H21        2.9753   -2.5874   12.4385 H         1 RES1    0.0000
     45 H22        4.5415   -2.3180   12.2459 H         1 RES1    0.0000
     46 C17        3.9795   -1.9517   14.8328 C.3       1 RES1    0.0000
     47 H23        3.9853   -1.4051   15.6466 H         1 RES1    0.0000
     48 H24        4.8544   -2.3742   14.7180 H         1 RES1    0.0000
     49 H25        3.2901   -2.6436   14.9107 H         1 RES1    0.0000
     50 O5         2.5848    5.8372   16.8207 O.2       2 RES2    0.0000
     51 O6         1.5197    9.3460   11.0182 O.2       2 RES2    0.0000
     52 O7        -0.0175    7.9267   10.4713 O.2       2 RES2    0.0000
     53 O8         3.9216    1.9966   15.8370 O.2       2 RES2    0.0000
     54 N4         1.9527    3.9097   15.8450 N.am      2 RES2    0.0000
     55 H26        1.3132    3.4111   15.1485 H         2 RES2    0.0000
     56 N5         0.8832    8.3079   11.1996 N.pl3     2 RES2    0.0000
     57 N6         4.1368    2.0245   18.0802 N.am      2 RES2    0.0000
     58 C18        2.1670    5.2273   15.8483 C.2       2 RES2    0.0000
     59 C19        1.8374    5.9822   14.5792 C.ar      2 RES2    0.0000
     60 C20        2.3762    7.2427   14.4357 C.ar      2 RES2    0.0000
     61 H27        2.9556    7.5877   15.1054 H         2 RES2    0.0000
     62 C21        2.0795    8.0135   13.3190 C.ar      2 RES2    0.0000
     63 H28        2.4512    8.8824   13.2113 H         2 RES2    0.0000
     64 C22        1.2288    7.4811   12.3666 C.ar      2 RES2    0.0000
     65 C23        0.6831    6.2349   12.4836 C.ar      2 RES2    0.0000
     66 H29        0.0964    5.8996   11.8154 H         2 RES2    0.0000
     67 C24        0.9994    5.4721   13.5916 C.ar      2 RES2    0.0000
     68 H30        0.6442    4.5953   13.6787 H         2 RES2    0.0000
     69 C25        2.1695    3.1188   17.0485 C.3       2 RES2    0.0000
     70 H31        2.2092    3.7328   17.8358 H         2 RES2    0.0000
     71 C26        3.4883    2.3622   16.9470 C.2       2 RES2    0.0000
     72 C27        3.7043    2.4856   19.4251 C.3       2 RES2    0.0000
     73 H32        3.9572    1.8063   20.0989 H         2 RES2    0.0000
     74 H33        2.7178    2.5757   19.4368 H         2 RES2    0.0000
     75 C28        4.3294    3.8161   19.7963 C.3       2 RES2    0.0000
     76 H34        4.0112    4.0914   20.6810 H         2 RES2    0.0000
     77 H35        4.0779    4.4925   19.1334 H         2 RES2    0.0000
     78 H36        5.3054    3.7231   19.8139 H         2 RES2    0.0000
     79 C29        5.2905    1.1538   18.0279 C.3       2 RES2    0.0000
     80 H37        5.9749    1.4885   18.6599 H         2 RES2    0.0000
     81 H38        5.6782    1.1881   17.1184 H         2 RES2    0.0000
     82 C30        4.9635   -0.2868   18.3708 C.3       2 RES2    0.0000
     83 H39        5.7808   -0.8256   18.3237 H         2 RES2    0.0000
     84 H40        4.3058   -0.6318   17.7333 H         2 RES2    0.0000
     85 H41        4.5944   -0.3295   19.2769 H         2 RES2    0.0000
     86 C31        1.0093    2.1480   17.2379 C.3       2 RES2    0.0000
     87 H42        0.9624    1.5582   16.4440 H         2 RES2    0.0000
     88 H43        1.2070    1.5757   18.0203 H         2 RES2    0.0000
     89 C32       -0.3415    2.7754   17.4402 C.3       2 RES2    0.0000
     90 H44       -0.5033    3.4033   16.6776 H         2 RES2    0.0000
     91 C33       -0.3910    3.5913   18.7316 C.3       2 RES2    0.0000
     92 H45        0.3251    4.2600   18.7234 H         2 RES2    0.0000
     93 H46       -0.2730    2.9944   19.5003 H         2 RES2    0.0000
     94 H47       -1.2592    4.0429   18.7993 H         2 RES2    0.0000
     95 C34       -1.4445    1.7191   17.4135 C.3       2 RES2    0.0000
     96 H48       -1.3914    1.2113   16.5772 H         2 RES2    0.0000
     97 H49       -2.3190    2.1591   17.4750 H         2 RES2    0.0000
     98 H50       -1.3324    1.1105   18.1740 H         2 RES2    0.0000
@<TRIPOS>BOND
     1    1    9 2
     2    2    7 2
     3    3    7 2
     4    4   22 2
     5    5    6 1
     6    7   15 1
     7    8   22 1
     8    9    5 1
     9   10    9 1
    10   11   10 ar
    11   12   11 1
    12   13   11 ar
    13   14   13 1
    14   15   13 ar
    15   16   15 ar
    16   17   16 1
    17   18   10 ar
    18   19   18 1
    19   20    5 1
    20   21   20 1
    21   22   20 1
    22   23    8 1
    23   24   23 1
    24   25   23 1
    25   26   23 1
    26   27   26 1
    27   28   26 1
    28   29   26 1
    29   30    8 1
    30   31   30 1
    31   32   30 1
    32   33   30 1
    33   34   33 1
    34   35   33 1
    35   36   33 1
    36   37   20 1
    37   38   37 1
    38   39   37 1
    39   40   37 1
    40   41   40 1
    41   42   40 1
    42   43   42 1
    43   44   42 1
    44   45   42 1
    45   46   40 1
    46   47   46 1
    47   48   46 1
    48   49   46 1
    49   50   58 2
    50   51   56 2
    51   52   56 2
    52   53   71 2
    53   54   55 1
    54   56   64 1
    55   57   71 1
    56   58   54 1
    57   59   58 1
    58   60   59 ar
    59   61   60 1
    60   62   60 ar
    61   63   62 1
    62   64   62 ar
    63   65   64 ar
    64   66   65 1
    65   67   59 ar
    66   68   67 1
    67   69   54 1
    68   70   69 1
    69   71   69 1
    70   72   57 1
    71   73   72 1
    72   74   72 1
    73   75   72 1
    74   76   75 1
    75   77   75 1
    76   78   75 1
    77   79   57 1
    78   80   79 1
    79   81   79 1
    80   82   79 1
    81   83   82 1
    82   84   82 1
    83   85   82 1
    84   86   69 1
    85   87   86 1
    86   88   86 1
    87   89   86 1
    88   90   89 1
    89   91   89 1
    90   92   91 1
    91   93   91 1
    92   94   91 1
    93   95   89 1
    94   96   95 1
    95   97   95 1
    96   98   95 1
    97   16   18 ar
    98   65   67 ar
@<TRIPOS>SUBSTRUCTURE
     1 RES1 1
     2 RES2 50

@<TRIPOS>CRYSIN
  19.2534   19.3811   21.0097  90.0000 102.6640  90.0000  15 1

