# MOL2 file generated by ConQuest
# Please check atom types

@<TRIPOS>MOLECULE
HEJPIX
    64    49     2
SMALL
NO_CHARGES
****
Generated from CSD

@<TRIPOS>ATOM
      1 O1        11.9755   -4.5619   12.1570 O.2       1 RES1    0.0000
      2 O2        10.4036   -4.2743   10.7055 O.2       1 RES1    0.0000
      3 O3         7.3435   -2.8372   10.6774 O.2       1 RES1    0.0000
      4 O4         8.2466    0.9591   11.0480 O.2       1 RES1    0.0000
      5 N1        10.8451   -4.1995   11.8436 N.pl3     1 RES1    0.0000
      6 N2         9.2200   -1.5747   10.7486 N.am      1 RES1    0.0000
      7 H1         9.9259   -1.3335   11.2259 H         1 RES1    0.0000
      8 C1         9.9503   -3.7067   12.9019 C.ar      1 RES1    0.0000
      9 C2        10.3006   -3.9953   14.2096 C.ar      1 RES1    0.0000
     10 H2        11.1323   -4.4108   14.4054 H         1 RES1    0.0000
     11 C3         9.4242   -3.6707   15.2226 C.ar      1 RES1    0.0000
     12 H3         9.6569   -3.8492   16.1264 H         1 RES1    0.0000
     13 C4         8.2113   -3.0886   14.9281 C.ar      1 RES1    0.0000
     14 H4         7.5907   -2.9040   15.6236 H         1 RES1    0.0000
     15 C5         7.8970   -2.7721   13.6159 C.ar      1 RES1    0.0000
     16 H5         7.0666   -2.3513   13.4253 H         1 RES1    0.0000
     17 C6         8.7698   -3.0567   12.5707 C.ar      1 RES1    0.0000
     18 C7         8.3926   -2.5075   11.2200 C.2       1 RES1    0.0000
     19 C8         8.9157   -0.7924    9.5675 C.3       1 RES1    0.0000
     20 H6         8.4292   -1.3586    8.9022 H         1 RES1    0.0000
     21 C9         8.0453    0.3993    9.9696 C.2       1 RES1    0.0000
     22 N3         7.2857    0.9216    8.9742 N.am      1 RES1    0.0000
     23 C10        6.4560    2.0743    9.3876 C.3       1 RES1    0.0000
     24 H7         6.1180    2.5380    8.5794 H         1 RES1    0.0000
     25 H8         7.0168    2.7143    9.8928 H         1 RES1    0.0000
     26 C11        5.2803    1.6535   10.2493 C.3       1 RES1    0.0000
     27 H9         4.7584    2.4432   10.4989 H         1 RES1    0.0000
     28 H10        5.6110    1.2090   11.0575 H         1 RES1    0.0000
     29 H11        4.7122    1.0327    9.7453 H         1 RES1    0.0000
     30 C12        6.4779    0.1022    8.0673 C.3       1 RES1    0.0000
     31 H12        5.5067    0.2771    8.1451 H         1 RES1    0.0000
     32 H13        6.6638   -0.8667    8.1497 H         1 RES1    0.0000
     33 C13        7.0892    0.7156    6.8433 C.3       1 RES1    0.0000
     34 H14        6.7011    0.3037    6.0432 H         1 RES1    0.0000
     35 H15        8.0582    0.5630    6.8503 H         1 RES1    0.0000
     36 H16        6.9098    1.6787    6.8363 H         1 RES1    0.0000
     37 C14       10.2289   -0.2905    8.9600 C.3       1 RES1    0.0000
     38 H17       10.0141    0.3660    8.2507 H         1 RES1    0.0000
     39 H18       10.7366    0.1882    9.6628 H         1 RES1    0.0000
     40 C15       11.1276   -1.3640    8.3655 C.3       1 RES1    0.0000
     41 H19       11.1898   -2.1143    9.0230 H         1 RES1    0.0000
     42 C16       10.5613   -1.9226    7.0668 C.3       1 RES1    0.0000
     43 H20        9.6669   -2.2876    7.2312 H         1 RES1    0.0000
     44 H21       11.1481   -2.6328    6.7341 H         1 RES1    0.0000
     45 H22       10.5047   -1.2060    6.4009 H         1 RES1    0.0000
     46 C17       12.5292   -0.8072    8.1511 C.3       1 RES1    0.0000
     47 H23       12.8757   -0.4593    8.9997 H         1 RES1    0.0000
     48 H24       12.4957   -0.0845    7.4913 H         1 RES1    0.0000
     49 H25       13.1173   -1.5201    7.8257 H         1 RES1    0.0000
     50 C18        6.1093    1.8876    9.7488 Du        2 SUP2    0.0000
     51 C19        5.0410    1.4105   10.7347 Du        2 SUP2    0.0000
     52 C20        7.1937    0.5408    7.5656 Du        2 SUP2    0.0000
     53 C21        5.8219    0.0902    7.1580 Du        2 SUP2    0.0000
     54 H26        5.6747    2.3128    8.9684 Du        2 SUP2    0.0000
     55 H27        6.6874    2.5617   10.1854 Du        2 SUP2    0.0000
     56 H28        4.5047    2.1765   11.0296 Du        2 SUP2    0.0000
     57 H29        5.4737    0.9971   11.5104 Du        2 SUP2    0.0000
     58 H30        4.4610    0.7541   10.2957 Du        2 SUP2    0.0000
     59 H31        7.4534    1.3853    7.1197 Du        2 SUP2    0.0000
     60 H32        7.8781   -0.1526    7.3879 Du        2 SUP2    0.0000
     61 H33        5.8111   -0.0948    6.1953 Du        2 SUP2    0.0000
     62 H34        5.1719    0.7956    7.3624 Du        2 SUP2    0.0000
     63 H35        5.5854   -0.7245    7.6504 Du        2 SUP2    0.0000
     64 N4         6.9184    0.7675    9.3063 Du        2 SUP2    0.0000
@<TRIPOS>BOND
     1    1    5 2
     2    2    5 2
     3    3   18 2
     4    4   21 2
     5    5    8 1
     6    6    7 1
     7    8    9 ar
     8    9   10 1
     9   11    9 ar
    10   12   11 1
    11   13   11 ar
    12   14   13 1
    13   15   13 ar
    14   16   15 1
    15   17    8 ar
    16   18    6 1
    17   19    6 1
    18   20   19 1
    19   21   19 1
    20   22   21 1
    21   23   22 1
    22   24   23 1
    23   25   23 1
    24   26   23 1
    25   27   26 1
    26   28   26 1
    27   29   26 1
    28   30   22 1
    29   31   30 1
    30   32   30 1
    31   33   30 1
    32   34   33 1
    33   35   33 1
    34   36   33 1
    35   37   19 1
    36   38   37 1
    37   39   37 1
    38   40   37 1
    39   41   40 1
    40   42   40 1
    41   43   42 1
    42   44   42 1
    43   45   42 1
    44   46   40 1
    45   47   46 1
    46   48   46 1
    47   49   46 1
    48   15   17 ar
    49   17   18 1
@<TRIPOS>SUBSTRUCTURE
     1 RES1 1
     2 SUP2 50

@<TRIPOS>CRYSIN
  10.3883   14.8162   11.6216  90.0000  92.2580  90.0000 231 1

