# MOL2 file generated by ConQuest
# Please check atom types

@<TRIPOS>MOLECULE
HEJSOE
    28    33     1
SMALL
NO_CHARGES
****
Generated from CSD

@<TRIPOS>ATOM
      1 O1         6.4816    0.1297    1.2605 O.3       1 RES1    0.0000
      2 O2         6.9770    3.3264    4.0665 O.3       1 RES1    0.0000
      3 N1         7.8826    0.3050    1.0666 N.2       1 RES1    0.0000
      4 N2         5.2420    3.7138    2.3930 N.3       1 RES1    0.0000
      5 N3         7.6383    4.4796    4.5358 N.2       1 RES1    0.0000
      6 C1         5.9974    1.2549    1.8112 C.2       1 RES1    0.0000
      7 C2         6.9781    2.1575    2.0013 C.2       1 RES1    0.0000
      8 C3         8.1527    1.5160    1.5184 C.2       1 RES1    0.0000
      9 C4         4.5471    1.3986    2.0924 C.3       1 RES1    0.0000
     10 C5         4.3666    2.6727    2.9340 C.3       1 RES1    0.0000
     11 C6         6.6452    3.4824    2.6043 C.3       1 RES1    0.0000
     12 C7         4.9674    5.1404    2.5365 C.3       1 RES1    0.0000
     13 C8         3.6258    5.5312    1.9256 C.3       1 RES1    0.0000
     14 C9         6.1644    5.7100    1.7938 C.3       1 RES1    0.0000
     15 C10        7.8815    5.2596    3.5507 C.2       1 RES1    0.0000
     16 C11        7.3278    4.8021    2.2243 C.3       1 RES1    0.0000
     17 C12        8.5618    6.5442    3.7814 C.ar      1 RES1    0.0000
     18 C13        8.1258    7.3995    4.7627 C.ar      1 RES1    0.0000
     19 C14        8.7591    8.6158    4.9682 C.ar      1 RES1    0.0000
     20 C15        9.8328    8.9751    4.1887 C.ar      1 RES1    0.0000
     21 C16       10.2699    8.1391    3.2268 C.ar      1 RES1    0.0000
     22 C17        9.6411    6.9158    3.0135 C.ar      1 RES1    0.0000
     23 C18        9.5470    1.9962    1.4331 C.ar      1 RES1    0.0000
     24 C19       10.0838    2.8340    2.3930 C.ar      1 RES1    0.0000
     25 C20       11.3896    3.2949    2.2727 C.ar      1 RES1    0.0000
     26 C21       12.1540    2.9058    1.1984 C.ar      1 RES1    0.0000
     27 C22       11.6474    2.0365    0.2599 C.ar      1 RES1    0.0000
     28 C23       10.3394    1.5844    0.3723 C.ar      1 RES1    0.0000
@<TRIPOS>BOND
     1    1    3 1
     2    2    5 1
     3    3    8 2
     4    4   10 1
     5    5   15 2
     6    6    1 1
     7    7    6 2
     8    8    7 1
     9    9    6 1
    10   10    9 1
    11   11    2 1
    12   12    4 1
    13   13   12 1
    14   14   12 1
    15   15   16 1
    16   16   11 1
    17   17   15 1
    18   18   17 ar
    19   19   18 ar
    20   20   19 ar
    21   21   20 ar
    22   22   17 ar
    23   23    8 1
    24   24   23 ar
    25   25   24 ar
    26   26   25 ar
    27   27   26 ar
    28   28   23 ar
    29    4   11 1
    30    7   11 1
    31   14   16 1
    32   21   22 ar
    33   27   28 ar
@<TRIPOS>SUBSTRUCTURE
     1 RES1 1

@<TRIPOS>CRYSIN
  11.2080   17.5260   19.3920  90.0000  90.0000  90.0000  60 3

