# MOL2 file generated by ConQuest
# Please check atom types

@<TRIPOS>MOLECULE
HEJYIG
   120   128     2
SMALL
NO_CHARGES
****
Generated from CSD

@<TRIPOS>ATOM
      1 O1         4.4263    2.6981    0.6092 O.2       1 RES1    0.0000
      2 O2         0.6428   -1.4323   -3.4650 O.2       1 RES1    0.0000
      3 O3        -1.1617   -0.5896   -2.5724 O.2       1 RES1    0.0000
      4 O4         9.6718    9.9184    4.6494 O.2       2 RES2    0.0000
      5 O5        13.6559   13.8700    8.6387 O.2       2 RES2    0.0000
      6 O6        12.4449   13.3841   10.3678 O.2       2 RES2    0.0000
      7 N1         2.4823    3.4178    1.5815 N.am      1 RES1    0.0000
      8 N2         0.0557   -0.6424   -2.7014 N.pl3     1 RES1    0.0000
      9 N3         8.0987    9.8740    6.3225 N.am      2 RES2    0.0000
     10 N4        12.7000   13.2967    9.1631 N.pl3     2 RES2    0.0000
     11 C1        -2.0321    3.4691    0.8383 C.ar      1 RES1    0.0000
     12 H1        -1.8949    3.0877    1.6969 H         1 RES1    0.0000
     13 C2        -3.3063    3.8644    0.4480 C.ar      1 RES1    0.0000
     14 H2        -4.0349    3.7307    1.0419 H         1 RES1    0.0000
     15 C3        -3.5362    4.4414   -0.7687 C.ar      1 RES1    0.0000
     16 H3        -4.4131    4.7179   -1.0113 H         1 RES1    0.0000
     17 C4        -2.4835    4.6164   -1.6426 C.ar      1 RES1    0.0000
     18 H4        -2.6323    5.0248   -2.4876 H         1 RES1    0.0000
     19 C5        -1.1978    4.1962   -1.2879 C.ar      1 RES1    0.0000
     20 H5        -0.4814    4.2954   -1.9039 H         1 RES1    0.0000
     21 C6        -0.9629    3.6325   -0.0305 C.ar      1 RES1    0.0000
     22 C7         0.4272    3.2405    0.3377 C.2       1 RES1    0.0000
     23 C8         1.1731    3.9115    1.2862 C.2       1 RES1    0.0000
     24 C9         0.7823    5.1253    2.0193 C.ar      1 RES1    0.0000
     25 C10       -0.1816    6.0252    1.5136 C.ar      1 RES1    0.0000
     26 H6        -0.5804    5.8570    0.6669 H         1 RES1    0.0000
     27 C11       -0.5528    7.1436    2.2297 C.ar      1 RES1    0.0000
     28 H7        -1.2310    7.7166    1.8920 H         1 RES1    0.0000
     29 C12        0.0562    7.4372    3.4429 C.ar      1 RES1    0.0000
     30 H8        -0.2013    8.2104    3.9299 H         1 RES1    0.0000
     31 C13        1.0378    6.6002    3.9367 C.ar      1 RES1    0.0000
     32 H9         1.4500    6.7996    4.7682 H         1 RES1    0.0000
     33 C14        1.4356    5.4489    3.2173 C.ar      1 RES1    0.0000
     34 C15        2.5111    4.5803    3.6975 C.2       1 RES1    0.0000
     35 C16        3.0462    3.6406    2.8830 C.2       1 RES1    0.0000
     36 C17        3.2025    2.6968    0.6194 C.2       1 RES1    0.0000
     37 C18        2.3886    1.8981   -0.3037 C.ar      1 RES1    0.0000
     38 C19        3.0048    0.9082   -1.0741 C.ar      1 RES1    0.0000
     39 H10        3.9492    0.8030   -1.0402 H         1 RES1    0.0000
     40 C20        2.2509    0.0863   -1.8801 C.ar      1 RES1    0.0000
     41 H11        2.6586   -0.5900   -2.4078 H         1 RES1    0.0000
     42 C21        0.8755    0.2801   -1.8971 C.ar      1 RES1    0.0000
     43 C22        0.2420    1.2671   -1.1997 C.ar      1 RES1    0.0000
     44 H12       -0.6994    1.3719   -1.2625 H         1 RES1    0.0000
     45 C23        1.0085    2.1385   -0.3767 C.ar      1 RES1    0.0000
     46 C24        2.9558    4.6912    5.1517 C.3       1 RES1    0.0000
     47 H13        3.0968    5.6427    5.3824 H         1 RES1    0.0000
     48 H14        3.8171    4.2156    5.2688 H         1 RES1    0.0000
     49 C25        1.9072    4.0864    6.0934 C.3       1 RES1    0.0000
     50 H15        1.0145    4.4346    5.8423 H         1 RES1    0.0000
     51 H16        1.8936    3.1045    5.9679 H         1 RES1    0.0000
     52 C26        2.1541    4.3872    7.5392 C.3       1 RES1    0.0000
     53 H17        3.0664    4.1211    7.7767 H         1 RES1    0.0000
     54 H18        1.5133    3.8893    8.0889 H         1 RES1    0.0000
     55 H19        2.0419    5.3481    7.6953 H         1 RES1    0.0000
     56 C27        4.1335    2.6906    3.3259 C.3       1 RES1    0.0000
     57 H20        4.1321    1.9037    2.7269 H         1 RES1    0.0000
     58 H21        3.9225    2.3728    4.2405 H         1 RES1    0.0000
     59 C28        5.5454    3.3016    3.3326 C.3       1 RES1    0.0000
     60 H22        5.7119    3.7413    2.4621 H         1 RES1    0.0000
     61 H23        5.5959    3.9942    4.0385 H         1 RES1    0.0000
     62 C29        6.6203    2.2678    3.5770 C.3       1 RES1    0.0000
     63 H24        6.4747    1.8461    4.4509 H         1 RES1    0.0000
     64 H25        7.4991    2.7019    3.5668 H         1 RES1    0.0000
     65 H26        6.5830    1.5851    2.8745 H         1 RES1    0.0000
     66 C30        7.7167   10.7025   10.8141 C.ar      2 RES2    0.0000
     67 H27        7.0458   11.2022   10.3644 H         2 RES2    0.0000
     68 C31        7.6587   10.5525   12.1920 C.ar      2 RES2    0.0000
     69 H28        6.9577   10.9649   12.6824 H         2 RES2    0.0000
     70 C32        8.6213    9.7992   12.8571 C.ar      2 RES2    0.0000
     71 H29        8.5660    9.6785   13.7972 H         2 RES2    0.0000
     72 C33        9.6577    9.2253   12.1427 C.ar      2 RES2    0.0000
     73 H30       10.3150    8.7072   12.5924 H         2 RES2    0.0000
     74 C34        9.7364    9.4089   10.7666 C.ar      2 RES2    0.0000
     75 H31       10.4691    9.0431   10.2847 H         2 RES2    0.0000
     76 C35        8.7530   10.1241   10.0895 C.ar      2 RES2    0.0000
     77 C36        8.8218   10.2537    8.5946 C.2       2 RES2    0.0000
     78 C37        7.9463    9.6813    7.7258 C.2       2 RES2    0.0000
     79 C38        6.8393    8.7579    8.0839 C.ar      2 RES2    0.0000
     80 C39        6.8387    8.0354    9.3022 C.ar      2 RES2    0.0000
     81 H32        7.5547    8.1417    9.9182 H         2 RES2    0.0000
     82 C40        5.7980    7.1752    9.5958 C.ar      2 RES2    0.0000
     83 H33        5.7972    6.7027   10.4204 H         2 RES2    0.0000
     84 C41        4.7405    6.9935    8.6862 C.ar      2 RES2    0.0000
     85 H34        4.0206    6.4105    8.8967 H         2 RES2    0.0000
     86 C42        4.7602    7.6662    7.4984 C.ar      2 RES2    0.0000
     87 H35        4.0482    7.5316    6.8842 H         2 RES2    0.0000
     88 C43        5.7960    8.5509    7.1523 C.ar      2 RES2    0.0000
     89 C44        5.8389    9.2195    5.8593 C.2       2 RES2    0.0000
     90 C45        6.9797    9.8054    5.4317 C.2       2 RES2    0.0000
     91 C46        9.3485   10.1879    5.7982 C.2       2 RES2    0.0000
     92 C47       10.2191   10.9655    6.6975 C.ar      2 RES2    0.0000
     93 C48       11.2960   11.6674    6.1359 C.ar      2 RES2    0.0000
     94 H36       11.4619   11.6127    5.2026 H         2 RES2    0.0000
     95 C49       12.1156   12.4374    6.9351 C.ar      2 RES2    0.0000
     96 H37       12.8386   12.9334    6.5703 H         2 RES2    0.0000
     97 C50       11.8394   12.4551    8.3027 C.ar      2 RES2    0.0000
     98 C51       10.7976   11.7918    8.8950 C.ar      2 RES2    0.0000
     99 H38       10.6552   11.8499    9.8333 H         2 RES2    0.0000
    100 C52        9.9327   11.0137    8.0737 C.ar      2 RES2    0.0000
    101 C53        4.5815    9.2844    5.0346 C.3       2 RES2    0.0000
    102 H39        4.2056    8.3729    4.9430 H         2 RES2    0.0000
    103 H40        4.8034    9.6143    4.1285 H         2 RES2    0.0000
    104 C54        3.5104   10.2200    5.6743 C.3       2 RES2    0.0000
    105 H41        2.7144   10.2499    5.0889 H         2 RES2    0.0000
    106 H42        3.2321    9.8453    6.5482 H         2 RES2    0.0000
    107 C55        4.0375   11.6578    5.8864 C.3       2 RES2    0.0000
    108 H43        4.8677   11.6286    6.4057 H         2 RES2    0.0000
    109 H44        3.3678   12.1835    6.3700 H         2 RES2    0.0000
    110 H45        4.2112   12.0734    5.0159 H         2 RES2    0.0000
    111 C56        7.0790   10.5602    4.1336 C.3       2 RES2    0.0000
    112 H46        7.8448   11.1836    4.1879 H         2 RES2    0.0000
    113 H47        6.2581   11.1030    4.0199 H         2 RES2    0.0000
    114 C57        7.2538    9.6761    2.8915 C.3       2 RES2    0.0000
    115 H48        8.1312    9.2180    2.9339 H         2 RES2    0.0000
    116 H49        6.5479    8.9833    2.8779 H         2 RES2    0.0000
    117 C58        7.1774   10.5038    1.6069 C.3       2 RES2    0.0000
    118 H50        6.3358   11.0057    1.5917 H         2 RES2    0.0000
    119 H51        7.2176    9.9077    0.8315 H         2 RES2    0.0000
    120 H52        7.9307   11.1313    1.5781 H         2 RES2    0.0000
@<TRIPOS>BOND
     1    1   36 2
     2    2    8 2
     3    3    8 2
     4    4   91 2
     5    5   10 2
     6    6   10 2
     7    7   23 1
     8    8   42 1
     9    9   78 1
    10   10   97 1
    11   11   12 1
    12   13   11 ar
    13   14   13 1
    14   15   13 ar
    15   16   15 1
    16   17   15 ar
    17   18   17 1
    18   19   17 ar
    19   20   19 1
    20   21   11 ar
    21   22   21 1
    22   23   22 2
    23   24   23 1
    24   25   24 ar
    25   26   25 1
    26   27   25 ar
    27   28   27 1
    28   29   27 ar
    29   30   29 1
    30   31   29 ar
    31   32   31 1
    32   33   24 ar
    33   34   33 1
    34   35    7 1
    35   36    7 1
    36   37   36 1
    37   38   37 ar
    38   39   38 1
    39   40   38 ar
    40   41   40 1
    41   42   40 ar
    42   43   42 ar
    43   44   43 1
    44   45   22 1
    45   46   34 1
    46   47   46 1
    47   48   46 1
    48   49   46 1
    49   50   49 1
    50   51   49 1
    51   52   49 1
    52   53   52 1
    53   54   52 1
    54   55   52 1
    55   56   35 1
    56   57   56 1
    57   58   56 1
    58   59   56 1
    59   60   59 1
    60   61   59 1
    61   62   59 1
    62   63   62 1
    63   64   62 1
    64   65   62 1
    65   66   67 1
    66   68   66 ar
    67   69   68 1
    68   70   68 ar
    69   71   70 1
    70   72   70 ar
    71   73   72 1
    72   74   72 ar
    73   75   74 1
    74   76   66 ar
    75   77   76 1
    76   78   77 2
    77   79   78 1
    78   80   79 ar
    79   81   80 1
    80   82   80 ar
    81   83   82 1
    82   84   82 ar
    83   85   84 1
    84   86   84 ar
    85   87   86 1
    86   88   79 ar
    87   89   88 1
    88   90    9 1
    89   91    9 1
    90   92   91 1
    91   93   92 ar
    92   94   93 1
    93   95   93 ar
    94   96   95 1
    95   97   95 ar
    96   98   97 ar
    97   99   98 1
    98  100   77 1
    99  101   89 1
   100  102  101 1
   101  103  101 1
   102  104  101 1
   103  105  104 1
   104  106  104 1
   105  107  104 1
   106  108  107 1
   107  109  107 1
   108  110  107 1
   109  111   90 1
   110  112  111 1
   111  113  111 1
   112  114  111 1
   113  115  114 1
   114  116  114 1
   115  117  114 1
   116  118  117 1
   117  119  117 1
   118  120  117 1
   119   19   21 ar
   120   31   33 ar
   121   34   35 2
   122   37   45 ar
   123   43   45 ar
   124   74   76 ar
   125   86   88 ar
   126   89   90 2
   127   92  100 ar
   128   98  100 ar
@<TRIPOS>SUBSTRUCTURE
     1 RES1 1
     2 RES2 4

@<TRIPOS>CRYSIN
  11.5770   11.7860   17.6280  76.1000  79.8360  76.9070   2 1

