# MOL2 file generated by ConQuest
# Please check atom types

@<TRIPOS>MOLECULE
HEKTAV
   134   138     2
SMALL
NO_CHARGES
****
Generated from CSD

@<TRIPOS>ATOM
      1 N1         7.8066   12.1418   13.0986 N.pl3     1 RES1    0.0000
      2 C1         7.4655   11.7298   11.7351 C.ar      1 RES1    0.0000
      3 C2         6.2157   12.0483   11.2300 C.ar      1 RES1    0.0000
      4 H1         5.5687   12.4811   11.7730 H         1 RES1    0.0000
      5 C3         5.9297   11.7210    9.9134 C.ar      1 RES1    0.0000
      6 H2         5.0758   11.9302    9.5546 H         1 RES1    0.0000
      7 C4         6.8750   11.0906    9.1094 C.ar      1 RES1    0.0000
      8 C5         8.1115   10.7499    9.6740 C.ar      1 RES1    0.0000
      9 H3         8.7542   10.2924    9.1445 H         1 RES1    0.0000
     10 C6         8.4151   11.0651   10.9857 C.ar      1 RES1    0.0000
     11 H4         9.2557   10.8307   11.3603 H         1 RES1    0.0000
     12 C7         6.5701   10.7474    7.6602 C.3       1 RES1    0.0000
     13 H5         5.6671   11.1118    7.4342 H         1 RES1    0.0000
     14 C8         6.5135    9.2060    7.5513 C.3       1 RES1    0.0000
     15 H6         7.3843    8.8455    7.8547 H         1 RES1    0.0000
     16 H7         5.8254    8.8811    8.1849 H         1 RES1    0.0000
     17 C9         6.2109    8.6105    6.1798 C.3       1 RES1    0.0000
     18 H8         6.2587    7.6245    6.2528 H         1 RES1    0.0000
     19 H9         6.9217    8.8964    5.5537 H         1 RES1    0.0000
     20 C10        4.8591    8.9810    5.5723 C.3       1 RES1    0.0000
     21 H10        4.7772    9.9658    5.5279 H         1 RES1    0.0000
     22 H11        4.1328    8.6393    6.1522 H         1 RES1    0.0000
     23 C11        4.7065    8.3958    4.1693 C.3       1 RES1    0.0000
     24 H12        4.7176    7.4092    4.2382 H         1 RES1    0.0000
     25 H13        5.4907    8.6660    3.6294 H         1 RES1    0.0000
     26 C12        3.4362    8.8191    3.4298 C.3       1 RES1    0.0000
     27 H14        3.4128    8.3602    2.5537 H         1 RES1    0.0000
     28 H15        2.6510    8.5138    3.9493 H         1 RES1    0.0000
     29 C13        3.3126   10.3238    3.1963 C.3       1 RES1    0.0000
     30 H16        2.4235   10.5116    2.8040 H         1 RES1    0.0000
     31 H17        3.3565   10.7850    4.0705 H         1 RES1    0.0000
     32 C14        4.3822   10.9090    2.2831 C.3       1 RES1    0.0000
     33 H18        4.2244   10.5821    1.3620 H         1 RES1    0.0000
     34 H19        5.2661   10.5694    2.5744 H         1 RES1    0.0000
     35 C15        4.4317   12.4416    2.2579 C.3       1 RES1    0.0000
     36 H20        5.1250   12.7254    1.6096 H         1 RES1    0.0000
     37 H21        3.5608   12.7817    1.9321 H         1 RES1    0.0000
     38 C16        4.7328   13.0850    3.6111 C.3       1 RES1    0.0000
     39 H22        3.9683   12.9106    4.2150 H         1 RES1    0.0000
     40 H23        4.7943   14.0647    3.4850 H         1 RES1    0.0000
     41 C17        6.0115   12.6066    4.2998 C.3       1 RES1    0.0000
     42 H24        5.9843   11.6217    4.3981 H         1 RES1    0.0000
     43 H25        6.7944   12.8373    3.7403 H         1 RES1    0.0000
     44 C18        6.1616   13.2533    5.6750 C.3       1 RES1    0.0000
     45 H26        5.3840   12.9964    6.2322 H         1 RES1    0.0000
     46 H27        6.1387   14.2371    5.5666 H         1 RES1    0.0000
     47 C19        7.4470   12.8741    6.4251 C.3       1 RES1    0.0000
     48 H28        8.2190   13.1514    5.8530 H         1 RES1    0.0000
     49 C20        7.5941   11.3660    6.6970 C.3       1 RES1    0.0000
     50 H29        7.5336   10.8883    5.8323 H         1 RES1    0.0000
     51 H30        8.4997   11.2037    7.0602 H         1 RES1    0.0000
     52 C21        8.6527   13.8534    8.3335 C.2       1 RES1    0.0000
     53 C22        8.4975   14.5832    9.6436 C.ar      1 RES1    0.0000
     54 C23        9.5986   14.7052   10.4819 C.ar      1 RES1    0.0000
     55 H31       10.4493   14.3755   10.2175 H         1 RES1    0.0000
     56 C24        9.4291   15.3174   11.7132 C.ar      1 RES1    0.0000
     57 H32       10.1566   15.3985   12.3173 H         1 RES1    0.0000
     58 C25        8.1745   15.8088   12.0449 C.ar      1 RES1    0.0000
     59 H33        8.0260   16.2383   12.8796 H         1 RES1    0.0000
     60 C26        7.1411   15.6582   11.1310 C.ar      1 RES1    0.0000
     61 H34        6.2880   16.0084   11.3603 H         1 RES1    0.0000
     62 N2         7.5068   13.6647    7.6530 N.am      1 RES1    0.0000
     63 N3         7.2766   15.0491    9.9477 N.ar      1 RES1    0.0000
     64 O1         8.9299   11.8765   13.5224 O.2       1 RES1    0.0000
     65 O2         6.9638   12.7391   13.7538 O.2       1 RES1    0.0000
     66 O3         9.7508   13.4525    7.9494 O.2       1 RES1    0.0000
     67 H35        6.7975   13.9338    8.0120 H         1 RES1    0.0000
     68 N4         4.9364   17.3056   14.8310 N.pl3     2 RES2    0.0000
     69 C27        5.2821   17.6711   16.2114 C.ar      2 RES2    0.0000
     70 C28        4.3097   18.2238   17.0270 C.ar      2 RES2    0.0000
     71 H36        3.4583   18.4595   16.6767 H         2 RES2    0.0000
     72 C29        4.6045   18.4247   18.3627 C.ar      2 RES2    0.0000
     73 H37        3.9489   18.8108   18.9312 H         2 RES2    0.0000
     74 C30        5.8512   18.0695   18.8938 C.ar      2 RES2    0.0000
     75 C31        6.8210   17.5875   18.0191 C.ar      2 RES2    0.0000
     76 H38        7.6891   17.3931   18.3534 H         2 RES2    0.0000
     77 C32        6.5557   17.3837   16.6710 C.ar      2 RES2    0.0000
     78 H39        7.2268   17.0578   16.0834 H         2 RES2    0.0000
     79 C33        6.1593   18.2327   20.3745 C.3       2 RES2    0.0000
     80 H40        7.0558   17.8243   20.5460 H         2 RES2    0.0000
     81 C34        6.2667   19.7462   20.6662 C.3       2 RES2    0.0000
     82 H41        6.9479   20.1305   20.0585 H         2 RES2    0.0000
     83 H42        5.3997   20.1660   20.4402 H         2 RES2    0.0000
     84 C35        6.6289   20.1371   22.0963 C.3       2 RES2    0.0000
     85 H43        5.8774   19.8814   22.6870 H         2 RES2    0.0000
     86 H44        6.7131   21.1228   22.1350 H         2 RES2    0.0000
     87 C36        7.9092   19.5260   22.6605 C.3       2 RES2    0.0000
     88 H45        8.6770   19.7918   22.0963 H         2 RES2    0.0000
     89 H46        7.8397   18.5390   22.6380 H         2 RES2    0.0000
     90 C37        8.1556   19.9846   24.1004 C.3       2 RES2    0.0000
     91 H47        7.3631   19.7501   24.6449 H         2 RES2    0.0000
     92 H48        8.2409   20.9706   24.1058 H         2 RES2    0.0000
     93 C38        9.4015   19.3811   24.7633 C.3       2 RES2    0.0000
     94 H49       10.2028   19.6787   24.2631 H         2 RES2    0.0000
     95 H50        9.4742   19.7365   25.6844 H         2 RES2    0.0000
     96 C39        9.4034   17.8523   24.8249 C.3       2 RES2    0.0000
     97 H51        9.3122   17.4994   23.9046 H         2 RES2    0.0000
     98 H52       10.2786   17.5512   25.1763 H         2 RES2    0.0000
     99 C40        8.3008   17.2484   25.6883 C.3       2 RES2    0.0000
    100 H53        7.4365   17.6557   25.4291 H         2 RES2    0.0000
    101 H54        8.4726   17.4872   26.6337 H         2 RES2    0.0000
    102 C41        8.1749   15.7278   25.5838 C.3       2 RES2    0.0000
    103 H55        7.4580   15.4262   26.1978 H         2 RES2    0.0000
    104 H56        9.0222   15.3182   25.8908 H         2 RES2    0.0000
    105 C42        7.8617   15.2110   24.1726 C.3       2 RES2    0.0000
    106 H57        8.6283   15.4211   23.5821 H         2 RES2    0.0000
    107 H58        7.7744   14.2253   24.2089 H         2 RES2    0.0000
    108 C43        6.5917   15.7892   23.5473 C.3       2 RES2    0.0000
    109 H59        5.8009   15.4242   24.0181 H         2 RES2    0.0000
    110 H60        6.5888   16.7726   23.6647 H         2 RES2    0.0000
    111 C44        6.4913   15.4593   22.0615 C.3       2 RES2    0.0000
    112 H61        6.5148   14.4753   21.9544 H         2 RES2    0.0000
    113 H62        7.2857   15.8297   21.6010 H         2 RES2    0.0000
    114 C45        5.2293   15.9984   21.3740 C.3       2 RES2    0.0000
    115 H63        4.4426   15.6844   21.9054 H         2 RES2    0.0000
    116 C46        5.1443   17.5311   21.2892 C.3       2 RES2    0.0000
    117 H64        4.2349   17.7721   20.9819 H         2 RES2    0.0000
    118 H65        5.2511   17.8958   22.2021 H         2 RES2    0.0000
    119 C47        3.9963   15.3419   19.3535 C.2       2 RES2    0.0000
    120 C48        4.1356   14.8086   17.9556 C.ar      2 RES2    0.0000
    121 C49        3.0308   14.7959   17.1106 C.ar      2 RES2    0.0000
    122 H66        2.1754   15.0647   17.4248 H         2 RES2    0.0000
    123 C50        3.2064   14.3826   15.8012 C.ar      2 RES2    0.0000
    124 H67        2.4779   14.3877   15.1909 H         2 RES2    0.0000
    125 C51        4.4599   13.9623   15.3960 C.ar      2 RES2    0.0000
    126 H68        4.6094   13.6675   14.5047 H         2 RES2    0.0000
    127 C52        5.4937   13.9816   16.3197 C.ar      2 RES2    0.0000
    128 H69        6.3493   13.6757   16.0421 H         2 RES2    0.0000
    129 N5         5.1398   15.3799   20.0549 N.am      2 RES2    0.0000
    130 N6         5.3561   14.4060   17.5772 N.ar      2 RES2    0.0000
    131 O4         5.8008   16.7958   14.1266 O.2       2 RES2    0.0000
    132 O5         3.7792   17.4946   14.4549 O.2       2 RES2    0.0000
    133 O6         2.9093   15.7200   19.7899 O.2       2 RES2    0.0000
    134 H70        5.8558   15.1097   19.6225 H         2 RES2    0.0000
@<TRIPOS>BOND
     1    1    2 1
     2    2    3 ar
     3    3    4 1
     4    5    3 ar
     5    6    5 1
     6    7    5 ar
     7    8    7 ar
     8    9    8 1
     9   10    2 ar
    10   11   10 1
    11   12    7 1
    12   13   12 1
    13   14   12 1
    14   15   14 1
    15   16   14 1
    16   17   14 1
    17   18   17 1
    18   19   17 1
    19   20   17 1
    20   21   20 1
    21   22   20 1
    22   23   20 1
    23   24   23 1
    24   25   23 1
    25   26   23 1
    26   27   26 1
    27   28   26 1
    28   29   26 1
    29   30   29 1
    30   31   29 1
    31   32   29 1
    32   33   32 1
    33   34   32 1
    34   35   32 1
    35   36   35 1
    36   37   35 1
    37   38   35 1
    38   39   38 1
    39   40   38 1
    40   41   38 1
    41   42   41 1
    42   43   41 1
    43   44   41 1
    44   45   44 1
    45   46   44 1
    46   47   44 1
    47   48   47 1
    48   49   12 1
    49   50   49 1
    50   51   49 1
    51   52   53 1
    52   53   54 ar
    53   54   55 1
    54   56   54 ar
    55   57   56 1
    56   58   56 ar
    57   59   58 1
    58   60   58 ar
    59   61   60 1
    60   62   47 1
    61   63   53 ar
    62   64    1 2
    63   65    1 2
    64   66   52 2
    65   67   62 1
    66   68   69 1
    67   69   70 ar
    68   70   71 1
    69   72   70 ar
    70   73   72 1
    71   74   72 ar
    72   75   74 ar
    73   76   75 1
    74   77   69 ar
    75   78   77 1
    76   79   74 1
    77   80   79 1
    78   81   79 1
    79   82   81 1
    80   83   81 1
    81   84   81 1
    82   85   84 1
    83   86   84 1
    84   87   84 1
    85   88   87 1
    86   89   87 1
    87   90   87 1
    88   91   90 1
    89   92   90 1
    90   93   90 1
    91   94   93 1
    92   95   93 1
    93   96   93 1
    94   97   96 1
    95   98   96 1
    96   99   96 1
    97  100   99 1
    98  101   99 1
    99  102   99 1
   100  103  102 1
   101  104  102 1
   102  105  102 1
   103  106  105 1
   104  107  105 1
   105  108  105 1
   106  109  108 1
   107  110  108 1
   108  111  108 1
   109  112  111 1
   110  113  111 1
   111  114  111 1
   112  115  114 1
   113  116   79 1
   114  117  116 1
   115  118  116 1
   116  119  120 1
   117  120  121 ar
   118  121  122 1
   119  123  121 ar
   120  124  123 1
   121  125  123 ar
   122  126  125 1
   123  127  125 ar
   124  128  127 1
   125  129  114 1
   126  130  120 ar
   127  131   68 2
   128  132   68 2
   129  133  119 2
   130  134  129 1
   131    8   10 ar
   132   47   49 1
   133   52   62 1
   134   60   63 ar
   135   75   77 ar
   136  114  116 1
   137  119  129 1
   138  127  130 ar
@<TRIPOS>SUBSTRUCTURE
     1 RES1 1
     2 RES2 68

@<TRIPOS>CRYSIN
   5.9959   14.9887   26.4870  76.9380  87.9110  86.2070   2 1

