# MOL2 file generated by ConQuest
# Please check atom types

@<TRIPOS>MOLECULE
HEKTEZ
    70    72     1
SMALL
NO_CHARGES
****
Generated from CSD

@<TRIPOS>ATOM
      1 C1         2.6280    5.3955   11.8108 C.ar      1 RES1    0.0000
      2 C2         1.3789    5.5790   12.3422 C.ar      1 RES1    0.0000
      3 H1         0.7871    6.2262   11.9764 H         1 RES1    0.0000
      4 C3         0.9973    4.7987   13.4261 C.ar      1 RES1    0.0000
      5 H2         0.1431    4.9339   13.8204 H         1 RES1    0.0000
      6 C4         1.8472    3.8172   13.9478 C.ar      1 RES1    0.0000
      7 C5         3.0649    3.6400   13.3469 C.ar      1 RES1    0.0000
      8 H3         3.6388    2.9534   13.6662 H         1 RES1    0.0000
      9 C6         3.4868    4.4240   12.2910 C.ar      1 RES1    0.0000
     10 H4         4.3456    4.2997   11.9057 H         1 RES1    0.0000
     11 C7         1.4467    2.9927   15.1641 C.3       1 RES1    0.0000
     12 H5         2.1531    2.2949   15.2789 H         1 RES1    0.0000
     13 C8         0.1567    2.2580   14.9084 C.3       1 RES1    0.0000
     14 H6         0.2873    1.6779   14.1159 H         1 RES1    0.0000
     15 H7        -0.5341    2.9266   14.6706 H         1 RES1    0.0000
     16 C9        -0.3913    1.3994   16.0332 C.3       1 RES1    0.0000
     17 H8        -0.6386    1.9970   16.7824 H         1 RES1    0.0000
     18 H9        -1.2239    0.9703   15.7136 H         1 RES1    0.0000
     19 C10        0.5108    0.3188   16.5772 C.3       1 RES1    0.0000
     20 H10        1.3409    0.7319   16.9237 H         1 RES1    0.0000
     21 H11        0.7615   -0.2961   15.8422 H         1 RES1    0.0000
     22 C11       -0.1556   -0.4786   17.6919 C.3       1 RES1    0.0000
     23 H12       -0.5079    0.1613   18.3608 H         1 RES1    0.0000
     24 H13       -0.9311   -0.9586   17.3071 H         1 RES1    0.0000
     25 C12        0.7154   -1.4900   18.4171 C.3       1 RES1    0.0000
     26 H14        0.9534   -2.2116   17.7825 H         1 RES1    0.0000
     27 H15        0.1853   -1.8960   19.1468 H         1 RES1    0.0000
     28 C13        2.0038   -0.9194   19.0106 C.3       1 RES1    0.0000
     29 H16        2.4394   -1.6191   19.5580 H         1 RES1    0.0000
     30 H17        2.6203   -0.6880   18.2708 H         1 RES1    0.0000
     31 C14        1.7863    0.3197   19.8769 C.3       1 RES1    0.0000
     32 H18        1.3755    1.0327   19.3267 H         1 RES1    0.0000
     33 H19        1.1550    0.0990   20.6074 H         1 RES1    0.0000
     34 C15        3.0785    0.8422   20.4802 C.3       1 RES1    0.0000
     35 H20        3.7493    0.9307   19.7572 H         1 RES1    0.0000
     36 H21        3.4193    0.1708   21.1236 H         1 RES1    0.0000
     37 C16        2.9595    2.1823   21.1979 C.3       1 RES1    0.0000
     38 H22        3.8440    2.4154   21.5776 H         1 RES1    0.0000
     39 H23        2.3284    2.0805   21.9524 H         1 RES1    0.0000
     40 C17        2.4835    3.3482   20.3181 C.3       1 RES1    0.0000
     41 H24        1.5356    3.1914   20.0784 H         1 RES1    0.0000
     42 H25        2.5205    4.1793   20.8537 H         1 RES1    0.0000
     43 C18        3.2629    3.5672   19.0504 C.3       1 RES1    0.0000
     44 H26        3.1396    2.7822   18.4593 H         1 RES1    0.0000
     45 H27        4.2261    3.6254   19.2732 H         1 RES1    0.0000
     46 C19        2.8548    4.8338   18.2824 C.3       1 RES1    0.0000
     47 H28        2.0044    5.1758   18.6542 H         1 RES1    0.0000
     48 H29        3.5463    5.5290   18.4165 H         1 RES1    0.0000
     49 C20        2.6813    4.5919   16.7980 C.3       1 RES1    0.0000
     50 H30        3.4626    4.0481   16.4932 H         1 RES1    0.0000
     51 C21        1.4252    3.8088   16.4581 C.3       1 RES1    0.0000
     52 H31        0.6703    4.4463   16.4054 H         1 RES1    0.0000
     53 H32        1.2367    3.1906   17.2086 H         1 RES1    0.0000
     54 C22        3.8134    6.3054   15.4605 C.2       1 RES1    0.0000
     55 C23        3.6262    7.4407   14.4982 C.ar      1 RES1    0.0000
     56 C24        4.6856    7.8349   13.7071 C.ar      1 RES1    0.0000
     57 H33        5.5425    7.4397   13.8161 H         1 RES1    0.0000
     58 C25        4.4785    8.8174   12.7525 C.ar      1 RES1    0.0000
     59 H34        5.1850    9.1013   12.1841 H         1 RES1    0.0000
     60 C26        3.2227    9.3707   12.6465 C.ar      1 RES1    0.0000
     61 H35        3.0385   10.0332   11.9914 H         1 RES1    0.0000
     62 C27        2.2468    8.9488   13.5030 C.ar      1 RES1    0.0000
     63 H36        1.3967    9.3692   13.4477 H         1 RES1    0.0000
     64 N1         3.0818    6.2723   10.7263 N.pl3     1 RES1    0.0000
     65 N2         2.7005    5.8481   16.0345 N.am      1 RES1    0.0000
     66 H37        1.9563    6.3106   15.9535 H         1 RES1    0.0000
     67 N3         2.4056    7.9848   14.4134 N.ar      1 RES1    0.0000
     68 O1         4.2471    6.1786   10.3489 O.2       1 RES1    0.0000
     69 O2         2.2811    7.0631   10.2452 O.2       1 RES1    0.0000
     70 O3         4.9371    5.8145   15.6509 O.2       1 RES1    0.0000
@<TRIPOS>BOND
     1    1    2 ar
     2    2    3 1
     3    4    2 ar
     4    5    4 1
     5    6    4 ar
     6    7    6 ar
     7    8    7 1
     8    9    1 ar
     9   10    9 1
    10   11    6 1
    11   12   11 1
    12   13   11 1
    13   14   13 1
    14   15   13 1
    15   16   13 1
    16   17   16 1
    17   18   16 1
    18   19   16 1
    19   20   19 1
    20   21   19 1
    21   22   19 1
    22   23   22 1
    23   24   22 1
    24   25   22 1
    25   26   25 1
    26   27   25 1
    27   28   25 1
    28   29   28 1
    29   30   28 1
    30   31   28 1
    31   32   31 1
    32   33   31 1
    33   34   31 1
    34   35   34 1
    35   36   34 1
    36   37   34 1
    37   38   37 1
    38   39   37 1
    39   40   37 1
    40   41   40 1
    41   42   40 1
    42   43   40 1
    43   44   43 1
    44   45   43 1
    45   46   43 1
    46   47   46 1
    47   48   46 1
    48   49   46 1
    49   50   49 1
    50   51   11 1
    51   52   51 1
    52   53   51 1
    53   54   55 1
    54   55   56 ar
    55   56   57 1
    56   58   56 ar
    57   59   58 1
    58   60   58 ar
    59   61   60 1
    60   62   60 ar
    61   63   62 1
    62   64    1 1
    63   65   49 1
    64   66   65 1
    65   67   55 ar
    66   68   64 2
    67   69   64 2
    68   70   54 2
    69    7    9 ar
    70   49   51 1
    71   54   65 1
    72   62   67 ar
@<TRIPOS>SUBSTRUCTURE
     1 RES1 1

@<TRIPOS>CRYSIN
   6.1055    9.3906   21.4840  91.7770  94.0040  94.6370   2 1

