# MOL2 file generated by ConQuest
# Please check atom types

@<TRIPOS>MOLECULE
HEKVIC
    35    36     1
SMALL
NO_CHARGES
****
Generated from CSD

@<TRIPOS>ATOM
      1 O1        -5.4130   10.3275    2.4772 O.2       1 RES1    0.0000
      2 O2        -2.4561    9.1354    3.4269 O.2       1 RES1    0.0000
      3 O3        -2.7348    8.2229    6.3062 O.3       1 RES1    0.0000
      4 O4         0.8926   11.2483    5.7993 O.2       1 RES1    0.0000
      5 O5         2.5081   11.3013    7.1714 O.2       1 RES1    0.0000
      6 N1         1.4722   10.8170    6.7659 N.pl3     1 RES1    0.0000
      7 C1        -5.6802    9.4743    3.3103 C.2       1 RES1    0.0000
      8 C2        -7.0502    8.9224    3.3981 C.3       1 RES1    0.0000
      9 C3        -3.2989    9.7227    4.0470 C.2       1 RES1    0.0000
     10 C4        -3.1047   11.0810    4.5641 C.3       1 RES1    0.0000
     11 C5        -4.6381    9.0700    4.2548 C.2       1 RES1    0.0000
     12 C6        -4.8580    8.1284    5.1673 C.2       1 RES1    0.0000
     13 C7        -3.9638    7.6098    6.1474 C.2       1 RES1    0.0000
     14 C8        -4.0520    6.6006    7.0244 C.2       1 RES1    0.0000
     15 C9        -2.8675    6.5673    7.7561 C.2       1 RES1    0.0000
     16 C10       -2.0607    7.5619    7.3083 C.2       1 RES1    0.0000
     17 C11       -0.7761    8.0774    7.6344 C.ar      1 RES1    0.0000
     18 C12       -0.2875    9.1864    7.0075 C.ar      1 RES1    0.0000
     19 C13        0.9422    9.6104    7.4519 C.ar      1 RES1    0.0000
     20 C14        1.7037    9.0502    8.4218 C.ar      1 RES1    0.0000
     21 C15        1.1290    7.9558    9.0386 C.ar      1 RES1    0.0000
     22 C16       -0.0670    7.4424    8.6736 C.ar      1 RES1    0.0000
     23 H1        -6.9524    8.3445    2.8033 H         1 RES1    0.0000
     24 H2        -7.4954    8.7176    4.4323 H         1 RES1    0.0000
     25 H3        -7.7477    9.7777    2.9656 H         1 RES1    0.0000
     26 H4        -3.2421   11.0654    5.6557 H         1 RES1    0.0000
     27 H5        -2.1946   11.5612    4.4644 H         1 RES1    0.0000
     28 H6        -3.7856   11.8615    4.4019 H         1 RES1    0.0000
     29 H7        -5.7188    7.7137    5.1961 H         1 RES1    0.0000
     30 H8        -4.8286    6.0508    7.0092 H         1 RES1    0.0000
     31 H9        -2.5913    5.9084    8.4286 H         1 RES1    0.0000
     32 H10       -0.7055    9.5907    6.0494 H         1 RES1    0.0000
     33 H11        2.5960    9.4109    8.6871 H         1 RES1    0.0000
     34 H12        1.6197    7.5017    9.5472 H         1 RES1    0.0000
     35 H13       -0.6606    6.6151    9.0487 H         1 RES1    0.0000
@<TRIPOS>BOND
     1    1    7 2
     2    2    9 2
     3    3   13 1
     4    4    6 2
     5    5    6 2
     6    6   19 1
     7    7    8 1
     8    8   23 1
     9    9   10 1
    10   10   26 1
    11   11    7 1
    12   12   11 2
    13   13   12 1
    14   14   13 2
    15   15   14 1
    16   16    3 1
    17   17   16 1
    18   18   17 ar
    19   19   18 ar
    20   20   19 ar
    21   21   20 ar
    22   22   17 ar
    23   24    8 1
    24   25    8 1
    25   27   10 1
    26   28   10 1
    27   29   12 1
    28   30   14 1
    29   31   15 1
    30   32   18 1
    31   33   20 1
    32   34   21 1
    33   35   22 1
    34    9   11 1
    35   15   16 2
    36   21   22 ar
@<TRIPOS>SUBSTRUCTURE
     1 RES1 1

@<TRIPOS>CRYSIN
   8.0230   10.3930   19.0920  90.0000 117.7400  90.0000  14 1

