# MOL2 file generated by ConQuest
# Please check atom types

@<TRIPOS>MOLECULE
HEKWUP
    24    24     1
SMALL
NO_CHARGES
****
Generated from CSD

@<TRIPOS>ATOM
      1 N1        16.6267   19.1579    6.4466 N.am      1 RES1    0.0000
      2 C1        17.3163   20.4445    6.3221 C.3       1 RES1    0.0000
      3 C2        15.2653   19.1699    6.2088 C.2       1 RES1    0.0000
      4 O1        14.6845   20.1974    5.9091 O.2       1 RES1    0.0000
      5 N2        14.6118   17.9728    6.3131 N.am      1 RES1    0.0000
      6 C3        13.1736   17.9869    6.0217 C.3       1 RES1    0.0000
      7 C4        15.2217   16.7584    6.6406 C.2       1 RES1    0.0000
      8 O2        14.5163   15.7469    6.6955 O.2       1 RES1    0.0000
      9 C5        16.6177   16.8048    6.9180 C.2       1 RES1    0.0000
     10 C6        17.2485   15.5740    7.3422 C.2       1 RES1    0.0000
     11 N3        18.5044   15.4847    7.5751 N.2       1 RES1    0.0000
     12 O3        18.8450   14.1884    8.0077 O.3       1 RES1    0.0000
     13 C7        17.2956   18.0194    6.8144 C.2       1 RES1    0.0000
     14 N4        18.6041   18.1147    7.0606 N.3       1 RES1    0.0000
     15 H1        16.7979   21.0666    5.6184 H         1 RES1    0.0000
     16 H2        17.4670   20.9281    7.2803 H         1 RES1    0.0000
     17 H3        18.2746   20.3282    5.8479 H         1 RES1    0.0000
     18 H4        12.7830   16.9825    6.0287 H         1 RES1    0.0000
     19 H5        12.9445   18.4361    5.0691 H         1 RES1    0.0000
     20 H6        12.7138   18.8284    6.5085 H         1 RES1    0.0000
     21 H7        16.5902   14.7212    7.4402 H         1 RES1    0.0000
     22 H8        19.8436   14.2367    8.1286 H         1 RES1    0.0000
     23 H9        19.1283   18.9207    7.0439 H         1 RES1    0.0000
     24 H10       18.9899   17.3055    7.3638 H         1 RES1    0.0000
@<TRIPOS>BOND
     1    1    2 1
     2    2   15 1
     3    3    1 1
     4    4    3 2
     5    5    3 1
     6    6    5 1
     7    7    5 1
     8    8    7 2
     9    9    7 1
    10   10    9 1
    11   11   10 2
    12   12   11 1
    13   13    1 1
    14   14   13 1
    15   16    2 1
    16   17    2 1
    17   18    6 1
    18   19    6 1
    19   20    6 1
    20   21   10 1
    21   22   12 1
    22   23   14 1
    23   24   14 1
    24    9   13 2
@<TRIPOS>SUBSTRUCTURE
     1 RES1 1

@<TRIPOS>CRYSIN
  23.0740   23.0740    6.9535  90.0000  90.0000  90.0000  88 1

