# MOL2 file generated by ConQuest
# Please check atom types

@<TRIPOS>MOLECULE
HEKWIP
    41    43     2
SMALL
NO_CHARGES
****
Generated from CSD

@<TRIPOS>ATOM
      1 C1         2.6645    5.7702    0.3744 C.3       1 RES1    0.0000
      2 O1         3.2858    4.8042    1.2658 O.3       1 RES1    0.0000
      3 N1         3.0735    5.1761    2.6142 N.2       1 RES1    0.0000
      4 C2         2.3634    6.2347    2.6670 C.2       1 RES1    0.0000
      5 C3         2.0044    6.8028    1.3278 C.3       1 RES1    0.0000
      6 C4         3.0108    7.8752    0.8477 C.3       1 RES1    0.0000
      7 N2         2.4768    8.8607   -0.0919 N.am      1 RES1    0.0000
      8 N3         2.7370    8.5331   -1.4174 N.2       1 RES1    0.0000
      9 C5         3.4240    7.4561   -1.4151 C.2       1 RES1    0.0000
     10 C6         3.6762    6.8583   -0.0942 C.3       1 RES1    0.0000
     11 C7         1.8685    5.0198   -0.6478 C.3       1 RES1    0.0000
     12 C8         1.9869    6.8380    3.9581 C.ar      1 RES1    0.0000
     13 C9         2.9477    7.5264    4.7276 C.ar      1 RES1    0.0000
     14 C10        2.5374    8.1297    5.8992 C.ar      1 RES1    0.0000
     15 C11        1.2528    8.0418    6.3380 C.ar      1 RES1    0.0000
     16 C12        0.3226    7.3395    5.5891 C.ar      1 RES1    0.0000
     17 C13        0.6650    6.7436    4.3853 C.ar      1 RES1    0.0000
     18 C14        4.3886    7.5986    4.3164 C.3       1 RES1    0.0000
     19 C15       -0.3709    6.0145    3.5859 C.3       1 RES1    0.0000
     20 C16        1.7061    9.9211    0.2412 C.2       1 RES1    0.0000
     21 O2         1.1912   10.6928   -0.5146 O.2       1 RES1    0.0000
     22 O3         1.6336    9.9664    1.5667 O.3       1 RES1    0.0000
     23 C17        0.8089   11.0398    2.1272 C.3       1 RES1    0.0000
     24 C18        1.0180   10.9926    3.6227 C.3       1 RES1    0.0000
     25 C19        0.3624   10.6335    3.4412 Du        2 SUP2    0.0000
     26 H1         0.9959    7.0045    1.2060 H         1 RES1    0.0000
     27 H2         3.4864    8.3110    1.4909 H         1 RES1    0.0000
     28 H3         3.8015    7.0434   -2.2581 H         1 RES1    0.0000
     29 H4         4.6303    6.6566    0.1195 H         1 RES1    0.0000
     30 H5         2.4463    4.5303   -1.2106 H         1 RES1    0.0000
     31 H6         1.2280    4.4424   -0.2067 H         1 RES1    0.0000
     32 H7         1.4643    5.6527   -1.2681 H         1 RES1    0.0000
     33 H8         3.1088    8.5729    6.4988 H         1 RES1    0.0000
     34 H9         0.9804    8.4757    7.1948 H         1 RES1    0.0000
     35 H10       -0.5333    7.3302    5.9681 H         1 RES1    0.0000
     36 H11        4.4633    7.5301    3.3217 H         1 RES1    0.0000
     37 H12        4.6736    8.5174    4.6197 H         1 RES1    0.0000
     38 H13        4.9174    6.9009    4.7943 H         1 RES1    0.0000
     39 H14       -1.1443    5.7794    4.0844 H         1 RES1    0.0000
     40 H15        0.1324    5.1669    3.3539 H         1 RES1    0.0000
     41 H16       -0.5345    6.4678    2.7520 H         1 RES1    0.0000
@<TRIPOS>BOND
     1    1    2 1
     2    2    3 1
     3    3    4 2
     4    4    5 1
     5    5    1 1
     6    6    5 1
     7    7    6 1
     8    8    7 1
     9    9    8 2
    10   10    1 1
    11   11    1 1
    12   12    4 1
    13   13   12 ar
    14   14   13 ar
    15   15   14 ar
    16   16   15 ar
    17   17   12 ar
    18   18   13 1
    19   19   17 1
    20   20    7 1
    21   21   20 2
    22   22   20 1
    23   23   22 1
    24   24   23 1
    25   26    5 1
    26   27    6 1
    27   28    9 1
    28   29   10 1
    29   30   11 1
    30   31   11 1
    31   32   11 1
    32   33   14 1
    33   34   15 1
    34   35   16 1
    35   36   18 1
    36   37   18 1
    37   38   18 1
    38   39   19 1
    39   40   19 1
    40   41   19 1
    41    6   10 1
    42    9   10 1
    43   16   17 ar
@<TRIPOS>SUBSTRUCTURE
     1 RES1 1
     2 SUP2 25

@<TRIPOS>CRYSIN
   8.4140    9.2530   23.3800  90.0000 100.7200  90.0000  14 1

