# MOL2 file generated by ConQuest
# Please check atom types

@<TRIPOS>MOLECULE
HELBIJ
    29    23     2
SMALL
NO_CHARGES
****
Generated from CSD

@<TRIPOS>ATOM
      1 O1        -0.7858    0.9761    6.6087 O.3       1 RES1    0.0000
      2 N1         0.0501    1.1243    7.7603 N.2       1 RES1    0.0000
      3 O2         4.2856    2.9553   12.0978 O.3       1 RES1    0.0000
      4 C1         1.7072    2.3520    8.8839 C.ar      1 RES1    0.0000
      5 C2         2.7145    3.3033    8.8713 C.ar      1 RES1    0.0000
      6 C3         3.5654    3.5436    9.9343 C.ar      1 RES1    0.0000
      7 C4         3.4114    2.7511   11.0742 C.ar      1 RES1    0.0000
      8 C5         2.3968    1.8090   11.1371 C.ar      1 RES1    0.0000
      9 C6         1.5590    1.6150   10.0600 C.ar      1 RES1    0.0000
     10 C7         0.8350    2.1322    7.7015 C.2       1 RES1    0.0000
     11 C8         0.8765    3.0668    6.5332 C.3       1 RES1    0.0000
     12 C9         4.6180    4.6118    9.8792 C.3       1 RES1    0.0000
     13 H1         2.8251    3.8113    8.0993 H         1 RES1    0.0000
     14 H2         2.2808    1.3053   11.9107 H         1 RES1    0.0000
     15 H3         0.8810    0.9804   10.1182 H         1 RES1    0.0000
     16 H4         0.2511    2.7732    5.8649 H         1 RES1    0.0000
     17 H5         1.7618    3.0744    6.1606 H         1 RES1    0.0000
     18 H6         0.6435    3.9514    6.8225 H         1 RES1    0.0000
     19 H7         1.5196    3.7596    6.6999 Du        2 SUP2    0.0000
     20 H8         0.0089    3.4585    6.4043 Du        2 SUP2    0.0000
     21 H9         1.1280    2.5809    5.7439 Du        2 SUP2    0.0000
     22 H10        5.1046    4.6242   10.7063 H         1 RES1    0.0000
     23 H11        4.2015    5.4657    9.7408 H         1 RES1    0.0000
     24 H12        5.2219    4.4292    9.1559 H         1 RES1    0.0000
     25 H13        4.5812    5.0546    9.0286 Du        2 SUP2    0.0000
     26 H14        5.4840    4.2137    9.9956 Du        2 SUP2    0.0000
     27 H15        4.4628    5.2502   10.5789 Du        2 SUP2    0.0000
     28 H16       -1.3311    0.1595    6.9735 H         1 RES1    0.0000
     29 H17        4.0590    2.4500   12.7519 H         1 RES1    0.0000
@<TRIPOS>BOND
     1    1    2 1
     2    2   10 2
     3    3    7 1
     4    4    5 ar
     5    5    6 ar
     6    6    7 ar
     7    7    8 ar
     8    8    9 ar
     9    9    4 ar
    10   10    4 1
    11   11   10 1
    12   12    6 1
    13   13    5 1
    14   14    8 1
    15   15    9 1
    16   16   11 1
    17   17   11 1
    18   18   11 1
    19   22   12 1
    20   23   12 1
    21   24   12 1
    22   28    1 1
    23   29    3 1
@<TRIPOS>SUBSTRUCTURE
     1 RES1 1
     2 SUP2 19

@<TRIPOS>CRYSIN
  10.2730    5.3870   15.8430  90.0000  97.0350  90.0000 231 1

