# MOL2 file generated by ConQuest
# Please check atom types

@<TRIPOS>MOLECULE
HELBOP
    46    46     2
SMALL
NO_CHARGES
****
Generated from CSD

@<TRIPOS>ATOM
      1 C1        -3.7791    8.1699    9.3644 C.ar      1 RES1    0.0000
      2 C2        -4.5730    7.5292    8.3887 C.ar      1 RES1    0.0000
      3 C3        -5.9465    7.5578    8.4583 C.ar      1 RES1    0.0000
      4 C4        -6.5791    8.1940    9.4985 C.ar      1 RES1    0.0000
      5 C5        -5.8411    8.8220   10.4722 C.ar      1 RES1    0.0000
      6 C6        -4.4675    8.8071   10.3994 C.ar      1 RES1    0.0000
      7 C7        -2.3098    8.1569    9.3242 C.2       1 RES1    0.0000
      8 C8        -1.4877    8.8772   10.3545 C.3       1 RES1    0.0000
      9 C9        -1.1688    7.9991   11.5399 C.3       1 RES1    0.0000
     10 N1        -1.7766    7.4523    8.3863 N.2       1 RES1    0.0000
     11 O1        -0.3785    7.4489    8.4225 O.3       1 RES1    0.0000
     12 O2        -4.0065    6.8674    7.3339 O.3       1 RES1    0.0000
     13 C10       -2.5970   10.9846   13.6113 C.ar      2 RES2    0.0000
     14 C11       -1.7768   11.7841   12.7987 C.ar      2 RES2    0.0000
     15 C12       -0.4016   11.7357   12.9079 C.ar      2 RES2    0.0000
     16 C13        0.1940   10.9250   13.8469 C.ar      2 RES2    0.0000
     17 C14       -0.5825   10.1563   14.6840 C.ar      2 RES2    0.0000
     18 C15       -1.9493   10.1805   14.5525 C.ar      2 RES2    0.0000
     19 C16       -4.0671   10.9857   13.4919 C.2       2 RES2    0.0000
     20 C17       -4.9126    9.9603   14.1992 C.3       2 RES2    0.0000
     21 C18       -5.4040   10.4555   15.5425 C.3       2 RES2    0.0000
     22 N2        -4.5762   11.9135   12.7631 N.2       2 RES2    0.0000
     23 O3        -5.9748   11.8610   12.6986 O.3       2 RES2    0.0000
     24 O4        -2.3070   12.6306   11.8697 O.3       2 RES2    0.0000
     25 H1        -6.4460    7.1154    7.7744 H         1 RES1    0.0000
     26 H2        -7.5346    8.1879    9.5134 H         1 RES1    0.0000
     27 H3        -6.2816    9.2649   11.2221 H         1 RES1    0.0000
     28 H4        -3.9394    9.2324   11.0393 H         1 RES1    0.0000
     29 H5        -0.6665    9.1852    9.9157 H         1 RES1    0.0000
     30 H6        -1.9413    9.7075   10.6282 H         1 RES1    0.0000
     31 H7        -0.6314    8.5302   12.1629 H         1 RES1    0.0000
     32 H8        -0.6711    7.1331   11.3205 H         1 RES1    0.0000
     33 H9        -2.0185    7.6760   12.0368 H         1 RES1    0.0000
     34 H10       -0.1647    6.9103    7.7883 H         1 RES1    0.0000
     35 H11       -3.0582    6.8837    7.4591 H         1 RES1    0.0000
     36 H12        0.1332   12.2243   12.3066 H         2 RES2    0.0000
     37 H13        1.1448   10.9098   13.9019 H         2 RES2    0.0000
     38 H14       -0.1711    9.5732   15.3180 H         2 RES2    0.0000
     39 H15       -2.5200    9.6426   15.1529 H         2 RES2    0.0000
     40 H16       -5.7044    9.7576   13.6270 H         2 RES2    0.0000
     41 H17       -4.3925    9.1056   14.2638 H         2 RES2    0.0000
     42 H18       -6.0243    9.8521   15.8906 H         2 RES2    0.0000
     43 H19       -5.8901   11.3288   15.4063 H         2 RES2    0.0000
     44 H20       -4.6687   10.6133   16.1617 H         2 RES2    0.0000
     45 H21       -6.1472   12.6522   12.2789 H         2 RES2    0.0000
     46 H22       -3.2778   12.5637   12.0027 H         2 RES2    0.0000
@<TRIPOS>BOND
     1    1    2 ar
     2    2    3 ar
     3    3    4 ar
     4    4    5 ar
     5    5    6 ar
     6    6    1 ar
     7    7    1 1
     8    8    7 1
     9    9    8 1
    10   10    7 2
    11   11   10 1
    12   12    2 1
    13   13   14 ar
    14   14   15 ar
    15   15   16 ar
    16   16   17 ar
    17   17   18 ar
    18   18   13 ar
    19   19   13 1
    20   20   19 1
    21   21   20 1
    22   22   19 2
    23   23   22 1
    24   24   14 1
    25   25    3 1
    26   26    4 1
    27   27    5 1
    28   28    6 1
    29   29    8 1
    30   30    8 1
    31   31    9 1
    32   32    9 1
    33   33    9 1
    34   34   11 1
    35   35   12 1
    36   36   15 1
    37   37   16 1
    38   38   17 1
    39   39   18 1
    40   40   20 1
    41   41   20 1
    42   42   21 1
    43   43   21 1
    44   44   21 1
    45   45   23 1
    46   46   24 1
@<TRIPOS>SUBSTRUCTURE
     1 RES1 1
     2 RES2 13

@<TRIPOS>CRYSIN
   9.2740   14.7530   13.2900  90.0000 108.4000  90.0000 231 1

