# MOL2 file generated by ConQuest
# Please check atom types

@<TRIPOS>MOLECULE
HELCAC
    76    80     2
SMALL
NO_CHARGES
****
Generated from CSD

@<TRIPOS>ATOM
      1 O1         5.3585    0.9992    1.2357 O.3       1 RES1    0.0000
      2 N1         6.3070   -0.0460    1.5881 N.3       1 RES1    0.0000
      3 C1         6.0633    2.1741    0.7562 C.3       1 RES1    0.0000
      4 C2         4.9281    3.1311    0.3657 C.ar      1 RES1    0.0000
      5 C3         3.6247    2.9413    0.7858 C.ar      1 RES1    0.0000
      6 C4         2.6285    3.8288    0.4132 C.ar      1 RES1    0.0000
      7 C5         2.9089    4.9048   -0.3670 C.ar      1 RES1    0.0000
      8 C6         4.1913    5.1243   -0.7662 C.ar      1 RES1    0.0000
      9 C7         5.1925    4.2435   -0.4044 C.ar      1 RES1    0.0000
     10 C8         6.9213    2.7421    1.8892 C.ar      1 RES1    0.0000
     11 C9         6.4675    3.7741    2.6888 C.ar      1 RES1    0.0000
     12 C10        7.2240    4.2732    3.7327 C.ar      1 RES1    0.0000
     13 C11        8.4601    3.7362    3.9970 C.ar      1 RES1    0.0000
     14 C12        8.9250    2.6939    3.2297 C.ar      1 RES1    0.0000
     15 C13        8.1665    2.1978    2.1905 C.ar      1 RES1    0.0000
     16 C14        6.8503    1.8209   -0.5072 C.ar      1 RES1    0.0000
     17 C15        6.3208    0.8986   -1.3993 C.ar      1 RES1    0.0000
     18 C16        6.9702    0.6044   -2.5857 C.ar      1 RES1    0.0000
     19 C17        8.1539    1.2145   -2.8924 C.ar      1 RES1    0.0000
     20 C18        8.6828    2.1343   -2.0352 C.ar      1 RES1    0.0000
     21 C19        8.0294    2.4465   -0.8522 C.ar      1 RES1    0.0000
     22 H1         6.0176   -0.7335    1.0505 H         1 RES1    0.0000
     23 H2         5.9615   -0.3590    2.3531 H         1 RES1    0.0000
     24 H3         3.4093    2.1927    1.3307 H         1 RES1    0.0000
     25 H4         1.7397    3.6764    0.7003 H         1 RES1    0.0000
     26 H5         2.2202    5.4965   -0.6303 H         1 RES1    0.0000
     27 H6         4.3997    5.8850   -1.2886 H         1 RES1    0.0000
     28 H7         6.0811    4.4147   -0.6863 H         1 RES1    0.0000
     29 H8         5.6126    4.1515    2.5212 H         1 RES1    0.0000
     30 H9         6.8919    4.9802    4.2581 H         1 RES1    0.0000
     31 H10        8.9919    4.0781    4.7063 H         1 RES1    0.0000
     32 H11        9.7778    2.3110    3.4177 H         1 RES1    0.0000
     33 H12        8.4973    1.4770    1.6668 H         1 RES1    0.0000
     34 H13        5.5058    0.4634   -1.1906 H         1 RES1    0.0000
     35 H14        6.5924   -0.0206   -3.1936 H         1 RES1    0.0000
     36 H15        8.6116    1.0048   -3.6978 H         1 RES1    0.0000
     37 H16        9.5022    2.5653   -2.2551 H         1 RES1    0.0000
     38 H17        8.4011    3.1043   -0.2661 H         1 RES1    0.0000
     39 O2         6.1482    0.6181    6.0989 O.3       2 RES2    0.0000
     40 N2         6.0038    0.8377    4.6777 N.3       2 RES2    0.0000
     41 C20        5.3125   -0.4888    6.5206 C.3       2 RES2    0.0000
     42 C21        5.7073   -0.7005    7.9864 C.ar      2 RES2    0.0000
     43 C22        6.4635    0.2173    8.6736 C.ar      2 RES2    0.0000
     44 C23        6.7895    0.0127   10.0093 C.ar      2 RES2    0.0000
     45 C24        6.3590   -1.0830   10.6777 C.ar      2 RES2    0.0000
     46 C25        5.6081   -1.9971   10.0100 C.ar      2 RES2    0.0000
     47 C26        5.2833   -1.8112    8.6852 C.ar      2 RES2    0.0000
     48 C27        3.8339   -0.0910    6.4660 C.ar      2 RES2    0.0000
     49 C28        3.4431    1.2264    6.3283 C.ar      2 RES2    0.0000
     50 C29        2.1069    1.5660    6.2709 C.ar      2 RES2    0.0000
     51 C30        1.1374    0.6269    6.3745 C.ar      2 RES2    0.0000
     52 C31        1.5003   -0.6685    6.5552 C.ar      2 RES2    0.0000
     53 C32        2.8370   -1.0300    6.6028 C.ar      2 RES2    0.0000
     54 C33        5.6504   -1.7067    5.6561 C.ar      2 RES2    0.0000
     55 C34        6.8132   -2.4179    5.8808 C.ar      2 RES2    0.0000
     56 C35        7.1829   -3.4729    5.0705 C.ar      2 RES2    0.0000
     57 C36        6.4020   -3.8459    4.0256 C.ar      2 RES2    0.0000
     58 C37        5.2720   -3.1384    3.7594 C.ar      2 RES2    0.0000
     59 C38        4.8938   -2.0780    4.5617 C.ar      2 RES2    0.0000
     60 H18        6.7808    1.0759    4.2581 H         2 RES2    0.0000
     61 H19        5.7501    1.8675    4.6923 H         2 RES2    0.0000
     62 H20        6.7632    0.9969    8.2360 H         2 RES2    0.0000
     63 H21        7.3215    0.6503   10.4631 H         2 RES2    0.0000
     64 H22        6.5747   -1.2081   11.5977 H         2 RES2    0.0000
     65 H23        5.3023   -2.7720   10.4631 H         2 RES2    0.0000
     66 H24        4.7538   -2.4615    8.2360 H         2 RES2    0.0000
     67 H25        4.1015    1.9026    6.2751 H         2 RES2    0.0000
     68 H26        1.8569    2.4693    6.1490 H         2 RES2    0.0000
     69 H27        0.2246    0.8702    6.3171 H         2 RES2    0.0000
     70 H28        0.8298   -1.3278    6.6533 H         2 RES2    0.0000
     71 H29        3.0743   -1.9345    6.7373 H         2 RES2    0.0000
     72 H30        7.3701   -2.1752    6.6112 H         2 RES2    0.0000
     73 H31        7.9867   -3.9448    5.2526 H         2 RES2    0.0000
     74 H32        6.6412   -4.5914    3.4877 H         2 RES2    0.0000
     75 H33        4.7352   -3.3745    3.0115 H         2 RES2    0.0000
     76 H34        4.1023   -1.5982    4.3561 H         2 RES2    0.0000
@<TRIPOS>BOND
     1    1    2 1
     2    2   22 1
     3    3    1 1
     4    4    3 1
     5    5    4 ar
     6    6    5 ar
     7    7    6 ar
     8    8    7 ar
     9    9    4 ar
    10   10    3 1
    11   11   10 ar
    12   12   11 ar
    13   13   12 ar
    14   14   13 ar
    15   15   10 ar
    16   16    3 1
    17   17   16 ar
    18   18   17 ar
    19   19   18 ar
    20   20   19 ar
    21   21   16 ar
    22   23    2 1
    23   24    5 1
    24   25    6 1
    25   26    7 1
    26   27    8 1
    27   28    9 1
    28   29   11 1
    29   30   12 1
    30   31   13 1
    31   32   14 1
    32   33   15 1
    33   34   17 1
    34   35   18 1
    35   36   19 1
    36   37   20 1
    37   38   21 1
    38   39   40 1
    39   40   60 1
    40   41   39 1
    41   42   41 1
    42   43   42 ar
    43   44   43 ar
    44   45   44 ar
    45   46   45 ar
    46   47   42 ar
    47   48   41 1
    48   49   48 ar
    49   50   49 ar
    50   51   50 ar
    51   52   51 ar
    52   53   48 ar
    53   54   41 1
    54   55   54 ar
    55   56   55 ar
    56   57   56 ar
    57   58   57 ar
    58   59   54 ar
    59   61   40 1
    60   62   43 1
    61   63   44 1
    62   64   45 1
    63   65   46 1
    64   66   47 1
    65   67   49 1
    66   68   50 1
    67   69   51 1
    68   70   52 1
    69   71   53 1
    70   72   55 1
    71   73   56 1
    72   74   57 1
    73   75   58 1
    74   76   59 1
    75    8    9 ar
    76   14   15 ar
    77   20   21 ar
    78   46   47 ar
    79   52   53 ar
    80   58   59 ar
@<TRIPOS>SUBSTRUCTURE
     1 RES1 1
     2 RES2 39

@<TRIPOS>CRYSIN
   8.8763   12.3430   15.0330  68.7080  85.3800  77.5000   2 1

