# MOL2 file generated by ConQuest
# Please check atom types

@<TRIPOS>MOLECULE
HEMVAW
    71    59     2
SMALL
NO_CHARGES
****
Generated from CSD

@<TRIPOS>ATOM
      1 O1         5.6191    3.7404    6.6250 O.3       1 RES1    0.0000
      2 O2         6.0168    6.2747    6.8990 O.3       1 RES1    0.0000
      3 O3         3.8176    6.8808    1.4961 O.2       1 RES1    0.0000
      4 O4         3.6439    8.3663    3.0449 O.2       1 RES1    0.0000
      5 O5         2.1882    3.3618    2.9536 O.3       1 RES1    0.0000
      6 O6         0.9796    5.1053    3.6470 O.2       1 RES1    0.0000
      7 N1         3.8737    7.2274    2.6770 N.pl3     1 RES1    0.0000
      8 N2         0.2081    2.9832    3.9892 N.am      1 RES1    0.0000
      9 C1         3.9666    4.8946    3.5351 C.ar      1 RES1    0.0000
     10 C2         5.1400    4.5144    5.6255 C.ar      1 RES1    0.0000
     11 C3         5.3614    5.8900    5.7683 C.ar      1 RES1    0.0000
     12 C4         4.2638    6.2365    3.6779 C.ar      1 RES1    0.0000
     13 C5         3.1243    4.3098    2.3953 C.3       1 RES1    0.0000
     14 H1         2.7094    5.0381    1.9489 H         1 RES1    0.0000
     15 C6         1.0890    3.9068    3.5479 C.2       1 RES1    0.0000
     16 C7        -1.1661    3.5221    4.3532 C.3       1 RES1    0.0000
     17 C8         0.4750    1.5145    3.8760 C.3       1 RES1    0.0000
     18 C9         4.4409    4.0503    4.5410 C.ar      1 RES1    0.0000
     19 H2         4.2620    3.1190    4.4793 H         1 RES1    0.0000
     20 C10        4.9374    6.7434    4.7958 C.ar      1 RES1    0.0000
     21 H3         5.0840    7.6793    4.8794 H         1 RES1    0.0000
     22 C11       -0.5197    0.7206    4.7250 C.3       1 RES1    0.0000
     23 H4        -0.2710    0.8382    5.6345 H         1 RES1    0.0000
     24 H5        -0.4356   -0.1954    4.4896 H         1 RES1    0.0000
     25 C12        5.4286    2.3267    6.5376 C.3       1 RES1    0.0000
     26 H6         5.8098    1.9068    7.2991 H         1 RES1    0.0000
     27 H7         4.4972    2.1419    6.5067 H         1 RES1    0.0000
     28 H8         5.8432    1.9939    5.7516 H         1 RES1    0.0000
     29 C13        6.1370    7.6793    7.1293 C.3       1 RES1    0.0000
     30 H9         6.6017    7.8289    7.9449 H         1 RES1    0.0000
     31 H10        6.6181    8.0777    6.4141 H         1 RES1    0.0000
     32 H11        5.2706    8.0655    7.1833 H         1 RES1    0.0000
     33 C14        3.9819    3.4931    1.4253 C.3       1 RES1    0.0000
     34 H12        3.4381    3.1465    0.7281 H         1 RES1    0.0000
     35 H13        4.6558    4.0518    1.0549 H         1 RES1    0.0000
     36 H14        4.3896    2.7740    1.8962 H         1 RES1    0.0000
     37 C15        1.8765    1.1542    4.4394 C.3       1 RES1    0.0000
     38 H15        2.0280    0.2198    4.3558 H         1 RES1    0.0000
     39 H16        2.5423    1.6259    3.9532 H         1 RES1    0.0000
     40 H17        1.9173    1.4015    5.3554 H         1 RES1    0.0000
     41 C16        0.3791    1.0855    2.4133 C.3       1 RES1    0.0000
     42 H18        0.5581    0.1557    2.3477 H         1 RES1    0.0000
     43 H19       -0.4922    1.2641    2.0814 H         1 RES1    0.0000
     44 H20        1.0179    1.5679    1.9026 H         1 RES1    0.0000
     45 C17       -1.9362    1.1038    4.6221 C.3       1 RES1    0.0000
     46 H21       -2.3145    1.1069    5.4930 H         1 RES1    0.0000
     47 H22       -2.3616    0.4382    4.0947 H         1 RES1    0.0000
     48 H23       -2.4885    0.5084    5.1161 Du        2 SUP2    0.0000
     49 H24       -2.2034    1.0992    3.7100 Du        2 SUP2    0.0000
     50 C18       -2.1730    2.3633    3.9827 C.3       1 RES1    0.0000
     51 H25       -2.1899    2.2488    3.0398 H         1 RES1    0.0000
     52 H26       -3.0267    2.6534    4.2825 H         1 RES1    0.0000
     53 C19       -1.9863    2.4916    5.1920 Du        2 SUP2    0.0000
     54 H27       -2.8848    2.7801    5.1958 Du        2 SUP2    0.0000
     55 H28       -1.6558    2.4748    6.0822 Du        2 SUP2    0.0000
     56 C20       -1.5595    4.5648    3.2932 C.3       1 RES1    0.0000
     57 H29       -2.4161    4.9159    3.5119 H         1 RES1    0.0000
     58 H30       -0.9258    5.2823    3.2804 H         1 RES1    0.0000
     59 H31       -1.5947    4.1831    2.4185 H         1 RES1    0.0000
     60 C21       -1.2020    4.0305    5.7246 C.3       1 RES1    0.0000
     61 H32       -2.0513    4.3816    5.9561 H         1 RES1    0.0000
     62 H33       -0.9670    3.3282    6.3163 H         1 RES1    0.0000
     63 H34       -0.5451    4.7175    5.7889 H         1 RES1    0.0000
     64 C22       -0.9776    4.7022    5.4287 Du        2 SUP2    0.0000
     65 H35       -1.8269    5.0533    5.6602 Du        2 SUP2    0.0000
     66 H36       -0.5424    4.3663    6.2005 Du        2 SUP2    0.0000
     67 H37       -0.4452    5.4045    5.0556 Du        2 SUP2    0.0000
     68 C23       -1.9172    4.0915    3.2289 Du        2 SUP2    0.0000
     69 H38       -2.7655    4.4274    3.4991 Du        2 SUP2    0.0000
     70 H39       -1.3954    4.8091    2.8558 Du        2 SUP2    0.0000
     71 H40       -2.0397    3.4198    2.5728 Du        2 SUP2    0.0000
@<TRIPOS>BOND
     1    1   10 1
     2    2   11 1
     3    3    7 2
     4    4    7 2
     5    5   13 1
     6    6   15 2
     7    7   12 1
     8    8   15 1
     9    9   12 ar
    10   10   11 ar
    11   11   20 ar
    12   12   20 ar
    13   13    9 1
    14   14   13 1
    15   15    5 1
    16   16    8 1
    17   17    8 1
    18   18    9 ar
    19   19   18 1
    20   20   21 1
    21   22   17 1
    22   23   22 1
    23   24   22 1
    24   25    1 1
    25   26   25 1
    26   27   25 1
    27   28   25 1
    28   29    2 1
    29   30   29 1
    30   31   29 1
    31   32   29 1
    32   33   13 1
    33   34   33 1
    34   35   33 1
    35   36   33 1
    36   37   17 1
    37   38   37 1
    38   39   37 1
    39   40   37 1
    40   41   17 1
    41   42   41 1
    42   43   41 1
    43   44   41 1
    44   45   22 1
    45   46   45 1
    46   47   45 1
    47   50   16 1
    48   51   50 1
    49   52   50 1
    50   56   16 1
    51   57   56 1
    52   58   56 1
    53   59   56 1
    54   60   16 1
    55   61   60 1
    56   62   60 1
    57   63   60 1
    58   10   18 ar
    59   45   50 1
@<TRIPOS>SUBSTRUCTURE
     1 RES1 1
     2 SUP2 48

@<TRIPOS>CRYSIN
  10.6850   15.2669   13.2692  90.0000 104.1930  90.0000  14 1

