# MOL2 file generated by ConQuest
# Please check atom types

@<TRIPOS>MOLECULE
HENKIU01
    29    29     1
SMALL
NO_CHARGES
****
Generated from CSD

@<TRIPOS>ATOM
      1 O1         5.0620    8.9845    5.6595 O.2       1 RES1    0.0000
      2 O2         3.2368   16.9204    3.1579 O.2       1 RES1    0.0000
      3 O3         3.8317   17.6704    5.0825 O.2       1 RES1    0.0000
      4 O4         5.7566    9.0210    9.7038 O.2       1 RES1    0.0000
      5 N1         4.6255   11.5259    6.0110 N.pl3     1 RES1    0.0000
      6 H1         4.6913   10.8324    5.4237 H         1 RES1    0.0000
      7 N2         4.8002   11.2648    7.2821 N.2       1 RES1    0.0000
      8 N3         3.6378   16.7500    4.2980 N.pl3     1 RES1    0.0000
      9 C1         4.2282   13.1018    4.2666 C.ar      1 RES1    0.0000
     10 H2         4.2956   12.3801    3.6339 H         1 RES1    0.0000
     11 C2         3.9727   14.3764    3.8335 C.ar      1 RES1    0.0000
     12 H3         3.9095   14.5720    2.9274 H         1 RES1    0.0000
     13 C3         3.8941   15.3930    4.7589 C.ar      1 RES1    0.0000
     14 C4         4.0592   15.1508    6.1000 C.ar      1 RES1    0.0000
     15 H4         4.0079   15.8604    6.6902 H         1 RES1    0.0000
     16 C5         4.2904   13.8710    6.5362 C.ar      1 RES1    0.0000
     17 H5         4.4034   13.6608    7.4322 H         1 RES1    0.0000
     18 C6         4.3757   12.8454    5.6184 C.ar      1 RES1    0.0000
     19 C7         5.0172   10.0531    7.7317 C.2       1 RES1    0.0000
     20 C8         5.0368    8.8482    6.8735 C.2       1 RES1    0.0000
     21 C9         5.2789   10.0146    9.1885 C.2       1 RES1    0.0000
     22 C10        4.9708   11.2234   10.0049 C.3       1 RES1    0.0000
     23 H6         5.3369   11.1558   10.8563 H         1 RES1    0.0000
     24 H7         4.0935   11.3239   10.0701 H         1 RES1    0.0000
     25 H8         5.2846   12.0490    9.6151 H         1 RES1    0.0000
     26 C11        4.9660    7.4771    7.4520 C.3       1 RES1    0.0000
     27 H9         5.8640    7.2186    7.6900 H         1 RES1    0.0000
     28 H10        4.6467    6.8952    6.8128 H         1 RES1    0.0000
     29 H11        4.3866    7.4329    8.2386 H         1 RES1    0.0000
@<TRIPOS>BOND
     1    1   20 2
     2    2    8 2
     3    3    8 2
     4    4   21 2
     5    5    6 1
     6    7    5 1
     7    8   13 1
     8    9   10 1
     9   11    9 ar
    10   12   11 1
    11   13   11 ar
    12   14   13 ar
    13   15   14 1
    14   16   14 ar
    15   17   16 1
    16   18    5 1
    17   19    7 2
    18   20   19 1
    19   21   19 1
    20   22   21 1
    21   23   22 1
    22   24   22 1
    23   25   22 1
    24   26   20 1
    25   27   26 1
    26   28   26 1
    27   29   26 1
    28    9   18 ar
    29   16   18 ar
@<TRIPOS>SUBSTRUCTURE
     1 RES1 1

@<TRIPOS>CRYSIN
   7.0217   12.8331   12.7514  90.0000  97.5870  90.0000 231 1

