# MOL2 file generated by ConQuest
# Please check atom types

@<TRIPOS>MOLECULE
HENKAP
   132   144     2
SMALL
NO_CHARGES
****
Generated from CSD

@<TRIPOS>ATOM
      1 O1         0.0581    6.4178    3.4617 O.2       1 RES1    0.0000
      2 C1         2.3470    5.4911    1.2114 C.2       1 RES1    0.0000
      3 H1         2.2262    6.0619    1.9359 H         1 RES1    0.0000
      4 N1         3.3918    5.5671    0.3164 N.3       1 RES1    0.0000
      5 C2        -1.4922    5.4863    0.3913 C.ar      1 RES1    0.0000
      6 C3         3.2349    4.5759   -0.6151 C.ar      1 RES1    0.0000
      7 C4         0.3894    3.4710    2.9916 C.3       1 RES1    0.0000
      8 H2         1.0002    4.0569    3.4856 H         1 RES1    0.0000
      9 C5        -1.8293    4.8116   -0.7600 C.ar      1 RES1    0.0000
     10 H3        -1.7461    3.8866   -0.8091 H         1 RES1    0.0000
     11 C6        -0.5405    6.3141    2.3952 C.2       1 RES1    0.0000
     12 C7        -0.9105    4.9883    1.6924 C.3       1 RES1    0.0000
     13 C8         0.2577    3.9902    1.5643 C.3       1 RES1    0.0000
     14 H4        -0.0787    3.2410    1.0291 H         1 RES1    0.0000
     15 N2        -1.8536    4.3462    2.6387 N.3       1 RES1    0.0000
     16 C9        -2.9377    3.4662    2.1153 C.3       1 RES1    0.0000
     17 H5        -2.9567    3.5069    1.1359 H         1 RES1    0.0000
     18 N3         0.8922    2.0733    3.0754 N.pl3     1 RES1    0.0000
     19 C10        1.6963    2.7811   -1.1040 C.ar      1 RES1    0.0000
     20 H6         0.9347    2.2859   -0.9049 H         1 RES1    0.0000
     21 C11        1.5145    4.4617    0.8861 C.2       1 RES1    0.0000
     22 C12        4.0285    4.2525   -1.7121 C.ar      1 RES1    0.0000
     23 H7         4.8012    4.7319   -1.9073 H         1 RES1    0.0000
     24 C13       -1.5773    6.8740    0.4357 C.ar      1 RES1    0.0000
     25 O2        -2.6057    4.7594   -2.9689 O.3       1 RES1    0.0000
     26 C14       -1.0475    3.5880    3.6224 C.3       1 RES1    0.0000
     27 H8        -0.9893    4.1049    4.4531 H         1 RES1    0.0000
     28 C15       -2.2988    5.5462   -1.8570 C.ar      1 RES1    0.0000
     29 N4        -1.0418    7.3282    1.6540 N.am      1 RES1    0.0000
     30 H9        -1.0335    8.1527    1.8984 H         1 RES1    0.0000
     31 O3         0.6737    1.2935    2.1626 O.2       1 RES1    0.0000
     32 C16        4.4214    6.5947    0.2770 C.3       1 RES1    0.0000
     33 H10        4.3625    7.1377    1.0660 H         1 RES1    0.0000
     34 H11        4.2944    7.1446   -0.5001 H         1 RES1    0.0000
     35 H12        5.2862    6.1800    0.2371 H         1 RES1    0.0000
     36 O4         1.4638    1.7553    4.1143 O.2       1 RES1    0.0000
     37 C17        2.0708    3.8549   -0.2997 C.ar      1 RES1    0.0000
     38 C18       -2.0461    7.5879   -0.6397 C.ar      1 RES1    0.0000
     39 H13       -2.1109    8.5146   -0.5973 H         1 RES1    0.0000
     40 C19        2.4725    2.4641   -2.1991 C.ar      1 RES1    0.0000
     41 H14        2.2257    1.7550   -2.7477 H         1 RES1    0.0000
     42 C20       -2.5542    2.0530    2.5717 C.3       1 RES1    0.0000
     43 H15       -1.8963    1.7016    1.9360 H         1 RES1    0.0000
     44 C21       -4.9988    1.6421    3.1720 C.3       1 RES1    0.0000
     45 H16       -4.8957    1.8219    4.1199 H         1 RES1    0.0000
     46 H17       -5.7148    0.9967    3.0659 H         1 RES1    0.0000
     47 C22       -1.8333    2.3165    3.8856 C.3       1 RES1    0.0000
     48 H18       -2.4673    2.4438    4.6095 H         1 RES1    0.0000
     49 H19       -1.2416    1.5821    4.1108 H         1 RES1    0.0000
     50 C23        3.6272    3.1981   -2.4928 C.ar      1 RES1    0.0000
     51 H20        4.1347    2.9654   -3.2363 H         1 RES1    0.0000
     52 C24       -2.4219    6.9102   -1.7880 C.ar      1 RES1    0.0000
     53 H21       -2.7586    7.3823   -2.5146 H         1 RES1    0.0000
     54 C25       -3.7194    1.0615    2.6328 C.3       1 RES1    0.0000
     55 H22       -3.8857    0.7211    1.7402 H         1 RES1    0.0000
     56 H23       -3.4605    0.3109    3.1900 H         1 RES1    0.0000
     57 C26       -4.2694    3.9408    2.6801 C.3       1 RES1    0.0000
     58 H24       -4.1740    4.1057    3.6315 H         1 RES1    0.0000
     59 H25       -4.5193    4.7763    2.2557 H         1 RES1    0.0000
     60 C27       -5.3653    2.9192    2.4573 C.3       1 RES1    0.0000
     61 H26       -6.2076    3.2586    2.7997 H         1 RES1    0.0000
     62 H27       -5.4693    2.7483    1.5085 H         1 RES1    0.0000
     63 C28       -3.1337    5.3904   -4.1113 C.3       1 RES1    0.0000
     64 H28       -3.9876    5.7733   -3.8997 H         1 RES1    0.0000
     65 H29       -3.2376    4.7445   -4.8144 H         1 RES1    0.0000
     66 H30       -2.5346    6.0831   -4.4001 H         1 RES1    0.0000
     67 C29       -3.3707   10.1728   -4.1547 C.ar      2 RES2    0.0000
     68 N5        -2.7649   10.9868   -6.5016 N.3       2 RES2    0.0000
     69 C30       -1.0022   10.0502   -5.1690 C.3       2 RES2    0.0000
     70 H31       -0.8099   10.8994   -4.7191 H         2 RES2    0.0000
     71 O5        -2.6413    8.0602   -6.9166 O.2       2 RES2    0.0000
     72 C31       -3.1939   10.9626   -3.0409 C.ar      2 RES2    0.0000
     73 H32       -2.4855   11.5629   -2.9896 H         2 RES2    0.0000
     74 O6        -4.0173   11.5424   -0.8162 O.3       2 RES2    0.0000
     75 C32       -0.3527    8.9754   -4.3508 C.2       2 RES2    0.0000
     76 C33       -2.5203   10.0096   -5.3996 C.3       2 RES2    0.0000
     77 C34       -3.1030    8.7057   -5.9930 C.2       2 RES2    0.0000
     78 C35        0.2145    9.1632   -3.0507 C.ar      2 RES2    0.0000
     79 C36       -3.3101   12.3300   -6.1606 C.3       2 RES2    0.0000
     80 H33       -3.0443   12.5596   -5.2456 H         2 RES2    0.0000
     81 N6         0.9239   10.6568   -6.6534 N.pl3     2 RES2    0.0000
     82 C37       -4.8290   12.3590   -6.2582 C.3       2 RES2    0.0000
     83 H34       -5.1891   11.5958   -5.7800 H         2 RES2    0.0000
     84 H35       -5.1563   13.1616   -5.8227 H         2 RES2    0.0000
     85 N7         0.5073    7.0208   -3.6471 N.pl3     2 RES2    0.0000
     86 N8        -4.2633    8.4437   -5.3553 N.am      2 RES2    0.0000
     87 H36       -4.8401    7.8614   -5.6152 H         2 RES2    0.0000
     88 C38        0.7308    7.9131   -2.6367 C.ar      2 RES2    0.0000
     89 C39       -1.4884   11.1606   -7.2596 C.3       2 RES2    0.0000
     90 H37       -1.6218   10.9064   -8.1970 H         2 RES2    0.0000
     91 C40        1.3297    7.7444   -1.3908 C.ar      2 RES2    0.0000
     92 H38        1.6501    6.9128   -1.1247 H         2 RES2    0.0000
     93 C41       -4.1054   10.8400   -1.9891 C.ar      2 RES2    0.0000
     94 C42       -0.4975   10.1903   -6.5933 C.3       2 RES2    0.0000
     95 H39       -0.5620    9.3193   -7.0378 H         2 RES2    0.0000
     96 C43       -4.4054    9.2512   -4.2050 C.ar      2 RES2    0.0000
     97 C44        0.3560   10.2673   -2.2050 C.ar      2 RES2    0.0000
     98 H40        0.0460   11.1055   -2.4622 H         2 RES2    0.0000
     99 C45        0.9688   10.0853   -0.9798 C.ar      2 RES2    0.0000
    100 H41        1.0743   10.8147   -0.4121 H         2 RES2    0.0000
    101 C46       -1.1996   12.6610   -7.1660 C.3       2 RES2    0.0000
    102 H42       -0.7072   12.8752   -6.3583 H         2 RES2    0.0000
    103 H43       -0.6981   12.9719   -7.9366 H         2 RES2    0.0000
    104 C47       -5.1785    9.9709   -2.0936 C.ar      2 RES2    0.0000
    105 H44       -5.8002    9.9342   -1.4040 H         2 RES2    0.0000
    106 C48       -0.1330    7.6659   -4.6692 C.2       2 RES2    0.0000
    107 H45       -0.3843    7.2672   -5.4707 H         2 RES2    0.0000
    108 O7         1.3235   11.4787   -5.8452 O.2       2 RES2    0.0000
    109 C49       -5.3474    9.1586   -3.1946 C.ar      2 RES2    0.0000
    110 H46       -6.0663    8.5715   -3.2554 H         2 RES2    0.0000
    111 O8         1.6062   10.1875   -7.5603 O.2       2 RES2    0.0000
    112 C50       -2.5859   13.2569   -7.1384 C.3       2 RES2    0.0000
    113 H47       -2.5455   14.1606   -6.7612 H         2 RES2    0.0000
    114 C51       -3.2208   13.3132   -8.5321 C.3       2 RES2    0.0000
    115 H48       -2.8475   14.0649   -9.0189 H         2 RES2    0.0000
    116 H49       -2.9917   12.5042   -9.0164 H         2 RES2    0.0000
    117 C52        1.4336    8.8260   -0.5707 C.ar      2 RES2    0.0000
    118 H50        1.8177    8.7291    0.2706 H         2 RES2    0.0000
    119 C53       -5.3376   12.3310   -7.6726 C.3       2 RES2    0.0000
    120 H51       -6.3032   12.4217   -7.6711 H         2 RES2    0.0000
    121 H52       -5.1164   11.4784   -8.0791 H         2 RES2    0.0000
    122 C54       -4.7266   13.4524   -8.4888 C.3       2 RES2    0.0000
    123 H53       -5.0814   13.4279   -9.3915 H         2 RES2    0.0000
    124 H54       -4.9629   14.3068   -8.0952 H         2 RES2    0.0000
    125 C55        0.9114    5.6247   -3.6431 C.3       2 RES2    0.0000
    126 H55        0.3295    5.1248   -3.0654 H         2 RES2    0.0000
    127 H56        1.8146    5.5536   -3.3266 H         2 RES2    0.0000
    128 H57        0.8556    5.2732   -4.5347 H         2 RES2    0.0000
    129 C56       -2.8049   12.2387   -0.5421 C.3       2 RES2    0.0000
    130 H58       -2.8114   12.5460    0.3671 H         2 RES2    0.0000
    131 H59       -2.7262   12.9896   -1.1341 H         2 RES2    0.0000
    132 H60       -2.0600   11.6471   -0.6744 H         2 RES2    0.0000
@<TRIPOS>BOND
     1    1   11 2
     2    2    3 1
     3    4    2 1
     4    5    9 ar
     5    6    4 1
     6    7    8 1
     7    9   10 1
     8   11   12 1
     9   12    5 1
    10   13    7 1
    11   14   13 1
    12   15   12 1
    13   16   15 1
    14   17   16 1
    15   18    7 1
    16   19   20 1
    17   21    2 2
    18   22    6 ar
    19   23   22 1
    20   24    5 ar
    21   25   28 1
    22   26    7 1
    23   27   26 1
    24   28    9 ar
    25   29   11 1
    26   30   29 1
    27   31   18 2
    28   32    4 1
    29   33   32 1
    30   34   32 1
    31   35   32 1
    32   36   18 2
    33   37    6 ar
    34   38   24 ar
    35   39   38 1
    36   40   19 ar
    37   41   40 1
    38   42   16 1
    39   43   42 1
    40   44   45 1
    41   46   44 1
    42   47   26 1
    43   48   47 1
    44   49   47 1
    45   50   22 ar
    46   51   50 1
    47   52   28 ar
    48   53   52 1
    49   54   42 1
    50   55   54 1
    51   56   54 1
    52   57   16 1
    53   58   57 1
    54   59   57 1
    55   60   44 1
    56   61   60 1
    57   62   60 1
    58   63   25 1
    59   64   63 1
    60   65   63 1
    61   66   63 1
    62   67   72 ar
    63   68   76 1
    64   69   70 1
    65   71   77 2
    66   72   73 1
    67   74   93 1
    68   75   69 1
    69   76   67 1
    70   77   76 1
    71   78   75 1
    72   79   68 1
    73   80   79 1
    74   81   94 1
    75   82   79 1
    76   83   82 1
    77   84   82 1
    78   85   88 1
    79   86   77 1
    80   87   86 1
    81   88   78 ar
    82   89   68 1
    83   90   89 1
    84   91   88 ar
    85   92   91 1
    86   93   72 ar
    87   94   69 1
    88   95   94 1
    89   96   67 ar
    90   97   78 ar
    91   98   97 1
    92   99   97 ar
    93  100   99 1
    94  101   89 1
    95  102  101 1
    96  103  101 1
    97  104   93 ar
    98  105  104 1
    99  106   75 2
   100  107  106 1
   101  108   81 2
   102  109   96 ar
   103  110  109 1
   104  111   81 2
   105  112   79 1
   106  113  112 1
   107  114  112 1
   108  115  114 1
   109  116  114 1
   110  117   91 ar
   111  118  117 1
   112  119   82 1
   113  120  119 1
   114  121  119 1
   115  122  114 1
   116  123  122 1
   117  124  122 1
   118  125   85 1
   119  126  125 1
   120  127  125 1
   121  128  125 1
   122  129   74 1
   123  130  129 1
   124  131  129 1
   125  132  129 1
   126   12   13 1
   127   13   21 1
   128   15   26 1
   129   19   37 ar
   130   21   37 1
   131   24   29 1
   132   38   52 ar
   133   40   50 ar
   134   42   47 1
   135   44   54 1
   136   57   60 1
   137   69   76 1
   138   85  106 1
   139   86   96 1
   140   89   94 1
   141   99  117 ar
   142  101  112 1
   143  104  109 ar
   144  119  122 1
@<TRIPOS>SUBSTRUCTURE
     1 RES1 1
     2 RES2 67

@<TRIPOS>CRYSIN
   9.8684   25.4867   10.5567  90.0000 110.9790  90.0000   4 1

