# MOL2 file generated by ConQuest
# Please check atom types

@<TRIPOS>MOLECULE
HENKIU
    29    29     1
SMALL
NO_CHARGES
****
Generated from CSD

@<TRIPOS>ATOM
      1 O1         0.6822   -3.8463   11.9831 O.2       1 RES1    0.0000
      2 O2         1.3719   -3.8130   16.0255 O.2       1 RES1    0.0000
      3 O3        -1.1382    4.0863    9.4790 O.2       1 RES1    0.0000
      4 O4        -0.5461    4.8346   11.4016 O.2       1 RES1    0.0000
      5 N1         0.2442   -1.3078   12.3332 N.3       1 RES1    0.0000
      6 N2         0.4127   -1.5632   13.6036 N.2       1 RES1    0.0000
      7 N3        -0.7414    3.9169   10.6192 N.pl3     1 RES1    0.0000
      8 C1        -0.4026    1.5388   10.1464 C.ar      1 RES1    0.0000
      9 C2        -0.4841    2.5591   11.0793 C.ar      1 RES1    0.0000
     10 C3        -0.3230    2.3191   12.4242 C.ar      1 RES1    0.0000
     11 C4        -0.0908    1.0383   12.8616 C.ar      1 RES1    0.0000
     12 C5        -0.0047    0.0141   11.9363 C.ar      1 RES1    0.0000
     13 C6        -0.1501    0.2657   10.5838 C.ar      1 RES1    0.0000
     14 C7         0.6313   -2.7760   14.0536 C.2       1 RES1    0.0000
     15 C8         0.6551   -3.9850   13.1940 C.2       1 RES1    0.0000
     16 C9         0.8932   -2.8183   15.5148 C.2       1 RES1    0.0000
     17 C10        0.5755   -5.3543   13.7755 C.3       1 RES1    0.0000
     18 C11        0.5799   -1.6081   16.3288 C.3       1 RES1    0.0000
     19 H1         0.2799   -1.9379   11.7176 H         1 RES1    0.0000
     20 H2        -0.5045    1.7326    9.2654 H         1 RES1    0.0000
     21 H3        -0.3653    2.9903   13.0575 H         1 RES1    0.0000
     22 H4        -0.0398    0.8342   13.7654 H         1 RES1    0.0000
     23 H5        -0.0615   -0.4492    9.9353 H         1 RES1    0.0000
     24 H6         0.3303   -5.9165   13.1081 H         1 RES1    0.0000
     25 H7         1.4995   -5.6598   14.0687 H         1 RES1    0.0000
     26 H8        -0.0265   -5.4159   14.5996 H         1 RES1    0.0000
     27 H9         0.8813   -1.7069   17.1783 H         1 RES1    0.0000
     28 H10        0.8736   -0.8342   15.9395 H         1 RES1    0.0000
     29 H11       -0.3926   -1.5401   16.4199 H         1 RES1    0.0000
@<TRIPOS>BOND
     1    1   15 2
     2    2   16 2
     3    3    7 2
     4    4    7 2
     5    5    6 1
     6    6   14 2
     7    7    9 1
     8    8    9 ar
     9    9   10 ar
    10   10   11 ar
    11   11   12 ar
    12   12    5 1
    13   13    8 ar
    14   14   15 1
    15   15   17 1
    16   16   14 1
    17   17   24 1
    18   18   16 1
    19   19    5 1
    20   20    8 1
    21   21   10 1
    22   22   11 1
    23   23   13 1
    24   25   17 1
    25   26   17 1
    26   27   18 1
    27   28   18 1
    28   29   18 1
    29   12   13 ar
@<TRIPOS>SUBSTRUCTURE
     1 RES1 1

@<TRIPOS>CRYSIN
   7.0240   12.8340   12.7560  90.0000  97.7200  90.0000 231 1

