# MOL2 file generated by ConQuest
# Please check atom types

@<TRIPOS>MOLECULE
HEPFOX
    64    69     3
SMALL
NO_CHARGES
****
Generated from CSD

@<TRIPOS>ATOM
      1 O1         2.9115    6.1781    8.0888 O.2       1 RES1    0.0000
      2 O2        13.3656   -0.1550   -0.5062 O.2       2 RES2    0.0000
      3 O3         2.4472    4.8987    9.7841 O.2       1 RES1    0.0000
      4 O4        14.4122    0.6286   -2.2326 O.2       2 RES2    0.0000
      5 N1         5.7399    3.1087    5.1645 N.2       1 RES1    0.0000
      6 N2        13.6005    3.6980    2.7804 N.2       2 RES2    0.0000
      7 N3         4.9976    3.1592    6.3045 N.3       1 RES1    0.0000
      8 N4        13.7727    3.3609    1.4474 N.3       2 RES2    0.0000
      9 N5         5.6399    1.0727    6.1561 N.2       1 RES1    0.0000
     10 N6        14.3601    5.4707    1.5572 N.2       2 RES2    0.0000
     11 N7         4.2394    1.7383    8.0057 N.3       1 RES1    0.0000
     12 N8        14.4964    4.3217   -0.5656 N.3       2 RES2    0.0000
     13 N9         2.9488    5.0807    8.6782 N.pl3     1 RES1    0.0000
     14 N10       13.8908    0.7799   -1.1252 N.pl3     2 RES2    0.0000
     15 C1         6.0963    1.8539    5.1318 C.2       1 RES1    0.0000
     16 C2        13.9684    4.9675    2.7626 C.2       2 RES2    0.0000
     17 C3         4.9420    1.9425    6.8597 C.2       1 RES1    0.0000
     18 C4        14.2204    4.4275    0.7660 C.2       2 RES2    0.0000
     19 C5         3.6343    2.8024    8.5965 C.2       1 RES1    0.0000
     20 C6        14.3887    3.1112   -1.1534 C.2       2 RES2    0.0000
     21 C7         3.5980    4.0043    8.0042 C.2       1 RES1    0.0000
     22 C8        13.8868    2.0421   -0.4928 C.2       2 RES2    0.0000
     23 C9         4.1718    4.3303    6.6459 C.3       1 RES1    0.0000
     24 C10       13.2734    2.1061    0.8951 C.3       2 RES2    0.0000
     25 O5         4.3529    6.4524    4.5543 O.2       1 RES1    0.0000
     26 O6        11.4357    0.7861    2.9749 O.2       2 RES2    0.0000
     27 O7         2.2452    2.3435    5.3678 O.2       1 RES1    0.0000
     28 O8        11.3153    4.0240   -0.4587 O.2       2 RES2    0.0000
     29 C11        3.6801    5.4645    4.4103 C.2       1 RES1    0.0000
     30 C12       11.1820    1.7789    2.3158 C.2       2 RES2    0.0000
     31 C13        3.1463    4.5973    5.5460 C.3       1 RES1    0.0000
     32 C14       11.7593    2.0717    0.9382 C.3       2 RES2    0.0000
     33 C15        2.5957    3.3597    4.8349 C.2       1 RES1    0.0000
     34 C16       11.1340    3.4298    0.5804 C.2       2 RES2    0.0000
     35 C17        2.6348    3.6279    3.3608 C.ar      1 RES1    0.0000
     36 C18       10.3202    3.8788    1.7249 C.ar      2 RES2    0.0000
     37 C19        3.2348    4.8556    3.1293 C.ar      1 RES1    0.0000
     38 C20       10.3007    2.8947    2.7121 C.ar      2 RES2    0.0000
     39 C21        3.3951    5.3514    1.8229 C.ar      1 RES1    0.0000
     40 C22        9.5659    3.0767    3.8700 C.ar      2 RES2    0.0000
     41 C23        2.9504    4.5321    0.7986 C.ar      1 RES1    0.0000
     42 C24        8.9311    4.2811    4.0496 C.ar      2 RES2    0.0000
     43 C25        2.3971    3.2797    1.0421 C.ar      1 RES1    0.0000
     44 C26        9.0147    5.2825    3.0936 C.ar      2 RES2    0.0000
     45 C27        2.2164    2.8036    2.3247 C.ar      1 RES1    0.0000
     46 C28        9.7078    5.0943    1.9179 C.ar      2 RES2    0.0000
     47 H1         4.1965    0.9473    8.3575 H         1 RES1    0.0000
     48 H2        14.6887    4.9331   -0.9501 H         2 RES2    0.0000
     49 H3         6.6509    1.5378    4.5722 H         1 RES1    0.0000
     50 H4        13.8731    5.4990    3.5033 H         2 RES2    0.0000
     51 H5         3.1946    2.6941    9.4412 H         1 RES1    0.0000
     52 H6        14.8666    3.0263   -2.0189 H         2 RES2    0.0000
     53 H7         4.7364    5.0315    6.8285 H         1 RES1    0.0000
     54 H8        13.6531    1.4885    1.4399 H         2 RES2    0.0000
     55 H9         2.3528    4.9085    5.8488 H         1 RES1    0.0000
     56 H10       11.3785    1.5377    0.3117 H         2 RES2    0.0000
     57 H11        3.8040    6.2371    1.6774 H         1 RES1    0.0000
     58 H12        9.5698    2.3989    4.4831 H         2 RES2    0.0000
     59 H13        3.1473    4.7978   -0.1039 H         1 RES1    0.0000
     60 H14        8.4283    4.3795    4.8245 H         2 RES2    0.0000
     61 H15        2.1547    2.7556    0.2820 H         1 RES1    0.0000
     62 H16        8.6604    6.0772    3.3252 H         2 RES2    0.0000
     63 H17        1.8090    1.9683    2.4791 H         1 RES1    0.0000
     64 H18        9.7610    4.4656    1.3657 Du        3 SUP3    0.0000
@<TRIPOS>BOND
     1    1   13 2
     2    2   14 2
     3    3   13 2
     4    4   14 2
     5    5    7 1
     6    6    8 1
     7    7   17 1
     8    8   18 1
     9    9   15 1
    10   10   16 1
    11   11   17 1
    12   12   18 1
    13   13   21 1
    14   14   22 1
    15   15    5 2
    16   16    6 2
    17   17    9 2
    18   18   10 2
    19   19   11 1
    20   20   12 1
    21   21   19 2
    22   22   20 2
    23   23    7 1
    24   24    8 1
    25   25   29 2
    26   26   30 2
    27   27   33 2
    28   28   34 2
    29   29   31 1
    30   30   32 1
    31   31   23 1
    32   32   24 1
    33   33   31 1
    34   34   32 1
    35   35   33 1
    36   36   34 1
    37   37   29 1
    38   38   30 1
    39   39   37 ar
    40   40   38 ar
    41   41   39 ar
    42   42   40 ar
    43   43   41 ar
    44   44   42 ar
    45   45   35 ar
    46   46   36 ar
    47   47   11 1
    48   48   12 1
    49   49   15 1
    50   50   16 1
    51   51   19 1
    52   52   20 1
    53   53   23 1
    54   54   24 1
    55   55   31 1
    56   56   32 1
    57   57   39 1
    58   58   40 1
    59   59   41 1
    60   60   42 1
    61   61   43 1
    62   62   44 1
    63   63   45 1
    64   21   23 1
    65   22   24 1
    66   35   37 ar
    67   36   38 ar
    68   43   45 ar
    69   44   46 ar
@<TRIPOS>SUBSTRUCTURE
     1 RES1 1
     2 RES2 2
     3 SUP3 64

@<TRIPOS>CRYSIN
  14.8930   12.3020   15.6490  90.0000 108.4500  90.0000  14 1

