# MOL2 file generated by ConQuest
# Please check atom types

@<TRIPOS>MOLECULE
HEPFIR
    32    29     2
SMALL
NO_CHARGES
****
Generated from CSD

@<TRIPOS>ATOM
      1 O1         2.6116    0.2279    2.1823 O.2       1 RES1    0.0000
      2 O2         2.7912   -3.5827    0.9375 O.2       1 RES1    0.0000
      3 O3         4.4293   -2.2055    1.3218 O.2       1 RES1    0.0000
      4 O4         4.8854    2.1113    1.6255 O.3       1 RES1    0.0000
      5 O5         4.5608    2.5989   -0.6329 O.3       1 RES1    0.0000
      6 N1         3.5376    0.8250    0.1697 N.am      1 RES1    0.0000
      7 N2         3.3015   -2.4805    0.9393 N.pl3     1 RES1    0.0000
      8 C1         2.7873    3.0371    0.9925 C.ar      1 RES1    0.0000
      9 C2         2.8312    3.8128    2.1731 C.ar      1 RES1    0.0000
     10 C3         1.7603    4.6083    2.4840 C.ar      1 RES1    0.0000
     11 C4         0.6124    4.6083    1.8419 C.ar      1 RES1    0.0000
     12 C5         0.5804    3.9224    0.5339 C.ar      1 RES1    0.0000
     13 C6         1.6610    3.1204    0.1844 C.ar      1 RES1    0.0000
     14 C7         3.9467    2.1606    0.5825 C.3       1 RES1    0.0000
     15 C8         2.8990   -0.0252    0.9971 C.2       1 RES1    0.0000
     16 C9         2.4175   -1.3696    0.3981 C.3       1 RES1    0.0000
     17 C10        5.1862    3.8928   -0.5816 C.3       1 RES1    0.0000
     18 C11        6.0494    1.2819    1.4567 C.3       1 RES1    0.0000
     19 H1         3.7764    0.4930   -0.8347 H         1 RES1    0.0000
     20 H2         7.3392    9.2253   -0.2385 Du        2 SUP2    0.0000
     21 H3         1.6722   -0.8765   -0.2018 Du        2 SUP2    0.0000
     22 H4         3.7043    3.7909    2.8069 Du        2 SUP2    0.0000
     23 H5         1.7921    5.2152    3.3757 H         1 RES1    0.0000
     24 H6        -0.2216    5.2700    1.9905 H         1 RES1    0.0000
     25 H7        -0.2905    3.9772   -0.1101 H         1 RES1    0.0000
     26 H8         1.6315    2.5419   -0.7247 H         1 RES1    0.0000
     27 H9         5.6068    4.1415   -1.5411 H         1 RES1    0.0000
     28 H10        5.9748    3.8895    0.1651 H         1 RES1    0.0000
     29 H11        4.4314    4.6236   -0.3119 H         1 RES1    0.0000
     30 H12        6.8084    1.6544    2.1373 H         1 RES1    0.0000
     31 H13        6.3956    1.3915    0.4403 H         1 RES1    0.0000
     32 H14        5.8663    0.2410    1.6603 H         1 RES1    0.0000
@<TRIPOS>BOND
     1    1   15 2
     2    2    7 2
     3    3    7 2
     4    4   14 1
     5    5   14 1
     6    6   14 1
     7    7   16 1
     8    8    9 ar
     9    9   10 ar
    10   10   11 ar
    11   11   12 ar
    12   12   13 ar
    13   13    8 ar
    14   14    8 1
    15   15    6 1
    16   16   15 1
    17   17    5 1
    18   18    4 1
    19   19    6 1
    20   23   10 1
    21   24   11 1
    22   25   12 1
    23   26   13 1
    24   27   17 1
    25   28   17 1
    26   29   17 1
    27   30   18 1
    28   31   18 1
    29   32   18 1
@<TRIPOS>SUBSTRUCTURE
     1 RES1 1
     2 SUP2 20

@<TRIPOS>CRYSIN
  12.7550   11.3220    9.1730  90.0000  90.0000  75.4000  14 4

