# MOL2 file generated by ConQuest
# Please check atom types

@<TRIPOS>MOLECULE
HEPKET10
    39    39     2
SMALL
NO_CHARGES
****
Generated from CSD

@<TRIPOS>ATOM
      1 O1         2.8638    2.5846    5.9026 O.3       1 RES1    0.0000
      2 N1         4.2624    2.5576    5.6858 N.2       1 RES1    0.0000
      3 C1         4.7144    1.3703    5.5895 C.2       1 RES1    0.0000
      4 C2         3.9548    0.1319    5.5753 C.3       1 RES1    0.0000
      5 C3         6.2411    1.2848    5.3954 C.ar      1 RES1    0.0000
      6 C4         6.8107    0.0525    5.2012 C.ar      1 RES1    0.0000
      7 C5         7.0163    2.4107    5.4478 C.ar      1 RES1    0.0000
      8 O2         6.5290    3.6820    5.6348 O.3       1 RES1    0.0000
      9 C6         8.4414    2.3178    5.2693 C.ar      1 RES1    0.0000
     10 C7         9.0143    1.1034    5.1247 C.ar      1 RES1    0.0000
     11 C8         8.2660   -0.0540    4.9986 C.ar      1 RES1    0.0000
     12 C9         8.9315   -1.3793    4.8329 C.3       1 RES1    0.0000
     13 C10        8.1051   -2.5217    4.7719 C.3       1 RES1    0.0000
     14 H1         2.6466    3.5381    5.3273 H         1 RES1    0.0000
     15 H2         2.9567    0.3748    5.7666 H         1 RES1    0.0000
     16 H3         3.8003   -0.2699    4.5764 H         1 RES1    0.0000
     17 H4         4.4004   -0.6297    6.1916 H         1 RES1    0.0000
     18 H5         6.3535   -0.8545    5.0581 H         1 RES1    0.0000
     19 H6         5.4764    3.4632    5.7241 H         1 RES1    0.0000
     20 H7         8.9348    3.1333    4.8881 H         1 RES1    0.0000
     21 H8         9.9853    1.4392    4.9023 H         1 RES1    0.0000
     22 O3        -1.6852    6.2532    5.8077 O.3       2 RES2    0.0000
     23 N2        -0.2813    6.2652    5.6376 N.2       2 RES2    0.0000
     24 C11        0.2118    7.4555    5.5526 C.2       2 RES2    0.0000
     25 C12       -0.7099    8.6954    5.6376 C.3       2 RES2    0.0000
     26 C13        1.6585    7.5350    5.3699 C.ar      2 RES2    0.0000
     27 C14        2.2978    8.7553    5.1488 C.ar      2 RES2    0.0000
     28 C15        2.5307    6.3896    5.3118 C.ar      2 RES2    0.0000
     29 O4         1.9538    5.1273    5.4790 O.3       2 RES2    0.0000
     30 C16        3.8328    6.5050    5.1389 C.ar      2 RES2    0.0000
     31 C17        4.4425    7.7254    4.9618 C.ar      2 RES2    0.0000
     32 C18        3.6443    8.9127    5.0071 C.ar      2 RES2    0.0000
     33 C19        4.3756   10.2635    4.7691 C.3       2 RES2    0.0000
     34 C20        3.7031   11.3474    5.0936 C.3       2 RES2    0.0000
     35 H9        -2.1132    5.3072    6.0499 H         2 RES2    0.0000
     36 H10        1.7769    9.5049    5.1857 H         2 RES2    0.0000
     37 H11        1.0358    5.1572    5.9649 H         2 RES2    0.0000
     38 H12        4.5169    5.5470    5.1432 H         2 RES2    0.0000
     39 H13        5.4947    7.9757    4.8031 H         2 RES2    0.0000
@<TRIPOS>BOND
     1    1    2 1
     2    2    3 2
     3    3    4 1
     4    4   15 1
     5    5    3 1
     6    6    5 ar
     7    7    5 ar
     8    8    7 1
     9    9    7 ar
    10   10    9 ar
    11   11    6 ar
    12   12   11 1
    13   13   12 1
    14   14    1 1
    15   16    4 1
    16   17    4 1
    17   18    6 1
    18   19    8 1
    19   20    9 1
    20   21   10 1
    21   22   23 1
    22   23   24 2
    23   24   25 1
    24   26   24 1
    25   27   26 ar
    26   28   26 ar
    27   29   28 1
    28   30   28 ar
    29   31   30 ar
    30   32   27 ar
    31   33   32 1
    32   34   33 1
    33   35   22 1
    34   36   27 1
    35   37   29 1
    36   38   30 1
    37   39   31 1
    38   10   11 ar
    39   31   32 ar
@<TRIPOS>SUBSTRUCTURE
     1 RES1 1
     2 RES2 22

@<TRIPOS>CRYSIN
   9.1770   14.9920   14.9590  90.0000 108.7100  90.0000  14 1

