# MOL2 file generated by ConQuest
# Please check atom types

@<TRIPOS>MOLECULE
HEPMAR
   195   172     5
SMALL
USER_CHARGES
****
Generated from CSD

@<TRIPOS>ATOM
      1 C1        -2.4804   -1.9768    8.7902 C.ar      1 RES1    0.0000
      2 H1        -2.9233   -1.1848    8.5867 H         1 RES1    0.0000
      3 C2        -2.9679   -3.1909    8.3304 C.ar      1 RES1    0.0000
      4 O1        -4.6911   -4.2788    7.0990 O.co2     1 RES1    0.0000
      5 C3        -4.1718   -3.1722    7.4710 C.2       1 RES1    0.0000
      6 O2        -4.6468   -2.0520    7.1518 O.co2     1 RES1    0.0000
      7 C4        -2.3191   -4.3741    8.6520 C.ar      1 RES1    0.0000
      8 H2        -2.6519   -5.1832    8.3354 H         1 RES1    0.0000
      9 C5        -1.2007   -4.3601    9.4260 C.ar      1 RES1    0.0000
     10 H3        -0.7843   -5.1595    9.6547 H         1 RES1    0.0000
     11 C6        -0.6817   -3.1551    9.8683 C.ar      1 RES1    0.0000
     12 H4         0.0978   -3.1432   10.3759 H         1 RES1    0.0000
     13 C7        -1.3239   -1.9589    9.5567 C.ar      1 RES1    0.0000
     14 N1        -0.7901   -0.7546   10.0751 N.pl3     1 RES1    0.0000
     15 H5        -0.4523   -0.8189   10.8634 H         1 RES1    0.0000
     16 C8        -0.7267    0.4847    9.5270 C.ar      1 RES1    0.0000
     17 C9        -0.3464    1.6362   10.2025 C.ar      1 RES1    0.0000
     18 O3        -0.3387    0.5521   12.2581 O.2       1 RES1    0.0000
     19 O4         0.3260    2.5298   12.1935 O.2       1 RES1    0.0000
     20 N2        -0.0825    1.5464   11.6397 N.pl3     1 RES1    0.0000
     21 C10       -0.2689    2.8802    9.5939 C.ar      1 RES1    0.0000
     22 H6         0.0211    3.6186   10.0794 H         1 RES1    0.0000
     23 C11       -0.6115    3.0137    8.3103 C.ar      1 RES1    0.0000
     24 O5        -0.5309    5.2882    8.5214 O.2       1 RES1    0.0000
     25 N3        -0.5865    4.3625    7.7826 N.pl3     1 RES1    0.0000
     26 C12       -0.9828    1.8949    7.5544 C.ar      1 RES1    0.0000
     27 O6        -0.5875    4.5070    6.5914 O.2       1 RES1    0.0000
     28 C13       -1.0291    0.6547    8.1489 C.ar      1 RES1    0.0000
     29 H7        -1.2639   -0.0865    7.6393 H         1 RES1    0.0000
     30 O7        -1.3160    2.1092    6.2464 O.3       1 RES1    0.0000
     31 N4        -1.7826    0.9338    5.6443 N.2       1 RES1    0.0000
     32 N5        -2.0634    1.2417    4.4411 N.pl3     1 RES1    1.0000
     33 O8        -1.9041    2.3241    3.9056 O.2       1 RES1   -1.0000
     34 N6        -2.1065    0.0813    3.6387 Du        5 SUP5    0.0000
     35 C14       -2.2700   -1.0962    4.3499 Du        5 SUP5    0.0000
     36 H8        -1.8176   -1.0223    5.1942 Du        5 SUP5    0.0000
     37 H9        -1.9016   -1.8231    3.8473 Du        5 SUP5    0.0000
     38 H10       -3.2056   -1.2480    4.5007 Du        5 SUP5    0.0000
     39 C15       -2.8794    0.4959    2.4325 Du        5 SUP5    0.0000
     40 H11       -2.6080    1.3773    2.1662 Du        5 SUP5    0.0000
     41 H12       -3.8127    0.4898    2.6336 Du        5 SUP5    0.0000
     42 H13       -2.6973   -0.1210    1.7163 Du        5 SUP5    0.0000
     43 N7        -2.9788    0.3320    3.7820 N.3       1 RES1    0.0000
     44 C16       -3.2472   -0.8897    4.4353 C.3       1 RES1    0.0000
     45 H14       -3.2874   -0.7455    5.3827 H         1 RES1    0.0000
     46 H15       -2.5516   -1.5215    4.2368 H         1 RES1    0.0000
     47 H16       -4.0888   -1.2369    4.1288 H         1 RES1    0.0000
     48 C17       -2.6976    0.1472    2.2642 C.3       1 RES1    0.0000
     49 H17       -3.3286   -0.4796    1.8973 H         1 RES1    0.0000
     50 H18       -1.8072   -0.1921    2.1410 H         1 RES1    0.0000
     51 H19       -2.7865    0.9886    1.8169 H         1 RES1    0.0000
     52 C18        2.5625   -1.6672    3.7322 C.ar      2 RES2    0.0000
     53 H20        3.0865   -0.9285    3.9403 H         2 RES2    0.0000
     54 C19        2.9248   -2.9213    4.1886 C.ar      2 RES2    0.0000
     55 O9         4.7130   -1.9687    5.3865 O.co2     2 RES2    0.0000
     56 C20        4.1384   -3.0519    5.0460 C.2       2 RES2    0.0000
     57 O10        4.5194   -4.1832    5.4282 O.co2     2 RES2    0.0000
     58 C21        2.1767   -4.0339    3.8775 C.ar      2 RES2    0.0000
     59 H21        2.4253   -4.8751    4.1866 H         2 RES2    0.0000
     60 C22        1.0406   -3.8757    3.0884 C.ar      2 RES2    0.0000
     61 H22        0.5357   -4.6211    2.8522 H         2 RES2    0.0000
     62 C23        0.6595   -2.6355    2.6587 C.ar      2 RES2    0.0000
     63 H23       -0.1164   -2.5432    2.1561 H         2 RES2    0.0000
     64 C24        1.4179   -1.5127    2.9630 C.ar      2 RES2    0.0000
     65 N8         1.0367   -0.2720    2.4262 N.pl3     2 RES2    0.0000
     66 H24        0.6633   -0.2874    1.6510 H         2 RES2    0.0000
     67 C25        1.1957    0.9546    2.9982 C.ar      2 RES2    0.0000
     68 C26        1.0756    2.1653    2.2644 C.ar      2 RES2    0.0000
     69 N9         0.7858    2.2078    0.8577 N.pl3     2 RES2    0.0000
     70 O11        0.3221    1.2002    0.3305 O.2       2 RES2    0.0000
     71 O12        1.0211    3.2006    0.2189 O.2       2 RES2    0.0000
     72 C27        1.2810    3.3857    2.8602 C.ar      2 RES2    0.0000
     73 H25        1.1908    4.1610    2.3546 H         2 RES2    0.0000
     74 C28        1.6168    3.4789    4.1863 C.ar      2 RES2    0.0000
     75 N10        1.9080    4.7925    4.7007 N.pl3     2 RES2    0.0000
     76 O13        1.7389    5.7489    4.0081 O.2       2 RES2    0.0000
     77 C29        1.7493    2.2992    4.9485 C.ar      2 RES2    0.0000
     78 O14        2.3843    4.9208    5.7647 O.2       2 RES2    0.0000
     79 C30        1.5007    1.0930    4.3552 C.ar      2 RES2    0.0000
     80 H26        1.5368    0.3256    4.8801 H         2 RES2    0.0000
     81 O15        2.1053    2.4322    6.2547 O.3       2 RES2    0.0000
     82 N11        2.2311    1.1650    6.8573 N.2       2 RES2    0.0000
     83 N12        2.6797    1.3754    8.0361 N.pl3     2 RES2    1.0000
     84 O16        2.9776    2.4495    8.5216 O.2       2 RES2   -1.0000
     85 N13        2.7100    0.2307    8.8229 N.3       2 RES2    0.0000
     86 C31        3.6853    0.2517    9.8256 C.3       2 RES2    0.0000
     87 H27        3.4434    0.8978   10.4940 H         2 RES2    0.0000
     88 H28        4.5330    0.4891    9.4436 H         2 RES2    0.0000
     89 H29        3.7480   -0.6170   10.2302 H         2 RES2    0.0000
     90 C32        2.4578   -1.0048    8.1193 C.3       2 RES2    0.0000
     91 H30        1.6198   -0.9443    7.6544 H         2 RES2    0.0000
     92 H31        2.4226   -1.7289    8.7500 H         2 RES2    0.0000
     93 H32        3.1636   -1.1643    7.4885 H         2 RES2    0.0000
     94 C33        7.7844    3.8494   10.1500 C.ar      3 RES3    0.0000
     95 H33        7.8488    4.6208    9.6346 H         3 RES3    0.0000
     96 C34        7.2517    2.6667    9.6002 C.ar      3 RES3    0.0000
     97 O17        6.7881    3.7560    7.5479 O.co2     3 RES3    0.0000
     98 C35        6.7969    2.6743    8.1746 C.2       3 RES3    0.0000
     99 O18        6.4828    1.5562    7.6642 O.co2     3 RES3    0.0000
    100 C36        7.1614    1.5334   10.3608 C.ar      3 RES3    0.0000
    101 H34        6.8279    0.7496    9.9864 H         3 RES3    0.0000
    102 C37        7.5585    1.5493   11.6701 C.ar      3 RES3    0.0000
    103 H35        7.4722    0.7857   12.1928 H         3 RES3    0.0000
    104 C38        8.0897    2.7036   12.2104 C.ar      3 RES3    0.0000
    105 H36        8.3706    2.7057   13.0974 H         3 RES3    0.0000
    106 C39        8.2078    3.8473   11.4615 C.ar      3 RES3    0.0000
    107 N14        8.8555    4.9456   12.0671 N.pl3     3 RES3    0.0000
    108 H37        9.5462    4.7488   12.5395 H         3 RES3    0.0000
    109 C40        8.5478    6.2596   12.0126 C.ar      3 RES3    0.0000
    110 C41        9.3179    7.2644   12.6722 C.ar      3 RES3    0.0000
    111 O19       10.8463    5.7605   13.5724 O.2       3 RES3    0.0000
    112 O20       11.0565    7.8199   14.0548 O.2       3 RES3    0.0000
    113 N15       10.4793    6.9187   13.4894 N.pl3     3 RES3    0.0000
    114 C42        9.0132    8.5756   12.5747 C.ar      3 RES3    0.0000
    115 H38        9.5408    9.1992   13.0170 H         3 RES3    0.0000
    116 C43        7.9387    9.0081   11.8284 C.ar      3 RES3    0.0000
    117 N16        7.7338   10.4465   11.7254 N.pl3     3 RES3    0.0000
    118 O21        8.3826   11.1753   12.4466 O.2       3 RES3    0.0000
    119 C44        7.1349    8.0382   11.1911 C.ar      3 RES3    0.0000
    120 O22        6.9422   10.8628   10.8880 O.2       3 RES3    0.0000
    121 C45        7.4227    6.7194   11.2984 C.ar      3 RES3    0.0000
    122 H39        6.8626    6.0987   10.8911 H         3 RES3    0.0000
    123 O23        6.0227    8.5009   10.5269 O.3       3 RES3    0.0000
    124 N17        5.3841    7.4316    9.8477 N.2       3 RES3    0.0000
    125 O24        3.9104    9.0687    9.5039 O.2       3 RES3   -1.0000
    126 N18        4.3000    7.9177    9.3657 N.pl3     3 RES3    1.0000
    127 N19        3.4083    6.9384    8.8405 N.3       3 RES3    0.0000
    128 C46        4.2466    5.8053    8.3706 C.3       3 RES3    0.0000
    129 H40        3.6854    5.1168    8.0188 H         3 RES3    0.0000
    130 H41        4.7584    5.4640    9.1069 H         3 RES3    0.0000
    131 H42        4.8441    6.1173    7.6846 H         3 RES3    0.0000
    132 C47        2.4490    7.4732    7.8655 C.3       3 RES3    0.0000
    133 H43        1.8815    8.1186    8.2952 H         3 RES3    0.0000
    134 H44        1.9103    6.7578    7.5187 H         3 RES3    0.0000
    135 H45        2.9231    7.8930    7.1443 H         3 RES3    0.0000
    136 N20        3.9274    7.3095    8.2927 Du        5 SUP5    0.0000
    137 C48        3.9257    5.5620    8.5063 Du        5 SUP5    0.0000
    138 H46        4.7038    5.2934    8.9988 Du        5 SUP5    0.0000
    139 H47        3.9273    5.1369    7.6444 Du        5 SUP5    0.0000
    140 H48        3.1361    5.2959    8.9888 Du        5 SUP5    0.0000
    141 C49        2.7251    7.6402    7.8404 Du        5 SUP5    0.0000
    142 H49        2.6275    8.6013    7.8781 Du        5 SUP5    0.0000
    143 H50        2.0468    7.2422    8.4007 Du        5 SUP5    0.0000
    144 H51        2.6210    7.3422    6.9458 Du        5 SUP5    0.0000
    145 C50        4.6040    3.8941    2.5959 C.ar      4 RES4    0.0000
    146 H52        4.6524    4.6904    3.0733 H         4 RES4    0.0000
    147 C51        4.9887    2.6951    3.1914 C.ar      4 RES4    0.0000
    148 O25        5.7107    3.7955    5.1500 O.co2     4 RES4    0.0000
    149 C52        5.4788    2.6912    4.5911 C.2       4 RES4    0.0000
    150 O26        5.6272    1.5937    5.1756 O.co2     4 RES4    0.0000
    151 C53        4.9111    1.5046    2.4752 C.ar      4 RES4    0.0000
    152 H53        5.1518    0.7014    2.8748 H         4 RES4    0.0000
    153 C54        4.4740    1.5222    1.1685 C.ar      4 RES4    0.0000
    154 H54        4.4299    0.7298    0.6835 H         4 RES4    0.0000
    155 C55        4.1044    2.7045    0.5805 C.ar      4 RES4    0.0000
    156 H55        3.8194    2.7089   -0.3041 H         4 RES4    0.0000
    157 C56        4.1507    3.8989    1.2942 C.ar      4 RES4    0.0000
    158 N21        3.6007    5.0382    0.6370 N.pl3     4 RES4    0.0000
    159 H56        2.9548    4.8691    0.0930 H         4 RES4    0.0000
    160 C57        3.9393    6.3471    0.7386 C.ar      4 RES4    0.0000
    161 C58        3.2218    7.3575    0.0402 C.ar      4 RES4    0.0000
    162 N22        2.1105    7.0740   -0.8142 N.pl3     4 RES4    0.0000
    163 O27        1.6701    5.9233   -0.9047 O.2       4 RES4    0.0000
    164 O28        1.6195    7.9832   -1.4575 O.2       4 RES4    0.0000
    165 C59        3.5894    8.6781    0.1533 C.ar      4 RES4    0.0000
    166 H57        3.1093    9.3225   -0.3141 H         4 RES4    0.0000
    167 C60        4.6342    9.0665    0.9298 C.ar      4 RES4    0.0000
    168 O29        4.2042   11.2420    0.3717 O.2       4 RES4    0.0000
    169 N23        4.9111   10.4977    1.0429 N.pl3     4 RES4    0.0000
    170 C61        5.4361    8.0762    1.5656 C.ar      4 RES4    0.0000
    171 O30        5.7363   10.8939    1.8302 O.2       4 RES4    0.0000
    172 C62        5.0611    6.7646    1.4585 C.ar      4 RES4    0.0000
    173 H58        5.5781    6.1199    1.8847 H         4 RES4    0.0000
    174 O31        6.5220    8.4947    2.2531 O.3       4 RES4    0.0000
    175 N24        7.1139    7.4161    2.9426 N.2       4 RES4    0.0000
    176 O32        8.6517    8.9919    3.2869 O.2       4 RES4   -1.0000
    177 N25        8.1857    7.8692    3.4528 N.pl3     4 RES4    1.0000
    178 N26        8.6638    7.0983    4.4956 N.3       4 RES4    0.0000
    179 C63        8.1452    5.7861    4.4630 C.3       4 RES4    0.0000
    180 H59        7.3335    5.7663    3.9428 H         4 RES4    0.0000
    181 H60        7.9482    5.4898    5.3576 H         4 RES4    0.0000
    182 H61        8.7868    5.1924    4.0684 H         4 RES4    0.0000
    183 C64        9.7965    7.4752    4.9756 C.3       4 RES4    0.0000
    184 H62       10.0268    8.3327    4.6138 H         4 RES4    0.0000
    185 H63       10.4647    6.8328    4.7419 H         4 RES4    0.0000
    186 H64        9.7284    7.5384    5.9330 H         4 RES4    0.0000
    187 N27        9.0881    6.9061    3.9604 Du        5 SUP5    0.0000
    188 C65        8.4380    5.6053    4.3750 Du        5 SUP5    0.0000
    189 H65        9.0881    5.0455    4.8098 Du        5 SUP5    0.0000
    190 H66        8.1003    5.1487    3.5960 Du        5 SUP5    0.0000
    191 H67        7.7128    5.7787    4.9781 Du        5 SUP5    0.0000
    192 C66       10.0793    7.3583    4.8374 Du        5 SUP5    0.0000
    193 H68       10.3695    8.2359    4.5660 Du        5 SUP5    0.0000
    194 H69       10.8255    6.7562    4.8148 Du        5 SUP5    0.0000
    195 H70        9.7273    7.4029    5.7295 Du        5 SUP5    0.0000
@<TRIPOS>BOND
     1    1    2 1
     2    3    1 ar
     3    4    5 2
     4    5    3 1
     5    6    5 1
     6    7    3 ar
     7    8    7 1
     8    9    7 ar
     9   10    9 1
    10   11    9 ar
    11   12   11 1
    12   13    1 ar
    13   14   13 1
    14   15   14 1
    15   16   14 1
    16   17   16 ar
    17   18   20 2
    18   19   20 2
    19   20   17 1
    20   21   17 ar
    21   22   21 1
    22   23   21 ar
    23   24   25 2
    24   25   23 1
    25   26   23 ar
    26   27   25 2
    27   28   16 ar
    28   29   28 1
    29   30   26 1
    30   31   30 1
    31   32   31 2
    32   33   32 1
    33   43   32 1
    34   44   43 1
    35   45   44 1
    36   46   44 1
    37   47   44 1
    38   48   43 1
    39   49   48 1
    40   50   48 1
    41   51   48 1
    42   52   53 1
    43   54   52 ar
    44   55   56 2
    45   56   54 1
    46   57   56 1
    47   58   54 ar
    48   59   58 1
    49   60   58 ar
    50   61   60 1
    51   62   60 ar
    52   63   62 1
    53   64   52 ar
    54   65   64 1
    55   66   65 1
    56   67   65 1
    57   68   67 ar
    58   69   68 1
    59   70   69 2
    60   71   69 2
    61   72   68 ar
    62   73   72 1
    63   74   72 ar
    64   75   74 1
    65   76   75 2
    66   77   74 ar
    67   78   75 2
    68   79   67 ar
    69   80   79 1
    70   81   77 1
    71   82   81 1
    72   83   82 2
    73   84   83 1
    74   85   83 1
    75   86   85 1
    76   87   86 1
    77   88   86 1
    78   89   86 1
    79   90   85 1
    80   91   90 1
    81   92   90 1
    82   93   90 1
    83   94   95 1
    84   96   94 ar
    85   97   98 2
    86   98   96 1
    87   99   98 1
    88  100   96 ar
    89  101  100 1
    90  102  100 ar
    91  103  102 1
    92  104  102 ar
    93  105  104 1
    94  106   94 ar
    95  107  106 1
    96  108  107 1
    97  109  107 1
    98  110  109 ar
    99  111  113 2
   100  112  113 2
   101  113  110 1
   102  114  110 ar
   103  115  114 1
   104  116  114 ar
   105  117  116 1
   106  118  117 2
   107  119  116 ar
   108  120  117 2
   109  121  109 ar
   110  122  121 1
   111  123  119 1
   112  124  123 1
   113  125  126 1
   114  126  124 2
   115  127  126 1
   116  128  127 1
   117  129  128 1
   118  130  128 1
   119  131  128 1
   120  132  127 1
   121  133  132 1
   122  134  132 1
   123  135  132 1
   124  145  146 1
   125  147  145 ar
   126  148  149 2
   127  149  147 1
   128  150  149 1
   129  151  147 ar
   130  152  151 1
   131  153  151 ar
   132  154  153 1
   133  155  153 ar
   134  156  155 1
   135  157  145 ar
   136  158  157 1
   137  159  158 1
   138  160  158 1
   139  161  160 ar
   140  162  161 1
   141  163  162 2
   142  164  162 2
   143  165  161 ar
   144  166  165 1
   145  167  165 ar
   146  168  169 2
   147  169  167 1
   148  170  167 ar
   149  171  169 2
   150  172  160 ar
   151  173  172 1
   152  174  170 1
   153  175  174 1
   154  176  177 1
   155  177  175 2
   156  178  177 1
   157  179  178 1
   158  180  179 1
   159  181  179 1
   160  182  179 1
   161  183  178 1
   162  184  183 1
   163  185  183 1
   164  186  183 1
   165   11   13 ar
   166   26   28 ar
   167   62   64 ar
   168   77   79 ar
   169  104  106 ar
   170  119  121 ar
   171  155  157 ar
   172  170  172 ar
@<TRIPOS>SUBSTRUCTURE
     1 RES1 1
     2 RES2 52
     3 RES3 94
     4 RES4 145
     5 SUP5 34

@<TRIPOS>CRYSIN
  11.2367   12.8743   25.1430  89.4510  88.1720  87.5160   2 1

