# MOL2 file generated by ConQuest
# Please check atom types

@<TRIPOS>MOLECULE
HEPMEV
    46    47     1
SMALL
USER_CHARGES
****
Generated from CSD

@<TRIPOS>ATOM
      1 N1        13.7116   -1.2594    6.7787 N.pl3     1 RES1    1.0000
      2 O1        14.8981   -1.3540    6.4326 O.2       1 RES1   -1.0000
      3 N2        12.7634   -0.6502    6.1620 N.2       1 RES1    0.0000
      4 O2        13.3818   -0.0678    5.0162 O.3       1 RES1    0.0000
      5 N3        13.3473   -1.8284    8.0099 N.3       1 RES1    0.0000
      6 C1        11.9006   -1.8016    8.2758 C.3       1 RES1    0.0000
      7 H1        11.5505   -0.9055    8.0876 H         1 RES1    0.0000
      8 H2        11.7369   -2.0246    9.2149 H         1 RES1    0.0000
      9 H3        11.4502   -2.4557    7.7012 H         1 RES1    0.0000
     10 C2        14.0260   -3.0830    8.2388 C.3       1 RES1    0.0000
     11 H4        14.9784   -2.9830    8.0288 H         1 RES1    0.0000
     12 H5        13.6358   -3.7742    7.6626 H         1 RES1    0.0000
     13 H6        13.9218   -3.3439    9.1780 H         1 RES1    0.0000
     14 C3        12.4593    0.5249    4.2152 C.ar      1 RES1    0.0000
     15 C4        12.8532    0.9709    2.9501 C.ar      1 RES1    0.0000
     16 N4        14.2206    0.7810    2.4327 N.pl3     1 RES1    0.0000
     17 O3        15.1088    0.4792    3.2161 O.2       1 RES1    0.0000
     18 O4        14.3931    0.9237    1.2378 O.2       1 RES1    0.0000
     19 C5        11.9590    1.5872    2.0916 C.ar      1 RES1    0.0000
     20 H7        12.2481    1.8843    1.2365 H         1 RES1    0.0000
     21 C6        10.6461    1.7685    2.4797 C.ar      1 RES1    0.0000
     22 N5         9.7568    2.4675    1.5542 N.pl3     1 RES1    0.0000
     23 O5        10.0351    2.4526    0.3589 O.2       1 RES1    0.0000
     24 O6         8.7907    3.0602    2.0149 O.2       1 RES1    0.0000
     25 C7        10.2223    1.2775    3.7246 C.ar      1 RES1    0.0000
     26 C8        11.1199    0.6715    4.5680 C.ar      1 RES1    0.0000
     27 H8        10.8229    0.3460    5.4080 H         1 RES1    0.0000
     28 O7         8.9248    1.3744    4.1875 O.3       1 RES1    0.0000
     29 C9         7.9537    0.6912    3.4558 C.2       1 RES1    0.0000
     30 O8         8.2270    0.1261    2.4249 O.2       1 RES1    0.0000
     31 C10        6.6513    0.7455    4.1077 C.ar      1 RES1    0.0000
     32 C11        6.4235    1.3398    5.3475 C.ar      1 RES1    0.0000
     33 H9         7.1429    1.7590    5.8045 H         1 RES1    0.0000
     34 C12        5.1691    1.3279    5.9170 C.ar      1 RES1    0.0000
     35 H10        5.0320    1.7378    6.7638 H         1 RES1    0.0000
     36 C13        4.0944    0.7172    5.2602 C.ar      1 RES1    0.0000
     37 N6         2.8346    0.6770    5.7910 N.3       1 RES1    0.0000
     38 H11        2.2028    0.2814    5.3240 H         1 RES1    0.0000
     39 C14        2.4820    1.2420    7.0695 C.3       1 RES1    0.0000
     40 H12        1.5285    1.0931    7.2409 H         1 RES1    0.0000
     41 H13        2.6652    2.2051    7.0645 H         1 RES1    0.0000
     42 H14        3.0101    0.8133    7.7752 H         1 RES1    0.0000
     43 C15        4.3186    0.1095    4.0119 C.ar      1 RES1    0.0000
     44 H15        3.5998   -0.3097    3.5533 H         1 RES1    0.0000
     45 C16        5.5738    0.1206    3.4541 C.ar      1 RES1    0.0000
     46 H16        5.7166   -0.2995    2.6141 H         1 RES1    0.0000
@<TRIPOS>BOND
     1    1    2 1
     2    3    1 2
     3    4    3 1
     4    5    1 1
     5    6    5 1
     6    7    6 1
     7    8    6 1
     8    9    6 1
     9   10    5 1
    10   11   10 1
    11   12   10 1
    12   13   10 1
    13   14    4 1
    14   15   14 ar
    15   16   15 1
    16   17   16 2
    17   18   16 2
    18   19   15 ar
    19   20   19 1
    20   21   19 ar
    21   22   21 1
    22   23   22 2
    23   24   22 2
    24   25   21 ar
    25   26   14 ar
    26   27   26 1
    27   28   25 1
    28   29   28 1
    29   30   29 2
    30   31   29 1
    31   32   31 ar
    32   33   32 1
    33   34   32 ar
    34   35   34 1
    35   36   34 ar
    36   37   36 1
    37   38   37 1
    38   39   37 1
    39   40   39 1
    40   41   39 1
    41   42   39 1
    42   43   36 ar
    43   44   43 1
    44   45   31 ar
    45   46   45 1
    46   25   26 ar
    47   43   45 ar
@<TRIPOS>SUBSTRUCTURE
     1 RES1 1

@<TRIPOS>CRYSIN
  14.1530    7.8810   18.1630  90.0000 112.3360  90.0000 231 1

