# MOL2 file generated by ConQuest
# Please check atom types

@<TRIPOS>MOLECULE
HEQYUZ
    32    33     1
SMALL
NO_CHARGES
****
Generated from CSD

@<TRIPOS>ATOM
      1 O1         7.7291    2.5675    1.3663 O.2       1 RES1    0.0000
      2 O2         6.8245    5.1291    8.5957 O.2       1 RES1    0.0000
      3 O3         5.3915    6.1871    9.7975 O.2       1 RES1    0.0000
      4 N1         5.7572    3.9350    3.8872 N.2       1 RES1    0.0000
      5 N2         6.0507    3.3304    2.6768 N.am      1 RES1    0.0000
      6 N3         5.7316    5.6387    8.7488 N.pl3     1 RES1    0.0000
      7 N4         9.5121    3.6032    3.3192 N.ar      1 RES1    0.0000
      8 N5         8.9597    2.5219    5.8730 N.ar      1 RES1    0.0000
      9 C1         4.5718    4.3728    4.0961 C.2       1 RES1    0.0000
     10 H1         3.9111    4.3071    3.4165 H         1 RES1    0.0000
     11 C2         7.3561    2.9740    2.4680 C.2       1 RES1    0.0000
     12 C3         4.2385    4.9759    5.3923 C.ar      1 RES1    0.0000
     13 C4         5.1686    5.0543    6.4253 C.ar      1 RES1    0.0000
     14 H2         6.0601    4.7472    6.3022 H         1 RES1    0.0000
     15 C5         4.7650    5.5886    7.6285 C.ar      1 RES1    0.0000
     16 C6         3.4854    6.0728    7.8474 C.ar      1 RES1    0.0000
     17 H3         3.2433    6.4457    8.6872 H         1 RES1    0.0000
     18 C7         2.5789    6.0018    6.8287 C.ar      1 RES1    0.0000
     19 H4         1.6955    6.3291    6.9575 H         1 RES1    0.0000
     20 C8         2.9405    5.4534    5.5998 C.ar      1 RES1    0.0000
     21 H5         2.3015    5.4025    4.8987 H         1 RES1    0.0000
     22 C9         8.3247    3.0816    3.6182 C.ar      1 RES1    0.0000
     23 C10        8.0529    2.5473    4.8701 C.ar      1 RES1    0.0000
     24 H6         7.1904    2.1827    5.0289 H         1 RES1    0.0000
     25 C11       10.1497    3.0674    5.5583 C.ar      1 RES1    0.0000
     26 H7        10.8330    3.0861    6.2178 H         1 RES1    0.0000
     27 C12       10.4151    3.6009    4.3136 C.ar      1 RES1    0.0000
     28 H8        11.2697    3.9820    4.1533 H         1 RES1    0.0000
     29 C13        5.0281    3.1563    1.6224 C.3       1 RES1    0.0000
     30 H9         5.4180    2.6669    0.8670 H         1 RES1    0.0000
     31 H10        4.7214    4.0358    1.3162 H         1 RES1    0.0000
     32 H11        4.2699    2.6520    1.9815 H         1 RES1    0.0000
@<TRIPOS>BOND
     1    1   11 2
     2    2    6 2
     3    3    6 2
     4    4    5 1
     5    5   11 1
     6    6   15 1
     7    7   22 ar
     8    8   23 ar
     9    9    4 2
    10   10    9 1
    11   11   22 1
    12   12    9 1
    13   13   12 ar
    14   14   13 1
    15   15   13 ar
    16   16   15 ar
    17   17   16 1
    18   18   16 ar
    19   19   18 1
    20   20   12 ar
    21   21   20 1
    22   22   23 ar
    23   23   24 1
    24   25    8 ar
    25   26   25 1
    26   27    7 ar
    27   28   27 1
    28   29    5 1
    29   30   29 1
    30   31   29 1
    31   32   29 1
    32   18   20 ar
    33   25   27 ar
@<TRIPOS>SUBSTRUCTURE
     1 RES1 1

@<TRIPOS>CRYSIN
  11.7690    7.4724   14.7250  90.0000 103.6840  90.0000 231 1

