# MOL2 file generated by ConQuest
# Please check atom types

@<TRIPOS>MOLECULE
HEQZIN
   132   124     3
SMALL
NO_CHARGES
****
Generated from CSD

@<TRIPOS>ATOM
      1 O1        12.3208    3.1572    4.4304 O.3       1 RES1    0.0000
      2 O2         5.1877    6.5620    0.6702 O.3       1 RES1    0.0000
      3 O3         3.2991    4.6930    0.7396 O.3       1 RES1    0.0000
      4 O4         4.2931    4.1528   -1.2076 O.2       1 RES1    0.0000
      5 O5        16.8205    0.6473   11.2697 O.3       1 RES1    0.0000
      6 O6        18.1876   -0.5476   10.0868 O.2       1 RES1    0.0000
      7 O7        17.4533    2.5667    9.6595 O.3       1 RES1    0.0000
      8 N1        11.2450    3.4959    3.5776 N.2       1 RES1    0.0000
      9 C1        13.1239    2.2463    7.1589 C.3       1 RES1    0.0000
     10 H1        12.2762    2.2699    7.6292 H         1 RES1    0.0000
     11 H2        13.3578    3.1572    6.9222 H         1 RES1    0.0000
     12 C2        12.9992    1.5797    6.1353 C.3       1 RES1    0.0000
     13 H3        12.7656    0.6687    6.3688 H         1 RES1    0.0000
     14 H4        13.8446    1.5593    5.6587 H         1 RES1    0.0000
     15 C3        11.8729    2.1820    5.1789 C.2       1 RES1    0.0000
     16 C4        10.6075    1.9194    4.8814 C.2       1 RES1    0.0000
     17 H5        10.0482    1.3000    5.2908 H         1 RES1    0.0000
     18 C5        10.3074    2.7371    3.8578 C.2       1 RES1    0.0000
     19 C6         9.0767    2.9300    3.0645 C.3       1 RES1    0.0000
     20 H6         8.6618    2.0641    2.9205 H         1 RES1    0.0000
     21 H7         9.3195    3.2858    2.1976 H         1 RES1    0.0000
     22 C7         8.0424    3.8678    3.7074 C.3       1 RES1    0.0000
     23 H8         7.7632    3.4884    4.5551 H         1 RES1    0.0000
     24 H9         8.4693    4.7187    3.8930 H         1 RES1    0.0000
     25 C8         8.5666    2.6578    3.7138 Du        3 SUP3    0.0000
     26 H10        8.2694    1.9944    3.0709 Du        3 SUP3    0.0000
     27 H11        8.1202    2.5281    4.5647 Du        3 SUP3    0.0000
     28 C9         8.4826    4.0939    3.1924 Du        3 SUP3    0.0000
     29 H12        9.0104    4.2279    2.3927 Du        3 SUP3    0.0000
     30 H13        8.7254    4.7455    3.8674 Du        3 SUP3    0.0000
     31 C10        6.8185    4.1164    2.8633 C.ar      1 RES1    0.0000
     32 C11        6.6388    5.2545    2.1374 C.ar      1 RES1    0.0000
     33 H14        7.2989    5.9083    2.1304 H         1 RES1    0.0000
     34 C12        5.4730    5.4442    1.4091 C.ar      1 RES1    0.0000
     35 C13        4.4931    4.4776    1.4321 C.ar      1 RES1    0.0000
     36 C14        4.6822    3.3576    2.1461 C.ar      1 RES1    0.0000
     37 H15        4.0272    2.6975    2.1432 H         1 RES1    0.0000
     38 C15        5.8347    3.1690    2.8844 C.ar      1 RES1    0.0000
     39 H16        5.9407    2.3985    3.3939 H         1 RES1    0.0000
     40 C16        6.1799    7.5416    0.5460 C.3       1 RES1    0.0000
     41 H17        6.3806    7.9059    1.4107 H         1 RES1    0.0000
     42 H18        5.8676    8.2424   -0.0320 H         1 RES1    0.0000
     43 H19        6.9720    7.1493    0.1727 H         1 RES1    0.0000
     44 C17        3.3320    4.4883   -0.6014 C.2       1 RES1    0.0000
     45 C18        1.9718    4.7176   -1.1823 C.3       1 RES1    0.0000
     46 H20        2.0202    5.4057   -1.8489 H         1 RES1    0.0000
     47 H21        1.3681    4.9898   -0.4862 H         1 RES1    0.0000
     48 H22        1.6535    3.9053   -1.5834 H         1 RES1    0.0000
     49 C19       15.9742    0.8574   10.1466 C.ar      1 RES1    0.0000
     50 C20       16.2939    1.9441    9.3533 C.ar      1 RES1    0.0000
     51 C21       15.4484    2.3192    8.3419 C.ar      1 RES1    0.0000
     52 H23       15.6703    3.0318    7.7859 H         1 RES1    0.0000
     53 C22       14.2724    1.6386    8.1538 C.ar      1 RES1    0.0000
     54 C23       13.9987    0.5830    8.9695 C.ar      1 RES1    0.0000
     55 H24       13.2031    0.1168    8.8479 H         1 RES1    0.0000
     56 C24       14.8622    0.1747    9.9835 C.ar      1 RES1    0.0000
     57 H25       14.6610   -0.5541   10.5273 H         1 RES1    0.0000
     58 C25       17.8278    3.6695    8.8821 C.3       1 RES1    0.0000
     59 H26       17.7993    3.4294    7.9523 H         1 RES1    0.0000
     60 H27       18.7180    3.9385    9.1166 H         1 RES1    0.0000
     61 H28       17.2212    4.3950    9.0430 H         1 RES1    0.0000
     62 C26       17.8576   -0.1093   11.1287 C.2       1 RES1    0.0000
     63 C27       18.6576   -0.2390   12.3557 C.3       1 RES1    0.0000
     64 H29       19.5893   -0.2690   12.1299 H         1 RES1    0.0000
     65 H30       18.4130   -1.0471   12.8112 H         1 RES1    0.0000
     66 H31       18.4906    0.5144   12.9264 H         1 RES1    0.0000
     67 O8         6.2152    0.2015   29.2672 O.3       2 RES2    0.0000
     68 O9         0.0563    1.6997   23.6485 O.3       2 RES2    0.0000
     69 O10       -1.7200    3.4991   24.4101 O.3       2 RES2    0.0000
     70 O11       -0.6777    4.9170   23.0967 O.2       2 RES2    0.0000
     71 O12       14.6936    0.3408   30.0010 O.3       2 RES2    0.0000
     72 O13       14.2335    1.4200   31.9046 O.2       2 RES2    0.0000
     73 O14       13.0657   -1.4071   31.1996 O.3       2 RES2    0.0000
     74 N2         4.9506    0.3901   28.7189 N.2       2 RES2    0.0000
     75 C28        9.1595    0.2690   28.6195 C.3       2 RES2    0.0000
     76 H32        9.0717    0.3772   27.6601 H         2 RES2    0.0000
     77 H33        8.7962   -0.6012   28.8437 H         2 RES2    0.0000
     78 C29        8.3404    1.2721   29.2563 C.3       2 RES2    0.0000
     79 H34        8.6954    2.1498   29.0484 H         2 RES2    0.0000
     80 H35        8.3872    1.1542   30.2192 H         2 RES2    0.0000
     81 C30        6.9235    1.2153   28.8373 C.2       2 RES2    0.0000
     82 C31        6.1206    1.9623   28.1496 C.2       2 RES2    0.0000
     83 H36        6.3563    2.7607   27.7337 H         2 RES2    0.0000
     84 C32        4.8947    1.4104   28.1272 C.2       2 RES2    0.0000
     85 C33        4.0149    2.3599   27.1579 Du        3 SUP3    0.0000
     86 H37        4.3692    3.2633   27.1323 Du        3 SUP3    0.0000
     87 H38        3.9758    2.0062   26.2559 Du        3 SUP3    0.0000
     88 C34        2.6998    2.3224   27.8041 Du        3 SUP3    0.0000
     89 H39        2.6893    2.8904   28.5910 Du        3 SUP3    0.0000
     90 H40        2.4773    1.4168   28.0728 Du        3 SUP3    0.0000
     91 C35        3.4317    1.3332   27.6026 C.3       2 RES2    0.0000
     92 H41        3.3826    0.8349   26.7709 H         2 RES2    0.0000
     93 H42        2.8484    0.9174   28.2551 H         2 RES2    0.0000
     94 C36        3.0699    2.7746   27.3914 C.3       2 RES2    0.0000
     95 H43        3.7304    3.2012   26.8253 H         2 RES2    0.0000
     96 H44        3.0555    3.2397   28.2455 H         2 RES2    0.0000
     97 C37        1.6689    2.8497   26.7254 C.ar      2 RES2    0.0000
     98 C38        1.4528    2.1188   25.5652 C.ar      2 RES2    0.0000
     99 H45        2.0587    1.4618   25.3090 H         2 RES2    0.0000
    100 C39        0.3437    2.3685   24.7940 C.ar      2 RES2    0.0000
    101 C40       -0.5555    3.3394   25.1555 C.ar      2 RES2    0.0000
    102 C41       -0.3392    4.0339   26.2783 C.ar      2 RES2    0.0000
    103 H46       -0.9490    4.6865   26.5310 H         2 RES2    0.0000
    104 C42        0.7675    3.8045   27.0616 C.ar      2 RES2    0.0000
    105 H47        0.8989    4.3104   27.8297 H         2 RES2    0.0000
    106 C43        0.9830    0.7631   23.1911 C.3       2 RES2    0.0000
    107 H48        1.8002    1.2089   22.9579 H         2 RES2    0.0000
    108 H49        0.6304    0.3162   22.4173 H         2 RES2    0.0000
    109 H50        1.1543    0.1190   23.8823 H         2 RES2    0.0000
    110 C44       -1.6645    4.3340   23.3961 C.2       2 RES2    0.0000
    111 C45       -2.9493    4.4272   22.6812 C.3       2 RES2    0.0000
    112 H51       -2.8767    5.0756   21.9758 H         2 RES2    0.0000
    113 H52       -3.6387    4.6951   23.2938 H         2 RES2    0.0000
    114 H53       -3.1702    3.5709   22.3085 H         2 RES2    0.0000
    115 C46       13.3158    0.3965   29.6722 C.ar      2 RES2    0.0000
    116 C47       12.4850   -0.5680   30.2457 C.ar      2 RES2    0.0000
    117 C48       11.1193   -0.6377   29.9217 C.ar      2 RES2    0.0000
    118 H54       10.5581   -1.2528   30.3375 H         2 RES2    0.0000
    119 C49       10.6296    0.2572   28.9525 C.ar      2 RES2    0.0000
    120 C50       11.5149    1.1821   28.3818 C.ar      2 RES2    0.0000
    121 H55       11.1969    1.7897   27.7529 H         2 RES2    0.0000
    122 C51       12.8474    1.2089   28.7340 C.ar      2 RES2    0.0000
    123 H56       13.4234    1.8026   28.3095 H         2 RES2    0.0000
    124 C52       12.2238   -2.4006   31.8064 C.3       2 RES2    0.0000
    125 H57       11.5559   -1.9698   32.3432 H         2 RES2    0.0000
    126 H58       12.7571   -2.9772   32.3592 H         2 RES2    0.0000
    127 H59       11.7966   -2.9193   31.1213 H         2 RES2    0.0000
    128 C53       15.0033    0.8713   31.1660 C.2       2 RES2    0.0000
    129 C54       16.4772    0.7363   31.4175 C.3       2 RES2    0.0000
    130 H60       16.9431    1.4554   30.9837 H         2 RES2    0.0000
    131 H61       16.7863   -0.1018   31.0669 H         2 RES2    0.0000
    132 H62       16.6448    0.7695   32.3624 H         2 RES2    0.0000
@<TRIPOS>BOND
     1    1    8 1
     2    2   34 1
     3    3   35 1
     4    4   44 2
     5    5   49 1
     6    6   62 2
     7    7   50 1
     8    8   18 2
     9    9   10 1
    10   11    9 1
    11   12    9 1
    12   13   12 1
    13   14   12 1
    14   15    1 1
    15   16   15 2
    16   17   16 1
    17   18   16 1
    18   19   18 1
    19   20   19 1
    20   21   19 1
    21   22   19 1
    22   23   22 1
    23   24   22 1
    24   31   22 1
    25   32   31 ar
    26   33   32 1
    27   34   32 ar
    28   35   34 ar
    29   36   35 ar
    30   37   36 1
    31   38   31 ar
    32   39   38 1
    33   40    2 1
    34   41   40 1
    35   42   40 1
    36   43   40 1
    37   44    3 1
    38   45   44 1
    39   46   45 1
    40   47   45 1
    41   48   45 1
    42   49   50 ar
    43   50   51 ar
    44   51   52 1
    45   53    9 1
    46   54   53 ar
    47   55   54 1
    48   56   49 ar
    49   57   56 1
    50   58    7 1
    51   59   58 1
    52   60   58 1
    53   61   58 1
    54   62    5 1
    55   63   62 1
    56   64   63 1
    57   65   63 1
    58   66   63 1
    59   67   74 1
    60   68  100 1
    61   69  101 1
    62   70  110 2
    63   71  115 1
    64   72  128 2
    65   73  116 1
    66   74   84 2
    67   75   76 1
    68   77   75 1
    69   78   75 1
    70   79   78 1
    71   80   78 1
    72   81   67 1
    73   82   81 2
    74   83   82 1
    75   84   82 1
    76   91   84 1
    77   92   91 1
    78   93   91 1
    79   94   91 1
    80   95   94 1
    81   96   94 1
    82   97   94 1
    83   98   97 ar
    84   99   98 1
    85  100   98 ar
    86  101  100 ar
    87  102  101 ar
    88  103  102 1
    89  104   97 ar
    90  105  104 1
    91  106   68 1
    92  107  106 1
    93  108  106 1
    94  109  106 1
    95  110   69 1
    96  111  110 1
    97  112  111 1
    98  113  111 1
    99  114  111 1
   100  115  116 ar
   101  116  117 ar
   102  117  118 1
   103  119   75 1
   104  120  119 ar
   105  121  120 1
   106  122  115 ar
   107  123  122 1
   108  124   73 1
   109  125  124 1
   110  126  124 1
   111  127  124 1
   112  128   71 1
   113  129  128 1
   114  130  129 1
   115  131  129 1
   116  132  129 1
   117   12   15 1
   118   36   38 ar
   119   51   53 ar
   120   54   56 ar
   121   78   81 1
   122  102  104 ar
   123  117  119 ar
   124  120  122 ar
@<TRIPOS>SUBSTRUCTURE
     1 RES1 1
     2 RES2 67
     3 SUP3 25

@<TRIPOS>CRYSIN
  14.0310   10.7170   32.0930  90.0000  94.6330  90.0000 231 1

