# MOL2 file generated by ConQuest
# Please check atom types

@<TRIPOS>MOLECULE
HERLIA
   143   135     3
SMALL
NO_CHARGES
****
Generated from CSD

@<TRIPOS>ATOM
      1 O1         0.7543   13.3847   28.6004 O.3       1 RES1    0.0000
      2 H1         0.2118   13.0154   29.1256 H         1 RES1    0.0000
      3 O2         0.1081   12.8428   16.9959 O.2       1 RES1    0.0000
      4 O3         0.8503   13.8155   15.1985 O.2       1 RES1    0.0000
      5 O4         2.3532   18.2786   15.1093 O.2       1 RES1    0.0000
      6 O5         2.2194   19.5021   16.9054 O.2       1 RES1    0.0000
      7 N1        -0.3736   14.3935   20.5589 N.2       1 RES1    0.0000
      8 N2        -0.0480   14.1788   19.2366 N.pl3     1 RES1    0.0000
      9 H2        -0.1496   13.3772   18.8877 H         1 RES1    0.0000
     10 N3         0.5804   13.8261   16.3772 N.pl3     1 RES1    0.0000
     11 N4         2.0569   18.4392   16.2875 N.pl3     1 RES1    0.0000
     12 C1         2.0405   15.8497   24.9756 C.3       1 RES1    0.0000
     13 H3         2.6374   15.5374   24.2481 H         1 RES1    0.0000
     14 H4         1.3119   16.3721   24.5570 H         1 RES1    0.0000
     15 C2         2.8478   16.7879   25.9041 C.3       1 RES1    0.0000
     16 H5         3.1047   17.5881   25.3794 H         1 RES1    0.0000
     17 H6         3.6837   16.3225   26.1582 H         1 RES1    0.0000
     18 C3         2.1550   17.2773   27.2155 C.3       1 RES1    0.0000
     19 H7         2.7819   17.8207   27.7550 H         1 RES1    0.0000
     20 H8         1.3613   17.8298   27.0023 H         1 RES1    0.0000
     21 C4         1.7377   16.0058   27.9869 C.3       1 RES1    0.0000
     22 C5         0.9955   15.1606   26.9932 C.3       1 RES1    0.0000
     23 H9         0.3536   15.8527   26.6629 H         1 RES1    0.0000
     24 C6         0.1360   14.5331   28.0035 C.3       1 RES1    0.0000
     25 C7        -1.1730   14.0918   27.3060 C.3       1 RES1    0.0000
     26 H10       -1.6826   13.4823   27.8986 H         1 RES1    0.0000
     27 H11       -1.7370   14.8829   27.1111 H         1 RES1    0.0000
     28 C8        -0.8145   13.3877   26.0233 C.2       1 RES1    0.0000
     29 C9         0.0809   14.1398   25.0178 C.3       1 RES1    0.0000
     30 H12       -0.4101   14.9955   24.8529 H         1 RES1    0.0000
     31 C10        1.4142   14.5977   25.6709 C.3       1 RES1    0.0000
     32 C11        0.2577   13.5468   23.6207 C.3       1 RES1    0.0000
     33 H13        1.0263   13.9942   23.1865 H         1 RES1    0.0000
     34 H14        0.4852   12.5876   23.7129 H         1 RES1    0.0000
     35 C12       -0.9454   13.6669   22.7061 C.3       1 RES1    0.0000
     36 H15       -1.6490   13.0409   23.0124 H         1 RES1    0.0000
     37 H16       -1.3090   14.5857   22.7688 H         1 RES1    0.0000
     38 C13       -0.6162   13.3697   21.2947 C.2       1 RES1    0.0000
     39 C14       -0.4681   11.9706   20.8496 C.3       1 RES1    0.0000
     40 H17       -0.4151   11.3821   21.6332 H         1 RES1    0.0000
     41 H18        0.3507   11.8820   20.3192 H         1 RES1    0.0000
     42 H19       -1.2410   11.7184   20.3018 H         1 RES1    0.0000
     43 C15       -1.2317   12.1807   25.7701 C.2       1 RES1    0.0000
     44 H20       -1.7749   11.7244   26.4019 H         1 RES1    0.0000
     45 H21       -0.9920   11.7574   24.9530 H         1 RES1    0.0000
     46 C16        0.4645   15.8662   28.8941 C.3       1 RES1    0.0000
     47 H22       -0.1932   16.5988   28.7906 H         1 RES1    0.0000
     48 H23        0.6592   15.6830   29.8479 H         1 RES1    0.0000
     49 C17        2.9487   15.3828   28.6753 C.3       1 RES1    0.0000
     50 H24        2.8299   15.4248   29.6477 H         1 RES1    0.0000
     51 H25        3.7574   15.8752   28.4207 H         1 RES1    0.0000
     52 H26        3.0367   14.4475   28.3990 H         1 RES1    0.0000
     53 C18        2.4226   13.4372   25.7910 C.3       1 RES1    0.0000
     54 H27        2.5801   13.2376   26.7369 H         1 RES1    0.0000
     55 H28        3.2679   13.6939   25.3663 H         1 RES1    0.0000
     56 H29        2.0612   12.6431   25.3446 H         1 RES1    0.0000
     57 C19        0.4294   15.1921   18.4609 C.ar      1 RES1    0.0000
     58 C20        0.7143   15.0690   17.1168 C.ar      1 RES1    0.0000
     59 C21        1.2332   16.1394   16.3985 C.ar      1 RES1    0.0000
     60 H30        1.4715   16.0403   15.4852 H         1 RES1    0.0000
     61 C22        1.3935   17.3419   17.0355 C.ar      1 RES1    0.0000
     62 C23        1.1058   17.5220   18.3852 C.ar      1 RES1    0.0000
     63 H31        1.2618   18.3582   18.8050 H         1 RES1    0.0000
     64 C24        0.5926   16.4667   19.0904 C.ar      1 RES1    0.0000
     65 H32        0.3450   16.5808   20.0015 H         1 RES1    0.0000
     66 O6         6.2910   12.1282   30.6006 O.3       2 RES2    0.0000
     67 H33        6.3662   12.4374   29.8218 H         2 RES2    0.0000
     68 O7         7.2858   17.0266   41.2344 O.2       2 RES2    0.0000
     69 O8         7.7310   16.2550   43.2150 O.2       2 RES2    0.0000
     70 O9         6.9995   11.7529   44.3989 O.2       2 RES2    0.0000
     71 O10        6.6531   10.2802   42.9096 O.2       2 RES2    0.0000
     72 N5         6.2645   15.0465   38.0160 N.2       2 RES2    0.0000
     73 N6         6.5744   15.4113   39.3095 N.pl3     2 RES2    0.0000
     74 H34        6.7512   16.2535   39.4940 H         2 RES2    0.0000
     75 N7         7.3531   16.1064   42.0555 N.pl3     2 RES2    0.0000
     76 N8         6.8006   11.4557   43.2542 N.pl3     2 RES2    0.0000
     77 C25        3.5706   11.9345   34.5809 C.3       2 RES2    0.0000
     78 H35        2.9694   12.7212   34.5817 H         2 RES2    0.0000
     79 H36        3.8047   11.7349   35.5216 H         2 RES2    0.0000
     80 C26        2.8170   10.7336   33.9909 C.3       2 RES2    0.0000
     81 H37        3.3588    9.9199   34.1466 H         2 RES2    0.0000
     82 H38        1.9689   10.6240   34.4904 H         2 RES2    0.0000
     83 C27        2.4892   10.8161   32.4946 C.3       2 RES2    0.0000
     84 H39        2.0662    9.9710   32.2018 H         2 RES2    0.0000
     85 H40        1.8479   11.5532   32.3366 H         2 RES2    0.0000
     86 C28        3.7445   11.0578   31.6988 C.3       2 RES2    0.0000
     87 C29        4.4330   12.2453   32.3566 C.3       2 RES2    0.0000
     88 H41        3.7997   13.0109   32.2409 H         2 RES2    0.0000
     89 C30        5.1387   12.7272   31.2445 C.3       2 RES2    0.0000
     90 C31        5.3534   14.1999   31.4882 C.3       2 RES2    0.0000
     91 H42        4.4910   14.6817   31.5448 H         2 RES2    0.0000
     92 H43        5.9060   14.6052   30.7703 Du        3 SUP3    0.0000
     93 C32        6.0906   14.2164   32.8370 C.2       2 RES2    0.0000
     94 C33        5.3019   13.7930   34.0357 C.3       2 RES2    0.0000
     95 H44        4.5662   14.4175   33.7768 H         2 RES2    0.0000
     96 C34        4.8496   12.2903   33.8186 C.3       2 RES2    0.0000
     97 C35        5.7592   14.0783   35.4698 C.3       2 RES2    0.0000
     98 H45        6.6360   13.6459   35.6260 H         2 RES2    0.0000
     99 H46        5.1087   13.6849   36.1046 H         2 RES2    0.0000
    100 C36        5.8845   15.6080   35.7448 C.3       2 RES2    0.0000
    101 H47        6.5665   15.9788   35.1300 H         2 RES2    0.0000
    102 H48        5.0206   16.0358   35.5172 H         2 RES2    0.0000
    103 C37        6.2431   15.9968   37.1201 C.2       2 RES2    0.0000
    104 C38        6.5515   17.4169   37.4173 C.3       2 RES2    0.0000
    105 H49        6.7312   17.5190   38.3758 H         2 RES2    0.0000
    106 H50        5.7872   17.9769   37.1662 H         2 RES2    0.0000
    107 H51        7.3409   17.6931   36.9052 H         2 RES2    0.0000
    108 C39        7.3717   14.5031   32.9675 C.2       2 RES2    0.0000
    109 H52        7.7918   14.4400   33.8160 H         2 RES2    0.0000
    110 H53        7.8806   14.7733   32.2105 H         2 RES2    0.0000
    111 C40        3.9414   11.8310   30.3526 C.3       2 RES2    0.0000
    112 H54        3.1584   12.3639   30.0654 Du        3 SUP3    0.0000
    113 H55        4.3028   11.2830   29.6129 Du        3 SUP3    0.0000
    114 C41        4.5383    9.7443   31.5817 C.3       2 RES2    0.0000
    115 H56        5.3470    9.8974   31.0487 H         2 RES2    0.0000
    116 H57        3.9843    9.0642   31.1445 H         2 RES2    0.0000
    117 H58        4.7902    9.4335   32.4759 H         2 RES2    0.0000
    118 C42        6.0169   11.3326   34.1684 C.3       2 RES2    0.0000
    119 H59        6.2380   11.4196   35.1169 H         2 RES2    0.0000
    120 H60        6.8006   11.5622   33.6289 H         2 RES2    0.0000
    121 H61        5.7485   10.4078   33.9813 H         2 RES2    0.0000
    122 C43        6.6102   14.4911   40.2907 C.ar      2 RES2    0.0000
    123 C44        6.9867   14.7598   41.5956 C.ar      2 RES2    0.0000
    124 C45        7.0446   13.7600   42.5915 C.ar      2 RES2    0.0000
    125 H62        7.3137   13.9627   43.4795 H         2 RES2    0.0000
    126 C46        6.6982   12.4990   42.2273 C.ar      2 RES2    0.0000
    127 C47        6.3125   12.1927   40.9494 C.ar      2 RES2    0.0000
    128 H63        6.0784   11.2980   40.7341 H         2 RES2    0.0000
    129 C48        6.2574   13.1490   39.9809 C.ar      2 RES2    0.0000
    130 H64        5.9833   12.9193   39.1024 H         2 RES2    0.0000
    131 O11        6.2982   11.8655   30.9965 Du        3 SUP3    0.0000
    132 C49        5.7829   12.6386   31.3925 Du        3 SUP3    0.0000
    133 C50        6.3554   14.0257   31.7144 Du        3 SUP3    0.0000
    134 H65        7.1828   14.1773   31.1880 Du        3 SUP3    0.0000
    135 H66        5.7020   14.7253   31.4708 H         2 RES2    0.0000
    136 C51        6.6703   14.1158   33.1590 Du        3 SUP3    0.0000
    137 C52        7.9443   14.3229   33.6724 Du        3 SUP3    0.0000
    138 H67        8.6850   14.4160   33.0850 Du        3 SUP3    0.0000
    139 H68        8.0752   14.3725   34.6122 Du        3 SUP3    0.0000
    140 C53        3.0489   11.5743   30.3091 Du        3 SUP3    0.0000
    141 H69        2.5980   10.8222   29.8696 Du        3 SUP3    0.0000
    142 H70        3.7388   11.9345   29.7130 H         2 RES2    0.0000
    143 H71        2.3940   12.2738   30.5092 Du        3 SUP3    0.0000
@<TRIPOS>BOND
     1    1    2 1
     2    3   10 2
     3    4   10 2
     4    5   11 2
     5    6   11 2
     6    7    8 1
     7    8    9 1
     8   10   58 1
     9   11   61 1
    10   12   13 1
    11   14   12 1
    12   15   12 1
    13   16   15 1
    14   17   15 1
    15   18   15 1
    16   19   18 1
    17   20   18 1
    18   21   18 1
    19   22   21 1
    20   23   22 1
    21   24    1 1
    22   25   24 1
    23   26   25 1
    24   27   25 1
    25   28   25 1
    26   29   28 1
    27   30   29 1
    28   31   12 1
    29   32   29 1
    30   33   32 1
    31   34   32 1
    32   35   32 1
    33   36   35 1
    34   37   35 1
    35   38    7 2
    36   39   38 1
    37   40   39 1
    38   41   39 1
    39   42   39 1
    40   43   28 2
    41   44   43 1
    42   45   43 1
    43   46   21 1
    44   47   46 1
    45   48   46 1
    46   49   21 1
    47   50   49 1
    48   51   49 1
    49   52   49 1
    50   53   31 1
    51   54   53 1
    52   55   53 1
    53   56   53 1
    54   57    8 1
    55   58   57 ar
    56   59   58 ar
    57   60   59 1
    58   61   59 ar
    59   62   61 ar
    60   63   62 1
    61   64   57 ar
    62   65   64 1
    63   66   67 1
    64   68   75 2
    65   69   75 2
    66   70   76 2
    67   71   76 2
    68   72   73 1
    69   73   74 1
    70   75  123 1
    71   76  126 1
    72   77   78 1
    73   79   77 1
    74   80   77 1
    75   81   80 1
    76   82   80 1
    77   83   80 1
    78   84   83 1
    79   85   83 1
    80   86   83 1
    81   87   86 1
    82   88   87 1
    83   89   66 1
    84   90   89 1
    85   91   90 1
    86   93   90 1
    87   94   93 1
    88   95   94 1
    89   96   77 1
    90   97   94 1
    91   98   97 1
    92   99   97 1
    93  100   97 1
    94  101  100 1
    95  102  100 1
    96  103   72 2
    97  104  103 1
    98  105  104 1
    99  106  104 1
   100  107  104 1
   101  108   93 2
   102  109  108 1
   103  110  108 1
   104  111   86 1
   105  114   86 1
   106  115  114 1
   107  116  114 1
   108  117  114 1
   109  118   96 1
   110  119  118 1
   111  120  118 1
   112  121  118 1
   113  122   73 1
   114  123  122 ar
   115  124  123 ar
   116  125  124 1
   117  126  124 ar
   118  127  126 ar
   119  128  127 1
   120  129  122 ar
   121  130  129 1
   122  135   90 1
   123  142  111 1
   124   22   24 1
   125   22   31 1
   126   24   46 1
   127   29   31 1
   128   35   38 1
   129   62   64 ar
   130   87   89 1
   131   87   96 1
   132   89  111 1
   133   94   96 1
   134  100  103 1
   135  127  129 ar
@<TRIPOS>SUBSTRUCTURE
     1 RES1 1
     2 RES2 66
     3 SUP3 92

@<TRIPOS>CRYSIN
   7.1570   15.0120   43.5100  90.0000  90.0000  90.0000  19 1

