# MOL2 file generated by ConQuest
# Please check atom types

@<TRIPOS>MOLECULE
HERXEK01
    45    47     1
SMALL
NO_CHARGES
****
Generated from CSD

@<TRIPOS>ATOM
      1 O1         6.9641    0.9065    7.3998 O.2       1 RES1    0.0000
      2 O2         8.0153    1.3958    5.5683 O.2       1 RES1    0.0000
      3 O3         1.3872    9.6139    5.3072 O.3       1 RES1    0.0000
      4 H1         1.9776    9.2567    5.7863 H         1 RES1    0.0000
      5 N1         7.2548    1.6863    6.4929 N.pl3     1 RES1    0.0000
      6 N2         5.0604    6.8614    6.6244 N.3       1 RES1    0.0000
      7 N3         3.7102    9.3900    6.6125 N.3       1 RES1    0.0000
      8 C1         3.5419   10.8372    6.8270 C.3       1 RES1    0.0000
      9 H2         4.4350   11.2518    6.9299 H         1 RES1    0.0000
     10 H3         3.0442   10.9803    7.6707 H         1 RES1    0.0000
     11 C2         2.5883   15.0830    4.3353 C.3       1 RES1    0.0000
     12 H4         3.5560   15.2318    4.3777 H         1 RES1    0.0000
     13 H5         2.1459   15.6080    5.0344 H         1 RES1    0.0000
     14 H6         2.2532   15.3597    3.4571 H         1 RES1    0.0000
     15 C3         5.5601    5.5739    6.5697 C.ar      1 RES1    0.0000
     16 C4         6.4419    5.1793    5.5395 C.ar      1 RES1    0.0000
     17 H7         6.6572    5.7943    4.8482 H         1 RES1    0.0000
     18 C5         6.9937    3.9208    5.5199 C.ar      1 RES1    0.0000
     19 H8         7.5846    3.6692    4.8199 H         1 RES1    0.0000
     20 C6         6.6842    3.0230    6.5248 C.ar      1 RES1    0.0000
     21 C7         5.8218    3.3700    7.5502 C.ar      1 RES1    0.0000
     22 H9         5.6202    2.7462    8.2378 H         1 RES1    0.0000
     23 C8         5.2580    4.6266    7.5664 C.ar      1 RES1    0.0000
     24 H10        4.6545    4.8583    8.2626 H         1 RES1    0.0000
     25 C9         4.8665    7.6222    5.3870 C.3       1 RES1    0.0000
     26 H11        4.0318    7.3239    4.9456 H         1 RES1    0.0000
     27 H12        5.6195    7.4432    4.7699 H         1 RES1    0.0000
     28 C10        4.7853    9.1037    5.6616 C.3       1 RES1    0.0000
     29 H13        5.6476    9.4199    6.0313 H         1 RES1    0.0000
     30 H14        4.6170    9.5890    4.8152 H         1 RES1    0.0000
     31 C11        4.0092    8.6975    7.8732 C.3       1 RES1    0.0000
     32 H15        3.3058    8.9032    8.5383 H         1 RES1    0.0000
     33 H16        4.8740    9.0215    8.2308 H         1 RES1    0.0000
     34 C12        4.0803    7.2039    7.6601 C.3       1 RES1    0.0000
     35 H17        4.3323    6.7623    8.5097 H         1 RES1    0.0000
     36 H18        3.1886    6.8673    7.3930 H         1 RES1    0.0000
     37 C13        2.8083   11.5292    5.7032 C.ar      1 RES1    0.0000
     38 C14        1.7258   10.9159    5.0616 C.ar      1 RES1    0.0000
     39 C15        0.9484   11.6493    4.1770 C.ar      1 RES1    0.0000
     40 H19        0.2202   11.2320    3.7319 H         1 RES1    0.0000
     41 C16        1.2241   12.9780    3.9391 C.ar      1 RES1    0.0000
     42 H20        0.6677   13.4689    3.3456 H         1 RES1    0.0000
     43 C17        2.2947   13.6150    4.5463 C.ar      1 RES1    0.0000
     44 C18        3.0774   12.8606    5.4136 C.ar      1 RES1    0.0000
     45 H21        3.8276   13.2731    5.8252 H         1 RES1    0.0000
@<TRIPOS>BOND
     1    1    5 2
     2    2    5 2
     3    3    4 1
     4    5   20 1
     5    6   15 1
     6    7    8 1
     7    8    9 1
     8   10    8 1
     9   11   12 1
    10   13   11 1
    11   14   11 1
    12   15   16 ar
    13   16   17 1
    14   18   16 ar
    15   19   18 1
    16   20   18 ar
    17   21   20 ar
    18   22   21 1
    19   23   15 ar
    20   24   23 1
    21   25    6 1
    22   26   25 1
    23   27   25 1
    24   28    7 1
    25   29   28 1
    26   30   28 1
    27   31    7 1
    28   32   31 1
    29   33   31 1
    30   34    6 1
    31   35   34 1
    32   36   34 1
    33   37    8 1
    34   38    3 1
    35   39   38 ar
    36   40   39 1
    37   41   39 ar
    38   42   41 1
    39   43   11 1
    40   44   37 ar
    41   45   44 1
    42   21   23 ar
    43   25   28 1
    44   31   34 1
    45   37   38 ar
    46   41   43 ar
    47   43   44 ar
@<TRIPOS>SUBSTRUCTURE
     1 RES1 1

@<TRIPOS>CRYSIN
  10.3038   10.8285   15.4149  90.0000  90.0000  90.0000  19 1

