# MOL2 file generated by ConQuest
# Please check atom types

@<TRIPOS>MOLECULE
HESPIF
    40    41     1
SMALL
NO_CHARGES
****
Generated from CSD

@<TRIPOS>ATOM
      1 O1         8.8092   10.2154    1.4173 O.3       1 RES1    0.0000
      2 O2         9.8986    6.9037   -3.3754 O.2       1 RES1    0.0000
      3 O3        10.4958    8.5061    0.2751 O.3       1 RES1    0.0000
      4 O4        12.4760    6.6122    0.7709 O.3       1 RES1    0.0000
      5 O5        13.2162    6.3602   -1.7272 O.2       1 RES1    0.0000
      6 O6        14.5344    4.7473   -2.1328 O.2       1 RES1    0.0000
      7 O7        17.8948    3.5616    0.9520 O.2       1 RES1    0.0000
      8 O8        17.8797    4.3566    2.9605 O.2       1 RES1    0.0000
      9 N1        14.0127    5.5280   -1.3626 N.pl3     1 RES1    0.0000
     10 N2        17.3837    4.2106    1.8589 N.pl3     1 RES1    0.0000
     11 C1         7.9666   11.1969    2.0255 C.3       1 RES1    0.0000
     12 H1         7.8287   11.9236    1.4135 H         1 RES1    0.0000
     13 H2         8.3835   11.5253    2.8255 H         1 RES1    0.0000
     14 H3         7.1201   10.7994    2.2467 H         1 RES1    0.0000
     15 C2         8.4218    9.7158    0.2068 C.ar      1 RES1    0.0000
     16 C3         7.2603   10.0483   -0.4647 C.ar      1 RES1    0.0000
     17 H4         6.6617   10.6526   -0.0877 H         1 RES1    0.0000
     18 C4         6.9863    9.4820   -1.7003 C.ar      1 RES1    0.0000
     19 H5         6.2015    9.7082   -2.1444 H         1 RES1    0.0000
     20 C5         7.8516    8.5992   -2.2726 C.ar      1 RES1    0.0000
     21 H6         7.6500    8.2203   -3.0974 H         1 RES1    0.0000
     22 C6         9.0410    8.2633   -1.6214 C.ar      1 RES1    0.0000
     23 C7        10.0181    7.3679   -2.2688 C.2       1 RES1    0.0000
     24 H7        10.7822    7.1442   -1.7877 H         1 RES1    0.0000
     25 C8         9.3164    8.8127   -0.3741 C.ar      1 RES1    0.0000
     26 C9        10.3400    7.4826    1.2684 C.3       1 RES1    0.0000
     27 H8         9.9582    6.6868    0.8668 H         1 RES1    0.0000
     28 H9         9.7432    7.7890    1.9690 H         1 RES1    0.0000
     29 C10       11.6821    7.1712    1.8421 C.3       1 RES1    0.0000
     30 H10       12.0975    7.9772    2.1853 H         1 RES1    0.0000
     31 H11       11.5984    6.5332    2.5683 H         1 RES1    0.0000
     32 C11       13.6757    6.0994    1.0677 C.ar      1 RES1    0.0000
     33 C12       14.4249    5.4866    0.0441 C.ar      1 RES1    0.0000
     34 C13       15.6112    4.8469    0.3134 C.ar      1 RES1    0.0000
     35 H12       16.0787    4.4148   -0.3654 H         1 RES1    0.0000
     36 C14       16.0959    4.8537    1.5948 C.ar      1 RES1    0.0000
     37 C15       15.4218    5.4824    2.6162 C.ar      1 RES1    0.0000
     38 H13       15.7762    5.4968    3.4760 H         1 RES1    0.0000
     39 C16       14.2226    6.0867    2.3519 C.ar      1 RES1    0.0000
     40 H14       13.7598    6.4986    3.0463 H         1 RES1    0.0000
@<TRIPOS>BOND
     1    1   11 1
     2    2   23 2
     3    3   25 1
     4    4   29 1
     5    5    9 2
     6    6    9 2
     7    7   10 2
     8    8   10 2
     9    9   33 1
    10   10   36 1
    11   11   12 1
    12   13   11 1
    13   14   11 1
    14   15    1 1
    15   16   15 ar
    16   17   16 1
    17   18   16 ar
    18   19   18 1
    19   20   18 ar
    20   21   20 1
    21   22   20 ar
    22   23   22 1
    23   24   23 1
    24   25   15 ar
    25   26    3 1
    26   27   26 1
    27   28   26 1
    28   29   26 1
    29   30   29 1
    30   31   29 1
    31   32    4 1
    32   33   32 ar
    33   34   33 ar
    34   35   34 1
    35   36   34 ar
    36   37   36 ar
    37   38   37 1
    38   39   32 ar
    39   40   39 1
    40   22   25 ar
    41   37   39 ar
@<TRIPOS>SUBSTRUCTURE
     1 RES1 1

@<TRIPOS>CRYSIN
  13.1920    8.4397   14.6730  90.0000  94.9900  90.0000  14 1

