# MOL2 file generated by ConQuest
# Please check atom types

@<TRIPOS>MOLECULE
HESQOM
    59    53     2
SMALL
NO_CHARGES
****
Generated from CSD

@<TRIPOS>ATOM
      1 O1         2.5337   14.6997    7.5005 O.2       1 RES1    0.0000
      2 O2         3.3835   12.9134    6.6634 O.2       1 RES1    0.0000
      3 O3         1.5824    9.4815   12.0903 O.3       1 RES1    0.0000
      4 O4        -2.9368    2.5812   14.2431 O.2       1 RES1    0.0000
      5 N1         2.9157   13.5463    7.6021 N.pl3     1 RES1    0.0000
      6 N2        -1.9832    5.0154   14.8909 N.2       1 RES1    0.0000
      7 N3        -2.7460    4.2539   15.7643 N.am      1 RES1    0.0000
      8 H1        -2.9379    4.5467   16.5502 H         1 RES1    0.0000
      9 N4        -5.3195    0.4503   18.0608 N.ar      1 RES1    0.0000
     10 C1         1.8295   12.7950   11.0772 C.ar      1 RES1    0.0000
     11 H2         1.3183   13.1891   11.7478 H         1 RES1    0.0000
     12 C2         2.0390   13.4760    9.8865 C.ar      1 RES1    0.0000
     13 H3         1.6740   14.3221    9.7553 H         1 RES1    0.0000
     14 C3         2.7944   12.8788    8.9040 C.ar      1 RES1    0.0000
     15 C4         3.3805   11.6531    9.0906 C.ar      1 RES1    0.0000
     16 H4         3.9122   11.2746    8.4280 H         1 RES1    0.0000
     17 C5         3.1658   10.9933   10.2819 C.ar      1 RES1    0.0000
     18 H5         3.5628   10.1639   10.4205 H         1 RES1    0.0000
     19 C6         2.3697   11.5391   11.2801 C.ar      1 RES1    0.0000
     20 C7         2.0383   10.7634   12.5217 C.3       1 RES1    0.0000
     21 H6         2.8229   10.6718   13.0839 H         1 RES1    0.0000
     22 H7         1.3457   11.2155   13.0289 H         1 RES1    0.0000
     23 C8         0.8965    8.6927   12.9731 C.ar      1 RES1    0.0000
     24 C9         0.2783    7.5596   12.4014 C.ar      1 RES1    0.0000
     25 C10       -0.4731    6.7168   13.1761 C.ar      1 RES1    0.0000
     26 H8        -0.8767    5.9744   12.7883 H         1 RES1    0.0000
     27 C11       -0.6403    6.9599   14.5414 C.ar      1 RES1    0.0000
     28 C12       -0.0062    8.0508   15.1054 C.ar      1 RES1    0.0000
     29 H9        -0.0930    8.2126   16.0169 H         1 RES1    0.0000
     30 C13        0.7613    8.9114   14.3257 C.ar      1 RES1    0.0000
     31 H10        1.1859    9.6381   14.7214 H         1 RES1    0.0000
     32 O5         0.6975    7.1544   11.1784 O.3       1 RES1    0.0000
     33 C14        0.1787    5.9465   10.6393 C.3       1 RES1    0.0000
     34 H11       -0.7904    5.9443   10.6857 H         1 RES1    0.0000
     35 H12        0.5139    5.1830   11.1349 H         1 RES1    0.0000
     36 C15        0.6380    5.8818    9.1974 C.3       1 RES1    0.0000
     37 H13        0.3187    5.0714    8.7946 H         1 RES1    0.0000
     38 H14        1.5970    5.8974    9.1670 H         1 RES1    0.0000
     39 H15        0.2893    6.6364    8.7163 H         1 RES1    0.0000
     40 O6         0.2629    7.7315   10.9349 Du        2 SUP2    0.0000
     41 C16       -0.3813    6.7112   10.1466 Du        2 SUP2    0.0000
     42 H16       -0.6227    7.0740    9.2800 Du        2 SUP2    0.0000
     43 H17       -1.1953    6.4243   10.5900 Du        2 SUP2    0.0000
     44 C17        0.5069    5.5692    9.9684 Du        2 SUP2    0.0000
     45 H18        0.0707    4.9061    9.4278 Du        2 SUP2    0.0000
     46 H19        0.7222    5.1930   10.8248 Du        2 SUP2    0.0000
     47 H20        1.3129    5.8550    9.5322 Du        2 SUP2    0.0000
     48 C18       -1.4670    6.0783   15.3716 C.2       1 RES1    0.0000
     49 H21       -1.6170    6.2970   16.2632 H         1 RES1    0.0000
     50 C19       -3.1810    3.0397   15.3519 C.2       1 RES1    0.0000
     51 C20       -3.9644    2.2209   16.3469 C.ar      1 RES1    0.0000
     52 C21       -4.6143    1.0929   15.8734 C.ar      1 RES1    0.0000
     53 H22       -4.6050    0.8986   14.9634 H         1 RES1    0.0000
     54 C22       -5.2723    0.2590   16.7451 C.ar      1 RES1    0.0000
     55 H23       -5.7106   -0.4822   16.3951 H         1 RES1    0.0000
     56 C23       -4.6874    1.5438   18.5183 C.ar      1 RES1    0.0000
     57 H24       -4.7046    1.7068   19.4339 H         1 RES1    0.0000
     58 C24       -4.0141    2.4402   17.7151 C.ar      1 RES1    0.0000
     59 H25       -3.5964    3.1837   18.0877 H         1 RES1    0.0000
@<TRIPOS>BOND
     1    1    5 2
     2    2    5 2
     3    3   20 1
     4    4   50 2
     5    5   14 1
     6    6    7 1
     7    7    8 1
     8    9   54 ar
     9   10   11 1
    10   12   10 ar
    11   13   12 1
    12   14   12 ar
    13   15   14 ar
    14   16   15 1
    15   17   15 ar
    16   18   17 1
    17   19   10 ar
    18   20   19 1
    19   21   20 1
    20   22   20 1
    21   23    3 1
    22   24   23 ar
    23   25   24 ar
    24   26   25 1
    25   27   25 ar
    26   28   27 ar
    27   29   28 1
    28   30   23 ar
    29   31   30 1
    30   32   24 1
    31   33   32 1
    32   34   33 1
    33   35   33 1
    34   36   33 1
    35   37   36 1
    36   38   36 1
    37   39   36 1
    38   48    6 2
    39   49   48 1
    40   50    7 1
    41   51   50 1
    42   52   51 ar
    43   53   52 1
    44   54   52 ar
    45   55   54 1
    46   56    9 ar
    47   57   56 1
    48   58   51 ar
    49   59   58 1
    50   17   19 ar
    51   27   48 1
    52   28   30 ar
    53   56   58 ar
@<TRIPOS>SUBSTRUCTURE
     1 RES1 1
     2 SUP2 40

@<TRIPOS>CRYSIN
  12.4540   11.1630   14.9230  90.0000 103.8200  90.0000  14 1

