# MOL2 file generated by ConQuest
# Please check atom types

@<TRIPOS>MOLECULE
HESRUT
    96   100     2
SMALL
NO_CHARGES
****
Generated from CSD

@<TRIPOS>ATOM
      1 O1         4.9469    7.0373   13.6930 O.2       1 RES1    0.0000
      2 O2         1.7392    2.1544   16.7790 O.3       1 RES1    0.0000
      3 O3         2.7857    0.3866   18.4717 O.3       1 RES1    0.0000
      4 O4         2.4524    0.3325   13.2329 O.2       1 RES1    0.0000
      5 O5         1.0528   -0.6679   11.9879 O.2       1 RES1    0.0000
      6 O6         0.8815    4.2751   13.5331 O.2       2 RES2    0.0000
      7 O7        -1.7382    9.2133   16.8971 O.3       2 RES2    0.0000
      8 O8        -0.4286   10.9451   18.4543 O.3       2 RES2    0.0000
      9 O9        -0.9489   10.7536   13.2351 O.2       2 RES2    0.0000
     10 O10       -2.2495   11.9175   12.0586 O.2       2 RES2    0.0000
     11 N1         1.5220    8.7915   10.4836 N.ar      1 RES1    0.0000
     12 N2         3.0611    6.0489   14.4534 N.am      1 RES1    0.0000
     13 H1         2.2067    5.9736   14.3890 H         1 RES1    0.0000
     14 N3         3.7503    5.3475   15.4262 N.2       1 RES1    0.0000
     15 N4         1.3136    0.0097   12.9711 N.pl3     1 RES1    0.0000
     16 N5        -3.0605    2.6433   10.8533 N.ar      2 RES2    0.0000
     17 N6        -0.8914    5.2086   14.5831 N.am      2 RES2    0.0000
     18 H2        -1.7473    5.2710   14.6392 H         2 RES2    0.0000
     19 N7        -0.0880    5.8955   15.4738 N.2       2 RES2    0.0000
     20 N8        -2.0534   11.1538   12.9851 N.pl3     2 RES2    0.0000
     21 C1         3.5710    8.0408   11.4559 C.ar      1 RES1    0.0000
     22 H3         4.4959    7.9823   11.3827 H         1 RES1    0.0000
     23 C2         2.8357    8.6637   10.4720 C.ar      1 RES1    0.0000
     24 H4         3.2977    9.0192    9.7474 H         1 RES1    0.0000
     25 C3         0.9093    8.2894   11.5388 C.ar      1 RES1    0.0000
     26 H5        -0.0149    8.3741   11.5848 H         1 RES1    0.0000
     27 C4         1.5529    7.6443   12.5812 C.ar      1 RES1    0.0000
     28 H6         1.0656    7.3058   13.2981 H         1 RES1    0.0000
     29 C5         2.9269    7.5082   12.5452 C.ar      1 RES1    0.0000
     30 C6         3.7358    6.8450   13.6130 C.2       1 RES1    0.0000
     31 C7         3.0434    4.4947   16.0514 C.2       1 RES1    0.0000
     32 H7         2.1358    4.4300   15.8621 H         1 RES1    0.0000
     33 C8         3.6236    3.6153   17.0600 C.ar      1 RES1    0.0000
     34 C9         4.8271    3.9042   17.7045 C.ar      1 RES1    0.0000
     35 H8         5.2793    4.6938   17.5153 H         1 RES1    0.0000
     36 C10        5.3419    3.0197   18.6196 C.ar      1 RES1    0.0000
     37 H9         6.1404    3.2232   19.0505 H         1 RES1    0.0000
     38 C11        4.6969    1.8388   18.9088 C.ar      1 RES1    0.0000
     39 H10        5.0634    1.2459   19.5249 H         1 RES1    0.0000
     40 C12        3.4987    1.5319   18.2803 C.ar      1 RES1    0.0000
     41 C13        2.9660    2.4297   17.3772 C.ar      1 RES1    0.0000
     42 C14        3.3326   -0.6089   19.3533 C.3       1 RES1    0.0000
     43 H11        4.1860   -0.8959   19.0225 H         1 RES1    0.0000
     44 H12        2.7363   -1.3609   19.3968 H         1 RES1    0.0000
     45 H13        3.4394   -0.2351   20.2314 H         1 RES1    0.0000
     46 C15        1.8643    1.4773   15.5208 C.3       1 RES1    0.0000
     47 H14        2.4062    0.6791   15.6259 H         1 RES1    0.0000
     48 H15        2.2957    2.0556   14.8733 H         1 RES1    0.0000
     49 C16        0.4838    1.1041   15.0409 C.ar      1 RES1    0.0000
     50 C17       -0.6249    1.4345   15.7994 C.ar      1 RES1    0.0000
     51 H16       -0.5064    1.9068   16.5926 H         1 RES1    0.0000
     52 C18       -1.9020    1.0835   15.4119 C.ar      1 RES1    0.0000
     53 H17       -2.6266    1.3138   15.9482 H         1 RES1    0.0000
     54 C19       -2.1119    0.3939   14.2408 C.ar      1 RES1    0.0000
     55 H18       -2.9757    0.1619   13.9847 H         1 RES1    0.0000
     56 C20       -1.0460    0.0515   13.4549 C.ar      1 RES1    0.0000
     57 H19       -1.1741   -0.4179   12.6616 H         1 RES1    0.0000
     58 C21        0.2252    0.4148   13.8598 C.ar      1 RES1    0.0000
     59 C22       -0.9033    3.4742   11.4213 C.ar      2 RES2    0.0000
     60 H20       -0.0266    3.6255   11.1505 H         2 RES2    0.0000
     61 C23       -1.8104    2.8988   10.5546 C.ar      2 RES2    0.0000
     62 H21       -1.5148    2.6773    9.7014 H         2 RES2    0.0000
     63 C24       -3.4452    2.9858   12.0738 C.ar      2 RES2    0.0000
     64 H22       -4.3304    2.8340   12.3154 H         2 RES2    0.0000
     65 C25       -2.6062    3.5547   13.0063 C.ar      2 RES2    0.0000
     66 H23       -2.9251    3.7587   13.8566 H         2 RES2    0.0000
     67 C26       -1.3074    3.8203   12.6821 C.ar      2 RES2    0.0000
     68 C27       -0.3304    4.4435   13.6298 C.2       2 RES2    0.0000
     69 C28       -0.7105    6.7392   16.1997 C.2       2 RES2    0.0000
     70 H24       -1.6343    6.8147   16.1203 H         2 RES2    0.0000
     71 C29       -0.0031    7.5871   17.1503 C.ar      2 RES2    0.0000
     72 C30        1.1949    7.2005   17.7521 C.ar      2 RES2    0.0000
     73 H25        1.5508    6.3602   17.5774 H         2 RES2    0.0000
     74 C31        1.8478    8.0559   18.5972 C.ar      2 RES2    0.0000
     75 H26        2.6435    7.7890   18.9965 H         2 RES2    0.0000
     76 C32        1.3372    9.3167   18.8638 C.ar      2 RES2    0.0000
     77 H27        1.7974    9.8916   19.4328 H         2 RES2    0.0000
     78 C33        0.1487    9.7245   18.2907 C.ar      2 RES2    0.0000
     79 C34       -0.5198    8.8338   17.4435 C.ar      2 RES2    0.0000
     80 C35        0.2087   11.8666   19.3469 C.3       2 RES2    0.0000
     81 H28        0.2271   11.4954   20.2314 H         2 RES2    0.0000
     82 H29       -0.2804   12.6917   19.3567 H         2 RES2    0.0000
     83 H30        1.1072   12.0309   19.0505 H         2 RES2    0.0000
     84 C36       -1.5916    9.7603   15.5815 C.3       2 RES2    0.0000
     85 H31       -1.1699    9.1107   14.9994 H         2 RES2    0.0000
     86 H32       -1.0306   10.5499   15.6139 H         2 RES2    0.0000
     87 C37       -2.9558   10.1197   15.0465 C.ar      2 RES2    0.0000
     88 C38       -4.0879    9.7992   15.7742 C.ar      2 RES2    0.0000
     89 H33       -3.9981    9.3536   16.5846 H         2 RES2    0.0000
     90 C39       -5.3526   10.1293   15.3177 C.ar      2 RES2    0.0000
     91 H34       -6.0989    9.8969   15.8221 H         2 RES2    0.0000
     92 C40       -5.5165   10.7972   14.1308 C.ar      2 RES2    0.0000
     93 H35       -6.3685   11.0200   13.8325 H         2 RES2    0.0000
     94 C41       -4.4178   11.1337   13.3906 C.ar      2 RES2    0.0000
     95 H36       -4.5147   11.5947   12.5876 H         2 RES2    0.0000
     96 C42       -3.1699   10.7852   13.8423 C.ar      2 RES2    0.0000
@<TRIPOS>BOND
     1    1   30 2
     2    2   41 1
     3    3   40 1
     4    4   15 2
     5    5   15 2
     6    6   68 2
     7    7   79 1
     8    8   78 1
     9    9   20 2
    10   10   20 2
    11   11   23 ar
    12   12   13 1
    13   14   12 1
    14   15   58 1
    15   16   61 ar
    16   17   18 1
    17   19   17 1
    18   20   96 1
    19   21   22 1
    20   23   21 ar
    21   24   23 1
    22   25   11 ar
    23   26   25 1
    24   27   25 ar
    25   28   27 1
    26   29   21 ar
    27   30   12 1
    28   31   14 2
    29   32   31 1
    30   33   31 1
    31   34   33 ar
    32   35   34 1
    33   36   34 ar
    34   37   36 1
    35   38   36 ar
    36   39   38 1
    37   40   38 ar
    38   41   33 ar
    39   42    3 1
    40   43   42 1
    41   44   42 1
    42   45   42 1
    43   46    2 1
    44   47   46 1
    45   48   46 1
    46   49   46 1
    47   50   49 ar
    48   51   50 1
    49   52   50 ar
    50   53   52 1
    51   54   52 ar
    52   55   54 1
    53   56   54 ar
    54   57   56 1
    55   58   49 ar
    56   59   60 1
    57   61   59 ar
    58   62   61 1
    59   63   16 ar
    60   64   63 1
    61   65   63 ar
    62   66   65 1
    63   67   59 ar
    64   68   17 1
    65   69   19 2
    66   70   69 1
    67   71   69 1
    68   72   71 ar
    69   73   72 1
    70   74   72 ar
    71   75   74 1
    72   76   74 ar
    73   77   76 1
    74   78   76 ar
    75   79   71 ar
    76   80    8 1
    77   81   80 1
    78   82   80 1
    79   83   80 1
    80   84    7 1
    81   85   84 1
    82   86   84 1
    83   87   84 1
    84   88   87 ar
    85   89   88 1
    86   90   88 ar
    87   91   90 1
    88   92   90 ar
    89   93   92 1
    90   94   92 ar
    91   95   94 1
    92   96   87 ar
    93   27   29 ar
    94   29   30 1
    95   40   41 ar
    96   56   58 ar
    97   65   67 ar
    98   67   68 1
    99   78   79 ar
   100   94   96 ar
@<TRIPOS>SUBSTRUCTURE
     1 RES1 1
     2 RES2 6

@<TRIPOS>CRYSIN
   7.8965   26.1200   20.1390  90.0000  96.3550  90.0000  14 1

