# MOL2 file generated by ConQuest
# Please check atom types

@<TRIPOS>MOLECULE
HESWEH
    34    37     1
SMALL
NO_CHARGES
****
Generated from CSD

@<TRIPOS>ATOM
      1 N1         3.8299   -0.9494    5.3718 N.pl3     1 RES1    0.0000
      2 O1         4.9779   -1.2880    5.6065 O.2       1 RES1    0.0000
      3 O2         2.8786   -1.0290    6.1236 O.2       1 RES1    0.0000
      4 N2         3.8213   -1.6610    3.0763 N.pl3     1 RES1    0.0000
      5 O3         3.0703   -2.5928    3.3135 O.2       1 RES1    0.0000
      6 O4         4.7087   -1.6257    2.2466 O.2       1 RES1    0.0000
      7 N3         5.0958    2.5300    2.0395 N.pl3     1 RES1    0.0000
      8 O5         6.3016    2.3806    2.1425 O.2       1 RES1    0.0000
      9 O6         4.5354    3.5767    1.7295 O.2       1 RES1    0.0000
     10 N4         2.1694   -0.0751    3.7741 N.3       1 RES1    0.0000
     11 O7         2.0710    0.3925    2.4286 O.3       1 RES1    0.0000
     12 O8         1.8437    1.0661    4.5397 O.3       1 RES1    0.0000
     13 C1         2.3795    2.2745    3.8456 C.3       1 RES1    0.0000
     14 C2         2.7507    1.6805    2.4424 C.3       1 RES1    0.0000
     15 C3         4.2293    1.3242    2.3094 C.3       1 RES1    0.0000
     16 C4         4.6571    0.6895    3.6486 C.3       1 RES1    0.0000
     17 C5         5.7731    2.0553    5.4823 C.ar      1 RES1    0.0000
     18 C6         5.7964    3.1965    6.2780 C.ar      1 RES1    0.0000
     19 C7         4.7308    4.0938    6.2579 C.ar      1 RES1    0.0000
     20 C8         3.6172    3.8445    5.4572 C.ar      1 RES1    0.0000
     21 C9         3.5791    2.6935    4.6602 C.ar      1 RES1    0.0000
     22 C10        4.6657    1.8078    4.6752 C.ar      1 RES1    0.0000
     23 C11        1.2377    3.2726    3.7628 C.3       1 RES1    0.0000
     24 C12        3.6123   -0.4013    3.9561 C.3       1 RES1    0.0000
     25 H1         2.4435    2.2701    1.6956 H         1 RES1    0.0000
     26 H2         4.3461    0.6586    1.5726 H         1 RES1    0.0000
     27 H3         5.5691    0.2855    3.5657 H         1 RES1    0.0000
     28 H4         6.5056    1.4515    5.4898 H         1 RES1    0.0000
     29 H5         6.5437    3.3645    6.8390 H         1 RES1    0.0000
     30 H6         4.7640    4.8797    6.7926 H         1 RES1    0.0000
     31 H7         2.8872    4.4518    5.4522 H         1 RES1    0.0000
     32 H8         1.5524    4.0929    3.3285 H         1 RES1    0.0000
     33 H9         0.9206    3.4830    4.6665 H         1 RES1    0.0000
     34 H10        0.5039    2.8871    3.2407 H         1 RES1    0.0000
@<TRIPOS>BOND
     1    1    2 2
     2    3    1 2
     3    4    5 2
     4    6    4 2
     5    7    8 2
     6    9    7 2
     7   10   11 1
     8   11   14 1
     9   12   10 1
    10   13   12 1
    11   14   13 1
    12   15    7 1
    13   16   15 1
    14   17   18 ar
    15   18   19 ar
    16   19   20 ar
    17   20   21 ar
    18   21   13 1
    19   22   16 1
    20   23   13 1
    21   24    1 1
    22   25   14 1
    23   26   15 1
    24   27   16 1
    25   28   17 1
    26   29   18 1
    27   30   19 1
    28   31   20 1
    29   32   23 1
    30   33   23 1
    31   34   23 1
    32    4   24 1
    33   10   24 1
    34   14   15 1
    35   16   24 1
    36   17   22 ar
    37   21   22 ar
@<TRIPOS>SUBSTRUCTURE
     1 RES1 1

@<TRIPOS>CRYSIN
  12.2910    8.8400   12.5510  90.0000  90.0000  90.0000  29 1

