# MOL2 file generated by ConQuest
# Please check atom types

@<TRIPOS>MOLECULE
HESWIL
    33    36     1
SMALL
NO_CHARGES
****
Generated from CSD

@<TRIPOS>ATOM
      1 N1         8.0019   -2.8752    9.2293 N.pl3     1 RES1    0.0000
      2 N2         8.1571   -2.5188   11.6459 N.3       1 RES1    0.0000
      3 N3         9.4657   -1.2019   10.1520 N.pl3     1 RES1    0.0000
      4 O1         8.0599   -2.4181    8.1005 O.2       1 RES1    0.0000
      5 O2         7.8881   -4.0424    9.5324 O.2       1 RES1    0.0000
      6 O3         8.2425   -1.4740   12.6021 O.3       1 RES1    0.0000
      7 O4         6.9177   -3.1303   11.9641 O.3       1 RES1    0.0000
      8 O5         9.5365   -0.0313    9.8405 O.2       1 RES1    0.0000
      9 O6        10.4061   -1.9556   10.3229 O.2       1 RES1    0.0000
     10 O7         5.8157    0.9666   11.3813 O.3       1 RES1    0.0000
     11 C1         5.9614   -2.0583   12.3827 C.3       1 RES1    0.0000
     12 C2         6.9213   -0.8523   12.5753 C.3       1 RES1    0.0000
     13 C3         6.9570    0.1170   11.3997 C.3       1 RES1    0.0000
     14 C4         6.9630   -0.7693   10.1386 C.3       1 RES1    0.0000
     15 C5         4.8676   -1.4005    8.8474 C.ar      1 RES1    0.0000
     16 C6         3.5678   -1.9032    8.8290 C.ar      1 RES1    0.0000
     17 C7         3.0040   -2.3943    9.9879 C.ar      1 RES1    0.0000
     18 C8         3.7284   -2.4127   11.1786 C.ar      1 RES1    0.0000
     19 C9         5.5921   -1.4039   10.0298 C.ar      1 RES1    0.0000
     20 C10        5.0257   -1.9297   11.1920 C.ar      1 RES1    0.0000
     21 C11        5.3374   -2.5303   13.6756 C.3       1 RES1    0.0000
     22 C12        8.0598   -1.8182   10.3312 C.3       1 RES1    0.0000
     23 H1         6.0587    1.7644   11.4834 H         1 RES1    0.0000
     24 H2         6.7320   -0.3734   13.4328 H         1 RES1    0.0000
     25 H3         7.7919    0.6666   11.4349 H         1 RES1    0.0000
     26 H4         7.1531   -0.2149    9.3281 H         1 RES1    0.0000
     27 H5         5.2571   -1.0570    8.0520 H         1 RES1    0.0000
     28 H6         3.0711   -1.9073    8.0185 H         1 RES1    0.0000
     29 H7         2.1132   -2.7235    9.9745 H         1 RES1    0.0000
     30 H8         3.3356   -2.7528   11.9741 H         1 RES1    0.0000
     31 H9         4.6360   -1.9025   13.9486 H         1 RES1    0.0000
     32 H10        6.0249   -2.5752   14.3740 H         1 RES1    0.0000
     33 H11        4.9465   -3.4194   13.5450 H         1 RES1    0.0000
@<TRIPOS>BOND
     1    1    4 2
     2    2    6 1
     3    3    8 2
     4    5    1 2
     5    6   12 1
     6    7    2 1
     7    9    3 2
     8   10   13 1
     9   11    7 1
    10   12   11 1
    11   13   12 1
    12   14   13 1
    13   15   16 ar
    14   16   17 ar
    15   17   18 ar
    16   18   20 ar
    17   19   14 1
    18   20   11 1
    19   21   11 1
    20   22    1 1
    21   23   10 1
    22   24   12 1
    23   25   13 1
    24   26   14 1
    25   27   15 1
    26   28   16 1
    27   29   17 1
    28   30   18 1
    29   31   21 1
    30   32   21 1
    31   33   21 1
    32    2   22 1
    33    3   22 1
    34   14   22 1
    35   15   19 ar
    36   19   20 ar
@<TRIPOS>SUBSTRUCTURE
     1 RES1 1

@<TRIPOS>CRYSIN
  10.7820    6.8020   16.9200  90.0000  98.2000  90.0000  14 1

