# MOL2 file generated by ConQuest
# Please check atom types

@<TRIPOS>MOLECULE
HESYEK
    55    58     1
SMALL
NO_CHARGES
****
Generated from CSD

@<TRIPOS>ATOM
      1 C1         2.6920    3.8663    3.5443 C.3       1 RES1    0.0000
      2 C2         2.0135    2.6462    1.3422 C.ar      1 RES1    0.0000
      3 H1         1.2657    3.1838    1.2168 H         1 RES1    0.0000
      4 C3         5.2936    3.5524    6.3025 C.ar      1 RES1    0.0000
      5 N1         1.4822    1.4004   -0.6504 N.3       1 RES1    0.0000
      6 C4         3.9535    2.0458    2.6495 C.ar      1 RES1    0.0000
      7 C5         2.3097    1.6305    0.4241 C.ar      1 RES1    0.0000
      8 O1         6.6903    3.6731    8.1425 O.2       1 RES1    0.0000
      9 C6         1.3326    3.7391    4.2439 C.3       1 RES1    0.0000
     10 H2         1.3023    4.3668    4.9835 H         1 RES1    0.0000
     11 H3         0.6345    3.9902    3.6180 H         1 RES1    0.0000
     12 N2         5.7086    4.1351    7.5852 N.pl3     1 RES1    0.0000
     13 O2         5.0493    5.0654    8.0236 O.2       1 RES1    0.0000
     14 C7         4.5882    2.4482    3.8999 C.ar      1 RES1    0.0000
     15 C8         6.0349    2.4997    5.7943 C.ar      1 RES1    0.0000
     16 H4         6.7581    2.1665    6.2740 H         1 RES1    0.0000
     17 C9         4.1983    4.0691    5.6559 C.ar      1 RES1    0.0000
     18 H5         3.7125    4.7757    6.0167 H         1 RES1    0.0000
     19 C10        2.8273    2.8426    2.4219 C.ar      1 RES1    0.0000
     20 C11        3.4414    0.8370    0.6440 C.ar      1 RES1    0.0000
     21 H6         3.6483    0.1577    0.0427 H         1 RES1    0.0000
     22 C12        0.2518    2.0941   -0.8806 C.3       1 RES1    0.0000
     23 H7         0.4112    3.0405   -1.0215 H         1 RES1    0.0000
     24 H8        -0.3519    1.9862   -0.1280 H         1 RES1    0.0000
     25 C13        4.2518    1.0430    1.7340 C.ar      1 RES1    0.0000
     26 H9         5.0032    0.5086    1.8607 H         1 RES1    0.0000
     27 C14        3.8452    3.4993    4.4495 C.ar      1 RES1    0.0000
     28 C15        4.1863    5.4759    2.1581 C.3       1 RES1    0.0000
     29 H10        4.9353    5.1459    2.6780 H         1 RES1    0.0000
     30 H11        4.1221    4.9334    1.3564 H         1 RES1    0.0000
     31 C16       -0.3444    2.2100    5.3831 C.3       1 RES1    0.0000
     32 H12       -0.4291    2.8120    6.1266 H         1 RES1    0.0000
     33 H13       -0.4670    1.3070    5.6857 H         1 RES1    0.0000
     34 H14       -1.0109    2.4208    4.7249 H         1 RES1    0.0000
     35 C17        5.6987    1.9444    4.5762 C.ar      1 RES1    0.0000
     36 H15        6.2019    1.2507    4.2141 H         1 RES1    0.0000
     37 C18        1.7835    0.4587   -1.7120 C.3       1 RES1    0.0000
     38 H16        1.7873   -0.4523   -1.3771 H         1 RES1    0.0000
     39 H17        2.6467    0.6519   -2.1103 H         1 RES1    0.0000
     40 C19        2.8931    5.3020    2.9818 C.3       1 RES1    0.0000
     41 H18        2.1343    5.5274    2.4219 H         1 RES1    0.0000
     42 H19        2.9093    5.9282    3.7228 H         1 RES1    0.0000
     43 C20        1.0413    2.3565    4.7676 C.3       1 RES1    0.0000
     44 H20        1.7059    2.1295    5.4374 H         1 RES1    0.0000
     45 H21        1.1289    1.7223    4.0396 H         1 RES1    0.0000
     46 C21       -0.3201    1.4599   -2.1181 C.3       1 RES1    0.0000
     47 H22       -1.0900    0.9159   -1.8905 H         1 RES1    0.0000
     48 H23       -0.6017    2.1440   -2.7452 H         1 RES1    0.0000
     49 C22        0.6920    0.6567   -2.6922 C.3       1 RES1    0.0000
     50 H24        1.0401    1.0881   -3.4887 H         1 RES1    0.0000
     51 H25        0.3226   -0.2012   -2.9495 H         1 RES1    0.0000
     52 C23        4.4603    6.9148    1.7599 C.3       1 RES1    0.0000
     53 H26        3.6901    7.2754    1.3138 H         1 RES1    0.0000
     54 H27        5.2163    6.9438    1.1676 H         1 RES1    0.0000
     55 H28        4.6481    7.4347    2.5448 H         1 RES1    0.0000
@<TRIPOS>BOND
     1    1    9 1
     2    2    3 1
     3    4   12 1
     4    5    7 1
     5    6   14 1
     6    7    2 ar
     7    8   12 2
     8    9   10 1
     9   11    9 1
    10   12   13 2
    11   14   27 ar
    12   15    4 ar
    13   16   15 1
    14   17    4 ar
    15   18   17 1
    16   19    1 1
    17   20    7 ar
    18   21   20 1
    19   22    5 1
    20   23   22 1
    21   24   22 1
    22   25    6 ar
    23   26   25 1
    24   27    1 1
    25   28   29 1
    26   30   28 1
    27   31   32 1
    28   33   31 1
    29   34   31 1
    30   35   14 ar
    31   36   35 1
    32   37    5 1
    33   38   37 1
    34   39   37 1
    35   40    1 1
    36   41   40 1
    37   42   40 1
    38   43    9 1
    39   44   43 1
    40   45   43 1
    41   46   22 1
    42   47   46 1
    43   48   46 1
    44   49   37 1
    45   50   49 1
    46   51   49 1
    47   52   28 1
    48   53   52 1
    49   54   52 1
    50   55   52 1
    51    2   19 ar
    52    6   19 ar
    53   15   35 ar
    54   17   27 ar
    55   20   25 ar
    56   28   40 1
    57   31   43 1
    58   46   49 1
@<TRIPOS>SUBSTRUCTURE
     1 RES1 1

@<TRIPOS>CRYSIN
  10.0010   16.0960   13.6130  90.0000 108.2160  90.0000  14 1

