# MOL2 file generated by ConQuest
# Please check atom types

@<TRIPOS>MOLECULE
HESYAG
    51    53     1
SMALL
NO_CHARGES
****
Generated from CSD

@<TRIPOS>ATOM
      1 C1         1.3977    1.2647    2.0459 C.ar      1 RES1    0.0000
      2 C2         2.2908    3.2275    3.1288 C.3       1 RES1    0.0000
      3 C3         2.3727    2.2666    1.9498 C.ar      1 RES1    0.0000
      4 C4         3.6310    3.3091    3.8885 C.3       1 RES1    0.0000
      5 H1         4.3212    3.6788    3.2826 H         1 RES1    0.0000
      6 H2         3.5307    3.9339    4.6496 H         1 RES1    0.0000
      7 C5         1.8623    4.6390    2.6735 C.3       1 RES1    0.0000
      8 H3         1.7543    5.2078    3.4771 H         1 RES1    0.0000
      9 H4         2.5933    5.0273    2.1302 H         1 RES1    0.0000
     10 C6         0.6626    1.4540    3.2809 C.ar      1 RES1    0.0000
     11 O1        -1.7959    1.8889    7.4973 O.2       1 RES1    0.0000
     12 C7         4.1054    1.9638    4.4147 C.3       1 RES1    0.0000
     13 H5         4.0722    1.3023    3.6792 H         1 RES1    0.0000
     14 H6         3.4825    1.6589    5.1215 H         1 RES1    0.0000
     15 C8         0.7067    2.9511    5.1910 C.ar      1 RES1    0.0000
     16 H7         1.0602    3.7011    5.6550 H         1 RES1    0.0000
     17 C9         1.1878    2.5760    3.9535 C.ar      1 RES1    0.0000
     18 C10        3.2687    2.3009    0.8993 C.ar      1 RES1    0.0000
     19 H8         3.9307    2.9806    0.8586 H         1 RES1    0.0000
     20 N1         4.0705    1.3231   -1.1768 N.3       1 RES1    0.0000
     21 C11        0.1230    6.1411    1.6370 C.3       1 RES1    0.0000
     22 H9        -0.0295    6.5743    2.5030 H         1 RES1    0.0000
     23 H10       -0.7084    6.1477    1.1172 H         1 RES1    0.0000
     24 H11        0.8185    6.6280    1.1473 H         1 RES1    0.0000
     25 C12        3.1939    1.3156   -0.1169 C.ar      1 RES1    0.0000
     26 C13        1.3225    0.2888    1.0524 C.ar      1 RES1    0.0000
     27 H12        0.6669   -0.3968    1.1072 H         1 RES1    0.0000
     28 C14        0.5712    4.7029    1.8601 C.3       1 RES1    0.0000
     29 H13        0.7142    4.2650    0.9841 H         1 RES1    0.0000
     30 H14       -0.1418    4.2083    2.3373 H         1 RES1    0.0000
     31 O2        -0.3321    3.4732    7.6450 O.2       1 RES1    0.0000
     32 C15       -0.3863    0.7150    3.8390 C.ar      1 RES1    0.0000
     33 H15       -0.7542   -0.0283    3.3767 H         1 RES1    0.0000
     34 C16       -0.3294    2.1746    5.7320 C.ar      1 RES1    0.0000
     35 C17       -0.8748    1.0892    5.0736 C.ar      1 RES1    0.0000
     36 H16       -1.5859    0.6012    5.4718 H         1 RES1    0.0000
     37 C18        2.2016    0.3203   -0.0105 C.ar      1 RES1    0.0000
     38 H17        2.1368   -0.3446   -0.6866 H         1 RES1    0.0000
     39 N2        -0.8498    2.5350    7.0480 N.pl3     1 RES1    0.0000
     40 C19        5.5158    1.9963    4.9827 C.3       1 RES1    0.0000
     41 H18        6.1442    2.2645    4.2805 H         1 RES1    0.0000
     42 H19        5.7553    1.1054    5.3136 H         1 RES1    0.0000
     43 H20        5.5564    2.6405    5.7203 H         1 RES1    0.0000
     44 C20        5.1482    2.2759   -1.2412 C.3       1 RES1    0.0000
     45 H21        4.7803    3.1790   -1.3381 H         1 RES1    0.0000
     46 H22        5.7192    2.0721   -2.0110 H         1 RES1    0.0000
     47 H23        5.6793    2.2258   -0.4193 H         1 RES1    0.0000
     48 C21        3.9625    0.3401   -2.2254 C.3       1 RES1    0.0000
     49 H24        4.1160   -0.5535   -1.8528 H         1 RES1    0.0000
     50 H25        4.6321    0.5251   -2.9173 H         1 RES1    0.0000
     51 H26        3.0662    0.3804   -2.6198 H         1 RES1    0.0000
@<TRIPOS>BOND
     1    1    3 ar
     2    2    3 1
     3    3   18 ar
     4    4    2 1
     5    5    4 1
     6    6    4 1
     7    7    2 1
     8    8    7 1
     9    9    7 1
    10   10    1 1
    11   11   39 2
    12   12    4 1
    13   13   12 1
    14   14   12 1
    15   15   16 1
    16   17    2 1
    17   18   19 1
    18   20   25 1
    19   21   22 1
    20   23   21 1
    21   24   21 1
    22   25   18 ar
    23   26    1 ar
    24   27   26 1
    25   28    7 1
    26   29   28 1
    27   30   28 1
    28   31   39 2
    29   32   10 ar
    30   33   32 1
    31   34   15 ar
    32   35   32 ar
    33   36   35 1
    34   37   25 ar
    35   38   37 1
    36   39   34 1
    37   40   12 1
    38   41   40 1
    39   42   40 1
    40   43   40 1
    41   44   20 1
    42   45   44 1
    43   46   44 1
    44   47   44 1
    45   48   20 1
    46   49   48 1
    47   50   48 1
    48   51   48 1
    49   10   17 ar
    50   15   17 ar
    51   21   28 1
    52   26   37 ar
    53   34   35 ar
@<TRIPOS>SUBSTRUCTURE
     1 RES1 1

@<TRIPOS>CRYSIN
   9.9257   14.9179   13.3095  90.0000 109.4130  90.0000 231 1

