# MOL2 file generated by ConQuest
# Please check atom types

@<TRIPOS>MOLECULE
HESYIO
    58    61     1
SMALL
NO_CHARGES
****
Generated from CSD

@<TRIPOS>ATOM
      1 O1         6.8368    3.8448    8.0458 O.2       1 RES1    0.0000
      2 C1         2.7401    3.8592    3.4988 C.3       1 RES1    0.0000
      3 N1         1.4781    1.3072   -0.6620 N.3       1 RES1    0.0000
      4 O2         5.0771    5.1200    7.9957 O.2       1 RES1    0.0000
      5 C2         4.6188    2.3950    3.9042 C.ar      1 RES1    0.0000
      6 C3         2.0490    2.5856    1.3549 C.ar      1 RES1    0.0000
      7 H1         1.2991    3.1527    1.2240 H         1 RES1    0.0000
      8 N2         5.7782    4.2325    7.5274 N.pl3     1 RES1    0.0000
      9 C4         6.1008    2.5167    5.7954 C.ar      1 RES1    0.0000
     10 H2         6.8539    2.1963    6.2778 H         1 RES1    0.0000
     11 C5         5.3675    3.5885    6.2893 C.ar      1 RES1    0.0000
     12 C6         4.2462    0.9340    1.7834 C.ar      1 RES1    0.0000
     13 H3         4.9972    0.3701    1.9297 H         1 RES1    0.0000
     14 C7         3.9801    1.9673    2.6661 C.ar      1 RES1    0.0000
     15 C8         2.3029    1.5363    0.4388 C.ar      1 RES1    0.0000
     16 C9        -0.2720    2.2957    5.4644 C.3       1 RES1    0.0000
     17 H4        -0.2603    2.8788    6.2508 H         1 RES1    0.0000
     18 H5        -0.4457    1.3729    5.7441 H         1 RES1    0.0000
     19 H6        -0.9777    2.5888    4.8498 H         1 RES1    0.0000
     20 C10        2.8758    2.7891    2.4275 C.ar      1 RES1    0.0000
     21 C11        1.3864    3.7503    4.2250 C.3       1 RES1    0.0000
     22 H7         1.3794    4.3911    4.9794 H         1 RES1    0.0000
     23 H8         0.6684    4.0178    3.5989 H         1 RES1    0.0000
     24 C12        3.8966    3.4956    4.4225 C.ar      1 RES1    0.0000
     25 C13        4.1898    5.4276    2.0464 C.3       1 RES1    0.0000
     26 H9         4.9789    5.1072    2.5506 H         1 RES1    0.0000
     27 H10        4.0921    4.8557    1.2445 H         1 RES1    0.0000
     28 C14        4.2504    4.0979    5.6106 C.ar      1 RES1    0.0000
     29 H11        3.7549    4.8316    5.9583 H         1 RES1    0.0000
     30 C15        5.7416    1.9160    4.6086 C.ar      1 RES1    0.0000
     31 H12        6.2460    1.1871    4.2673 H         1 RES1    0.0000
     32 C16        3.4335    0.7177    0.6980 C.ar      1 RES1    0.0000
     33 H13        3.6327    0.0016    0.1052 H         1 RES1    0.0000
     34 C17        2.9457    5.2754    2.9201 C.3       1 RES1    0.0000
     35 H14        2.1499    5.5173    2.3838 H         1 RES1    0.0000
     36 H15        3.0055    5.9178    3.6720 H         1 RES1    0.0000
     37 C18        4.4394    6.8678    1.5986 C.3       1 RES1    0.0000
     38 H16        3.6457    7.2090    1.1368 H         1 RES1    0.0000
     39 H17        5.2074    6.8934    0.9905 H         1 RES1    0.0000
     40 H18        4.6269    7.4253    2.3826 H         1 RES1    0.0000
     41 C19        1.0738    2.3662    4.7600 C.3       1 RES1    0.0000
     42 H19        1.7839    2.0970    5.3951 H         1 RES1    0.0000
     43 H20        1.0786    1.7205    4.0094 H         1 RES1    0.0000
     44 C20       -0.1273    0.9980   -3.0600 C.3       1 RES1    0.0000
     45 H21        0.0006    1.4883   -3.9106 H         1 RES1    0.0000
     46 H22       -0.8933    0.3845   -3.1844 H         1 RES1    0.0000
     47 C21        0.2984    2.0634   -0.8648 C.3       1 RES1    0.0000
     48 H23       -0.3058    1.8599   -0.1065 H         1 RES1    0.0000
     49 H24        0.5502    3.0166   -0.7801 H         1 RES1    0.0000
     50 C22        1.8313    0.3508   -1.6602 C.3       1 RES1    0.0000
     51 H25        2.7536    0.5623   -1.9515 H         1 RES1    0.0000
     52 H26        1.8695   -0.5319   -1.2150 H         1 RES1    0.0000
     53 C23       -0.4729    1.9496   -2.0387 C.3       1 RES1    0.0000
     54 H27       -0.4848    2.8436   -2.4660 H         1 RES1    0.0000
     55 H28       -1.4011    1.7526   -1.7603 H         1 RES1    0.0000
     56 C24        1.0686    0.1938   -2.8111 C.3       1 RES1    0.0000
     57 H29        0.7886   -0.7545   -2.8419 H         1 RES1    0.0000
     58 H30        1.6761    0.3364   -3.5796 H         1 RES1    0.0000
@<TRIPOS>BOND
     1    1    8 2
     2    2   20 1
     3    3   15 1
     4    4    8 2
     5    5   14 1
     6    6    7 1
     7    8   11 1
     8    9   10 1
     9   11    9 ar
    10   12   13 1
    11   14   12 ar
    12   15    6 ar
    13   16   17 1
    14   18   16 1
    15   19   16 1
    16   20    6 ar
    17   21    2 1
    18   22   21 1
    19   23   21 1
    20   24    2 1
    21   25   26 1
    22   27   25 1
    23   28   11 ar
    24   29   28 1
    25   30    5 ar
    26   31   30 1
    27   32   12 ar
    28   33   32 1
    29   34    2 1
    30   35   34 1
    31   36   34 1
    32   37   25 1
    33   38   37 1
    34   39   37 1
    35   40   37 1
    36   41   16 1
    37   42   41 1
    38   43   41 1
    39   44   45 1
    40   46   44 1
    41   47    3 1
    42   48   47 1
    43   49   47 1
    44   50    3 1
    45   51   50 1
    46   52   50 1
    47   53   44 1
    48   54   53 1
    49   55   53 1
    50   56   44 1
    51   57   56 1
    52   58   56 1
    53    5   24 ar
    54    9   30 ar
    55   14   20 ar
    56   15   32 ar
    57   21   41 1
    58   24   28 ar
    59   25   34 1
    60   47   53 1
    61   50   56 1
@<TRIPOS>SUBSTRUCTURE
     1 RES1 1

@<TRIPOS>CRYSIN
   9.9984   16.0200   13.4740  90.0000 107.7840  90.0000  14 1

