# MOL2 file generated by ConQuest
# Please check atom types

@<TRIPOS>MOLECULE
HETYIP
    47    50     1
SMALL
NO_CHARGES
****
Generated from CSD

@<TRIPOS>ATOM
      1 N1         9.8525    9.4242   14.4160 N.3       1 RES1    0.0000
      2 N2         8.7759   10.4125   12.5779 N.am      1 RES1    0.0000
      3 N3        13.0929   14.8435   14.6749 N.pl3     1 RES1    0.0000
      4 O1         6.5949   10.9490   12.8326 O.2       1 RES1    0.0000
      5 O2        12.6416   15.9603   14.4956 O.2       1 RES1    0.0000
      6 O3        14.1663   14.6366   15.2195 O.2       1 RES1    0.0000
      7 C1        10.0638   10.1958   13.2162 C.3       1 RES1    0.0000
      8 H1        10.6111    9.6573   12.6075 H         1 RES1    0.0000
      9 C2         7.6940   10.7276   13.3268 C.2       1 RES1    0.0000
     10 C3         7.8903   10.6972   14.7925 C.ar      1 RES1    0.0000
     11 C4         6.9439   11.2302   15.6471 C.ar      1 RES1    0.0000
     12 H2         6.2386   11.7310   15.3042 H         1 RES1    0.0000
     13 C5         7.0421   11.0232   17.0034 C.ar      1 RES1    0.0000
     14 H3         6.4008   11.3790   17.5765 H         1 RES1    0.0000
     15 C6         8.0962   10.2857   17.5150 C.ar      1 RES1    0.0000
     16 H4         8.1613   10.1481   18.4325 H         1 RES1    0.0000
     17 C7         9.0416    9.7564   16.6847 C.ar      1 RES1    0.0000
     18 H5         9.7394    9.2544   17.0377 H         1 RES1    0.0000
     19 C8         8.9637    9.9647   15.3175 C.ar      1 RES1    0.0000
     20 C9        10.8277   11.4873   13.5094 C.ar      1 RES1    0.0000
     21 C10       10.2675   12.7447   13.4991 C.ar      1 RES1    0.0000
     22 H6         9.3788   12.8503   13.2463 H         1 RES1    0.0000
     23 C11       11.0080   13.8488   13.8600 C.ar      1 RES1    0.0000
     24 H7        10.6250   14.6960   13.8465 H         1 RES1    0.0000
     25 C12       12.3140   13.6879   14.2374 C.ar      1 RES1    0.0000
     26 C13       12.9019   12.4524   14.2310 C.ar      1 RES1    0.0000
     27 H8        13.7961   12.3533   14.4682 H         1 RES1    0.0000
     28 C14       12.1540   11.3678   13.8694 C.ar      1 RES1    0.0000
     29 H9        12.5498   10.5262   13.8651 H         1 RES1    0.0000
     30 C15        8.5999   10.3093   11.1090 C.3       1 RES1    0.0000
     31 H10        8.0578   11.0765   10.8269 H         1 RES1    0.0000
     32 C16        9.9122   10.3799   10.3473 C.3       1 RES1    0.0000
     33 H11       10.4212   11.1323   10.6568 H         1 RES1    0.0000
     34 H12        9.7330   10.4791    9.4092 H         1 RES1    0.0000
     35 H13       10.4105    9.5730   10.4939 H         1 RES1    0.0000
     36 C17        7.8402    9.0586   10.7295 C.ar      1 RES1    0.0000
     37 C18        6.7988    9.1106    9.8265 C.ar      1 RES1    0.0000
     38 H14        6.5491    9.9300    9.4649 H         1 RES1    0.0000
     39 C19        6.1255    7.9727    9.4506 C.ar      1 RES1    0.0000
     40 H15        5.4267    8.0248    8.8390 H         1 RES1    0.0000
     41 C20        6.4862    6.7543    9.9823 C.ar      1 RES1    0.0000
     42 H16        6.0242    5.9845    9.7407 H         1 RES1    0.0000
     43 C21        7.5201    6.6824   10.8583 C.ar      1 RES1    0.0000
     44 H17        7.7762    5.8593   11.2070 H         1 RES1    0.0000
     45 C22        8.1901    7.8227   11.2342 C.ar      1 RES1    0.0000
     46 H18        8.8933    7.7595   11.8387 H         1 RES1    0.0000
     47 H19       10.5524    9.0610   14.7312 H         1 RES1    0.0000
@<TRIPOS>BOND
     1    1    7 1
     2    2    7 1
     3    3    5 2
     4    4    9 2
     5    6    3 2
     6    7    8 1
     7    9    2 1
     8   10    9 1
     9   11   10 ar
    10   12   11 1
    11   13   11 ar
    12   14   13 1
    13   15   13 ar
    14   16   15 1
    15   17   15 ar
    16   18   17 1
    17   19    1 1
    18   20    7 1
    19   21   20 ar
    20   22   21 1
    21   23   21 ar
    22   24   23 1
    23   25    3 1
    24   26   25 ar
    25   27   26 1
    26   28   20 ar
    27   29   28 1
    28   30    2 1
    29   31   30 1
    30   32   30 1
    31   33   32 1
    32   34   32 1
    33   35   32 1
    34   36   30 1
    35   37   36 ar
    36   38   37 1
    37   39   37 ar
    38   40   39 1
    39   41   39 ar
    40   42   41 1
    41   43   41 ar
    42   44   43 1
    43   45   36 ar
    44   46   45 1
    45   47    1 1
    46   10   19 ar
    47   17   19 ar
    48   23   25 ar
    49   26   28 ar
    50   43   45 ar
@<TRIPOS>SUBSTRUCTURE
     1 RES1 1

@<TRIPOS>CRYSIN
  10.6698   12.3954   14.2910  90.0000  90.0000  90.0000  19 1

