# MOL2 file generated by ConQuest
# Please check atom types

@<TRIPOS>MOLECULE
HETYOV
    94   100     2
SMALL
NO_CHARGES
****
Generated from CSD

@<TRIPOS>ATOM
      1 N1         2.3346   29.1682    6.4211 N.3       1 RES1    0.0000
      2 N2         1.9370   31.0170    7.8285 N.am      1 RES1    0.0000
      3 N3        -0.8942   27.9211    6.5089 N.pl3     1 RES1    0.0000
      4 O1         3.6306   31.8400    9.0776 O.2       1 RES1    0.0000
      5 O2        -0.2316   28.2737    5.5834 O.2       1 RES1    0.0000
      6 O3        -2.0124   27.4464    6.4176 O.2       1 RES1    0.0000
      7 C1         1.3337   29.8591    7.1826 C.3       1 RES1    0.0000
      8 H1         0.6507   30.1821    6.5586 H         1 RES1    0.0000
      9 C2         3.1759   30.9302    8.3843 C.2       1 RES1    0.0000
     10 C3         3.9548   29.7251    8.0515 C.ar      1 RES1    0.0000
     11 C4         5.1808   29.4873    8.6501 C.ar      1 RES1    0.0000
     12 H2         5.4459   30.0147    9.3688 H         1 RES1    0.0000
     13 C5         6.0082   28.4987    8.2064 C.ar      1 RES1    0.0000
     14 H3         6.8291   28.3522    8.6189 H         1 RES1    0.0000
     15 C6         5.6128   27.7183    7.1375 C.ar      1 RES1    0.0000
     16 H4         6.1774   27.0491    6.8244 H         1 RES1    0.0000
     17 C7         4.4159   27.9172    6.5401 C.ar      1 RES1    0.0000
     18 H5         4.1714   27.3840    5.8191 H         1 RES1    0.0000
     19 C8         3.5390   28.9094    6.9862 C.ar      1 RES1    0.0000
     20 C9         0.6410   28.9478    8.2098 C.ar      1 RES1    0.0000
     21 C10       -0.3695   28.0246    7.8794 C.ar      1 RES1    0.0000
     22 C11       -0.9233   27.2013    8.8142 C.ar      1 RES1    0.0000
     23 H6        -1.5643   26.5802    8.5530 H         1 RES1    0.0000
     24 C12       -0.5516   27.2714   10.1291 C.ar      1 RES1    0.0000
     25 H7        -0.9351   26.7081   10.7623 H         1 RES1    0.0000
     26 C13        0.4018   28.1948   10.4943 C.ar      1 RES1    0.0000
     27 H8         0.6561   28.2640   11.3863 H         1 RES1    0.0000
     28 C14        0.9771   29.0087    9.5699 C.ar      1 RES1    0.0000
     29 H9         1.6149   29.6249    9.8483 H         1 RES1    0.0000
     30 C15        1.2001   32.2915    7.9244 C.3       1 RES1    0.0000
     31 H10        1.4264   32.6788    8.7957 H         1 RES1    0.0000
     32 C16        1.7323   33.2554    6.8764 C.3       1 RES1    0.0000
     33 H11        2.6696   33.4004    7.0220 H         1 RES1    0.0000
     34 H12        1.2659   34.0915    6.9446 H         1 RES1    0.0000
     35 H13        1.5977   32.8828    6.0017 H         1 RES1    0.0000
     36 C17       -0.2984   32.1213    7.9082 C.ar      1 RES1    0.0000
     37 C18       -0.9847   31.9152    9.0892 C.ar      1 RES1    0.0000
     38 H14       -0.5182   31.8476    9.8911 H         1 RES1    0.0000
     39 C19       -2.3852   31.8080    9.0822 C.ar      1 RES1    0.0000
     40 H15       -2.8527   31.6527    9.8714 H         1 RES1    0.0000
     41 C20       -3.0467   31.9389    7.8978 C.ar      1 RES1    0.0000
     42 H16       -3.9764   31.9054    7.8828 H         1 RES1    0.0000
     43 C21       -2.3583   32.1216    6.7262 C.ar      1 RES1    0.0000
     44 H17       -2.8247   32.1794    5.9242 H         1 RES1    0.0000
     45 C22       -1.0084   32.2196    6.7227 C.ar      1 RES1    0.0000
     46 H18       -0.5570   32.3530    5.9208 H         1 RES1    0.0000
     47 H19        2.0469   28.7876    5.7313 H         1 RES1    0.0000
     48 N4         1.6031   21.7087    5.2217 N.3       2 RES2    0.0000
     49 N5         0.3868   23.6951    4.8346 N.am      2 RES2    0.0000
     50 N6         1.2702   20.6358    1.8523 N.pl3     2 RES2    0.0000
     51 O4        -0.6852   24.6962    6.5644 O.2       2 RES2    0.0000
     52 O5         2.2796   20.9201    2.4624 O.2       2 RES2    0.0000
     53 O6         1.2906   20.2101    0.7187 O.2       2 RES2    0.0000
     54 C23        0.8866   22.4671    4.2291 C.3       2 RES2    0.0000
     55 H20        1.5233   22.7165    3.5289 H         2 RES2    0.0000
     56 C24       -0.1207   23.7033    6.0895 C.2       2 RES2    0.0000
     57 C25        0.1153   22.4833    6.8914 C.ar      2 RES2    0.0000
     58 C26       -0.4439   22.3743    8.1601 C.ar      2 RES2    0.0000
     59 H21       -1.0579   23.0088    8.4513 H         2 RES2    0.0000
     60 C27       -0.0926   21.3357    8.9840 C.ar      2 RES2    0.0000
     61 H22       -0.4751   21.2581    9.8287 H         2 RES2    0.0000
     62 C28        0.8349   20.3989    8.5507 C.ar      2 RES2    0.0000
     63 H23        1.0816   19.7053    9.1181 H         2 RES2    0.0000
     64 C29        1.3962   20.4768    7.3016 C.ar      2 RES2    0.0000
     65 H24        2.0092   19.8362    7.0243 H         2 RES2    0.0000
     66 C30        1.0385   21.5318    6.4419 C.ar      2 RES2    0.0000
     67 C31       -0.2402   21.6493    3.5682 C.ar      2 RES2    0.0000
     68 C32       -0.0496   20.8026    2.4936 C.ar      2 RES2    0.0000
     69 C33       -1.0719   20.0430    1.9459 C.ar      2 RES2    0.0000
     70 H25       -0.9017   19.4922    1.2167 H         2 RES2    0.0000
     71 C34       -2.3184   20.1029    2.4716 C.ar      2 RES2    0.0000
     72 H26       -3.0014   19.5774    2.1215 H         2 RES2    0.0000
     73 C35       -2.5640   20.9421    3.5220 C.ar      2 RES2    0.0000
     74 H27       -3.4205   20.9963    3.8802 H         2 RES2    0.0000
     75 C36       -1.5470   21.7063    4.0535 C.ar      2 RES2    0.0000
     76 H28       -1.7388   22.2811    4.7595 H         2 RES2    0.0000
     77 C37        0.4320   24.9729    4.0570 C.3       2 RES2    0.0000
     78 H29       -0.3350   25.5176    4.3331 H         2 RES2    0.0000
     79 C38        1.6903   25.7268    4.4383 C.3       2 RES2    0.0000
     80 H30        2.4584   25.1827    4.2511 H         2 RES2    0.0000
     81 H31        1.6666   25.9378    5.3742 H         2 RES2    0.0000
     82 H32        1.7431   26.5406    3.9299 H         2 RES2    0.0000
     83 C39        0.2790   24.6791    2.5849 C.ar      2 RES2    0.0000
     84 C40       -0.9782   24.5053    2.0545 C.ar      2 RES2    0.0000
     85 H33       -1.7280   24.6164    2.5929 H         2 RES2    0.0000
     86 C41       -1.1290   24.1688    0.7326 C.ar      2 RES2    0.0000
     87 H34       -1.9790   23.9983    0.3975 H         2 RES2    0.0000
     88 C42       -0.0668   24.0805   -0.0809 C.ar      2 RES2    0.0000
     89 H35       -0.1864   23.9222   -0.9891 H         2 RES2    0.0000
     90 C43        1.1829   24.2206    0.4252 C.ar      2 RES2    0.0000
     91 H36        1.9230   24.0958   -0.1236 H         2 RES2    0.0000
     92 C44        1.3563   24.5491    1.7436 C.ar      2 RES2    0.0000
     93 H37        2.2160   24.6864    2.0741 H         2 RES2    0.0000
     94 H38        2.2085   21.1637    4.9224 H         2 RES2    0.0000
@<TRIPOS>BOND
     1    1    7 1
     2    2    7 1
     3    3    5 2
     4    4    9 2
     5    6    3 2
     6    7    8 1
     7    9    2 1
     8   10    9 1
     9   11   10 ar
    10   12   11 1
    11   13   11 ar
    12   14   13 1
    13   15   13 ar
    14   16   15 1
    15   17   15 ar
    16   18   17 1
    17   19    1 1
    18   20    7 1
    19   21    3 1
    20   22   21 ar
    21   23   22 1
    22   24   22 ar
    23   25   24 1
    24   26   24 ar
    25   27   26 1
    26   28   20 ar
    27   29   28 1
    28   30    2 1
    29   31   30 1
    30   32   30 1
    31   33   32 1
    32   34   32 1
    33   35   32 1
    34   36   30 1
    35   37   36 ar
    36   38   37 1
    37   39   37 ar
    38   40   39 1
    39   41   39 ar
    40   42   41 1
    41   43   41 ar
    42   44   43 1
    43   45   36 ar
    44   46   45 1
    45   47    1 1
    46   48   54 1
    47   49   54 1
    48   50   52 2
    49   51   56 2
    50   53   50 2
    51   54   55 1
    52   56   49 1
    53   57   56 1
    54   58   57 ar
    55   59   58 1
    56   60   58 ar
    57   61   60 1
    58   62   60 ar
    59   63   62 1
    60   64   62 ar
    61   65   64 1
    62   66   48 1
    63   67   54 1
    64   68   50 1
    65   69   68 ar
    66   70   69 1
    67   71   69 ar
    68   72   71 1
    69   73   71 ar
    70   74   73 1
    71   75   67 ar
    72   76   75 1
    73   77   49 1
    74   78   77 1
    75   79   77 1
    76   80   79 1
    77   81   79 1
    78   82   79 1
    79   83   77 1
    80   84   83 ar
    81   85   84 1
    82   86   84 ar
    83   87   86 1
    84   88   86 ar
    85   89   88 1
    86   90   88 ar
    87   91   90 1
    88   92   83 ar
    89   93   92 1
    90   94   48 1
    91   10   19 ar
    92   17   19 ar
    93   20   21 ar
    94   26   28 ar
    95   43   45 ar
    96   57   66 ar
    97   64   66 ar
    98   67   68 ar
    99   73   75 ar
   100   90   92 ar
@<TRIPOS>SUBSTRUCTURE
     1 RES1 1
     2 RES2 48

@<TRIPOS>CRYSIN
  10.7732   30.4470   11.5550  90.0000  90.0000  90.0000  19 1

