# MOL2 file generated by ConQuest
# Please check atom types

@<TRIPOS>MOLECULE
HEVBUI
   134   140     2
SMALL
NO_CHARGES
****
Generated from CSD

@<TRIPOS>ATOM
      1 C1         3.1251   -6.5267    2.4335 C.2       1 RES1    0.0000
      2 C2         2.6623   -6.9065    1.1059 C.ar      1 RES1    0.0000
      3 C3         1.8605   -5.8972    0.5762 C.ar      1 RES1    0.0000
      4 C4         1.7477   -4.7661    1.5862 C.3       1 RES1    0.0000
      5 H1         0.8119   -4.6382    1.8484 H         1 RES1    0.0000
      6 C5         2.9089   -8.0518    0.3945 C.ar      1 RES1    0.0000
      7 H2         3.4472   -8.7199    0.7536 H         1 RES1    0.0000
      8 C6         2.3624   -8.2041   -0.8466 C.ar      1 RES1    0.0000
      9 H3         2.5104   -8.9819   -1.3342 H         1 RES1    0.0000
     10 C7         1.5897   -7.1969   -1.3630 C.ar      1 RES1    0.0000
     11 H4         1.2387   -7.3004   -2.2185 H         1 RES1    0.0000
     12 C8         1.3117   -6.0373   -0.6738 C.ar      1 RES1    0.0000
     13 H5         0.7719   -5.3753   -1.0395 H         1 RES1    0.0000
     14 C9         2.5441   -4.7011    3.9916 C.ar      1 RES1    0.0000
     15 C10        1.4174   -4.0777    4.4814 C.ar      1 RES1    0.0000
     16 H6         0.6447   -4.0614    3.9650 H         1 RES1    0.0000
     17 C11        1.4133   -3.4827    5.7093 C.ar      1 RES1    0.0000
     18 H7         0.6430   -3.0603    6.0173 H         1 RES1    0.0000
     19 C12        2.5541   -3.5030    6.5005 C.ar      1 RES1    0.0000
     20 H8         2.5546   -3.1090    7.3427 H         1 RES1    0.0000
     21 C13        3.6669   -4.1102    6.0173 C.ar      1 RES1    0.0000
     22 H9         4.4345   -4.1345    6.5404 H         1 RES1    0.0000
     23 C14        3.6832   -4.6849    4.7784 C.ar      1 RES1    0.0000
     24 H10        4.4675   -5.0707    4.4615 H         1 RES1    0.0000
     25 C15        2.3501   -3.4461    1.1224 C.3       1 RES1    0.0000
     26 H11        2.4813   -2.8755    1.9083 H         1 RES1    0.0000
     27 C16        1.4794   -2.6724    0.1086 C.3       1 RES1    0.0000
     28 H12        1.5601   -3.1050   -0.7669 H         1 RES1    0.0000
     29 C17       -0.0013   -2.6623    0.5164 C.3       1 RES1    0.0000
     30 H13       -0.0836   -2.3374    1.4162 H         1 RES1    0.0000
     31 H14       -0.3544   -3.5538    0.4654 H         1 RES1    0.0000
     32 H15       -0.4923   -2.0896   -0.0776 H         1 RES1    0.0000
     33 C18        1.9341   -1.2022   -0.0222 C.3       1 RES1    0.0000
     34 H16        1.7429   -0.7331    0.7934 H         1 RES1    0.0000
     35 H17        1.4641   -0.7859   -0.7491 H         1 RES1    0.0000
     36 H18        2.8788   -1.1738   -0.1950 H         1 RES1    0.0000
     37 C19        5.5610   -2.6135    1.2921 C.3       1 RES1    0.0000
     38 C20        6.6678   -1.7078    0.7336 C.3       1 RES1    0.0000
     39 H19        6.2971   -0.8265    0.5629 H         1 RES1    0.0000
     40 H20        7.3627   -1.6104    1.4029 H         1 RES1    0.0000
     41 C21        7.2909   -2.2419   -0.5563 C.3       1 RES1    0.0000
     42 H21        7.9442   -1.6104   -0.8954 H         1 RES1    0.0000
     43 H22        7.7411   -3.0826   -0.3834 H         1 RES1    0.0000
     44 C22        6.2266   -2.4409   -1.5492 C.3       1 RES1    0.0000
     45 H23        6.6244   -2.7821   -2.3648 H         1 RES1    0.0000
     46 H24        5.8311   -1.5779   -1.7531 H         1 RES1    0.0000
     47 C23        5.1083   -3.4015   -1.1059 C.3       1 RES1    0.0000
     48 C24        4.8635   -1.8155    2.3914 C.3       1 RES1    0.0000
     49 H25        4.4353   -1.0479    2.0058 H         1 RES1    0.0000
     50 H26        5.5127   -1.5271    3.0386 H         1 RES1    0.0000
     51 H27        4.2069   -2.3678    2.8214 H         1 RES1    0.0000
     52 C25        6.1593   -3.8706    1.9149 C.3       1 RES1    0.0000
     53 H28        5.5002   -4.5691    1.9238 H         1 RES1    0.0000
     54 H29        6.4378   -3.6817    2.8147 H         1 RES1    0.0000
     55 H30        6.9171   -4.1528    1.3985 H         1 RES1    0.0000
     56 C26        3.9888   -3.3223   -2.1543 C.3       1 RES1    0.0000
     57 H31        3.3691   -4.0432   -2.0146 H         1 RES1    0.0000
     58 H32        4.3682   -3.3933   -3.0319 H         1 RES1    0.0000
     59 H33        3.5301   -2.4836   -2.0678 H         1 RES1    0.0000
     60 C27        5.6073   -4.8433   -1.0505 C.3       1 RES1    0.0000
     61 H34        6.4677   -4.8676   -0.6272 H         1 RES1    0.0000
     62 H35        5.6799   -5.1905   -1.9415 H         1 RES1    0.0000
     63 H36        4.9878   -5.3773   -0.5497 H         1 RES1    0.0000
     64 N1         2.5266   -5.3215    2.7205 N.am      1 RES1    0.0000
     65 N2         4.5712   -2.8357    0.1877 N.3       1 RES1    0.0000
     66 O1         3.8504   -7.1751    3.1751 O.2       1 RES1    0.0000
     67 O2         3.6353   -3.8600    0.6520 O.3       1 RES1    0.0000
     68 C28       -2.2622   -5.6535    3.0984 C.2       2 RES2    0.0000
     69 C29       -2.6519   -5.3225    4.4748 C.ar      2 RES2    0.0000
     70 C30       -3.5473   -6.2506    4.9491 C.ar      2 RES2    0.0000
     71 C31       -3.7735   -7.3207    3.8790 C.3       2 RES2    0.0000
     72 H37       -4.7242   -7.3634    3.6436 H         2 RES2    0.0000
     73 C32       -2.2587   -4.2422    5.2438 C.ar      2 RES2    0.0000
     74 H38       -1.6454   -3.6269    4.9114 H         2 RES2    0.0000
     75 C33       -2.7772   -4.0919    6.4872 C.ar      2 RES2    0.0000
     76 H39       -2.5294   -3.3669    7.0147 H         2 RES2    0.0000
     77 C34       -3.6927   -5.0443    6.9659 C.ar      2 RES2    0.0000
     78 H40       -4.0322   -4.9529    7.8281 H         2 RES2    0.0000
     79 C35       -4.0974   -6.1043    6.2013 C.ar      2 RES2    0.0000
     80 H41       -4.7276   -6.7095    6.5182 H         2 RES2    0.0000
     81 C36       -3.0603   -7.2964    1.4450 C.ar      2 RES2    0.0000
     82 C37       -4.2328   -7.8203    0.9663 C.ar      2 RES2    0.0000
     83 H42       -4.9919   -7.8142    1.5049 H         2 RES2    0.0000
     84 C38       -4.3040   -8.3564   -0.3125 C.ar      2 RES2    0.0000
     85 H43       -5.1107   -8.7057   -0.6161 H         2 RES2    0.0000
     86 C39       -3.2072   -8.3808   -1.1325 C.ar      2 RES2    0.0000
     87 H44       -3.2625   -8.7524   -1.9836 H         2 RES2    0.0000
     88 C40       -2.0335   -7.8508   -0.6848 C.ar      2 RES2    0.0000
     89 H45       -1.2880   -7.8426   -1.2389 H         2 RES2    0.0000
     90 C41       -1.9461   -7.3268    0.5962 C.ar      2 RES2    0.0000
     91 H46       -1.1337   -6.9897    0.8976 H         2 RES2    0.0000
     92 C42       -3.2540   -8.7280    4.2505 C.3       2 RES2    0.0000
     93 H47       -2.8617   -9.1057    3.4353 H         2 RES2    0.0000
     94 C43       -4.3025   -9.7332    4.7452 C.3       2 RES2    0.0000
     95 H48       -3.8194  -10.4907    5.1397 H         2 RES2    0.0000
     96 C44       -5.3007   -9.2540    5.7647 C.3       2 RES2    0.0000
     97 H49       -4.8535   -9.0997    6.6002 H         2 RES2    0.0000
     98 H50       -5.9817   -9.9201    5.8844 H         2 RES2    0.0000
     99 H51       -5.7018   -8.4356    5.4610 H         2 RES2    0.0000
    100 C45       -5.1068  -10.2856    3.5018 C.3       2 RES2    0.0000
    101 H52       -5.6269   -9.5748    3.1162 H         2 RES2    0.0000
    102 H53       -5.6918  -10.9903    3.7855 H         2 RES2    0.0000
    103 H54       -4.4923  -10.6227    2.8458 H         2 RES2    0.0000
    104 C46       -0.0139   -9.2479    4.4637 C.3       2 RES2    0.0000
    105 C47        1.0959  -10.2430    4.8759 C.3       2 RES2    0.0000
    106 H55        0.8186  -11.1405    4.6299 H         2 RES2    0.0000
    107 H56        1.9021  -10.0378    4.3773 H         2 RES2    0.0000
    108 C48        1.4066  -10.2166    6.3254 C.3       2 RES2    0.0000
    109 H57        1.7389   -9.3413    6.5781 H         2 RES2    0.0000
    110 H58        2.0929  -10.8725    6.5293 H         2 RES2    0.0000
    111 C49        0.1334  -10.5354    7.1078 C.3       2 RES2    0.0000
    112 H59       -0.1776  -11.4228    6.8706 H         2 RES2    0.0000
    113 H60        0.3277  -10.5293    8.0586 H         2 RES2    0.0000
    114 C50       -0.9615   -9.5180    6.8108 C.3       2 RES2    0.0000
    115 C51       -0.4033   -9.5809    3.0541 C.3       2 RES2    0.0000
    116 H61       -0.8108  -10.4501    3.0319 H         2 RES2    0.0000
    117 H62        0.3788   -9.5789    2.4956 H         2 RES2    0.0000
    118 H63       -1.0274   -8.9270    2.7305 H         2 RES2    0.0000
    119 C52        0.5109   -7.8000    4.5235 C.3       2 RES2    0.0000
    120 H64       -0.2284   -7.1908    4.4859 H         2 RES2    0.0000
    121 H65        1.0957   -7.6416    3.7788 H         2 RES2    0.0000
    122 H66        0.9938   -7.6700    5.3436 H         2 RES2    0.0000
    123 C53       -2.2369  -10.0338    7.4735 C.3       2 RES2    0.0000
    124 H67       -2.8909   -9.3312    7.4956 H         2 RES2    0.0000
    125 H68       -2.0389  -10.3161    8.3689 H         2 RES2    0.0000
    126 H69       -2.5806  -10.7770    6.9726 H         2 RES2    0.0000
    127 C54       -0.6816   -8.1391    7.4158 C.3       2 RES2    0.0000
    128 H70       -0.0776   -7.6558    6.8462 H         2 RES2    0.0000
    129 H71       -0.2860   -8.2447    8.2846 H         2 RES2    0.0000
    130 H72       -1.5047   -7.6518    7.4956 H         2 RES2    0.0000
    131 N3        -2.9821   -6.7674    2.7310 N.am      2 RES2    0.0000
    132 N4        -1.1962   -9.4950    5.3462 N.3       2 RES2    0.0000
    133 O3        -1.4696   -5.0331    2.3821 O.2       2 RES2    0.0000
    134 O4        -2.1714   -8.4281    5.1242 O.3       2 RES2    0.0000
@<TRIPOS>BOND
     1    1    2 1
     2    2    3 ar
     3    3    4 1
     4    4    5 1
     5    6    2 ar
     6    7    6 1
     7    8    6 ar
     8    9    8 1
     9   10    8 ar
    10   11   10 1
    11   12    3 ar
    12   13   12 1
    13   14   15 ar
    14   15   16 1
    15   17   15 ar
    16   18   17 1
    17   19   17 ar
    18   20   19 1
    19   21   19 ar
    20   22   21 1
    21   23   14 ar
    22   24   23 1
    23   25    4 1
    24   26   25 1
    25   27   25 1
    26   28   27 1
    27   29   27 1
    28   30   29 1
    29   31   29 1
    30   32   29 1
    31   33   27 1
    32   34   33 1
    33   35   33 1
    34   36   33 1
    35   37   38 1
    36   38   39 1
    37   40   38 1
    38   41   38 1
    39   42   41 1
    40   43   41 1
    41   44   41 1
    42   45   44 1
    43   46   44 1
    44   47   44 1
    45   48   37 1
    46   49   48 1
    47   50   48 1
    48   51   48 1
    49   52   37 1
    50   53   52 1
    51   54   52 1
    52   55   52 1
    53   56   47 1
    54   57   56 1
    55   58   56 1
    56   59   56 1
    57   60   47 1
    58   61   60 1
    59   62   60 1
    60   63   60 1
    61   64    1 1
    62   65   37 1
    63   66    1 2
    64   67   25 1
    65   68   69 1
    66   69   70 ar
    67   70   71 1
    68   71   72 1
    69   73   69 ar
    70   74   73 1
    71   75   73 ar
    72   76   75 1
    73   77   75 ar
    74   78   77 1
    75   79   70 ar
    76   80   79 1
    77   81   82 ar
    78   82   83 1
    79   84   82 ar
    80   85   84 1
    81   86   84 ar
    82   87   86 1
    83   88   86 ar
    84   89   88 1
    85   90   81 ar
    86   91   90 1
    87   92   71 1
    88   93   92 1
    89   94   92 1
    90   95   94 1
    91   96   94 1
    92   97   96 1
    93   98   96 1
    94   99   96 1
    95  100   94 1
    96  101  100 1
    97  102  100 1
    98  103  100 1
    99  104  105 1
   100  105  106 1
   101  107  105 1
   102  108  105 1
   103  109  108 1
   104  110  108 1
   105  111  108 1
   106  112  111 1
   107  113  111 1
   108  114  111 1
   109  115  104 1
   110  116  115 1
   111  117  115 1
   112  118  115 1
   113  119  104 1
   114  120  119 1
   115  121  119 1
   116  122  119 1
   117  123  114 1
   118  124  123 1
   119  125  123 1
   120  126  123 1
   121  127  114 1
   122  128  127 1
   123  129  127 1
   124  130  127 1
   125  131   68 1
   126  132  104 1
   127  133   68 2
   128  134   92 1
   129    4   64 1
   130   10   12 ar
   131   14   64 1
   132   21   23 ar
   133   47   65 1
   134   65   67 1
   135   71  131 1
   136   77   79 ar
   137   81  131 1
   138   88   90 ar
   139  114  132 1
   140  132  134 1
@<TRIPOS>SUBSTRUCTURE
     1 RES1 1
     2 RES2 68

@<TRIPOS>CRYSIN
  10.9322   20.3072   22.2932  90.0000  96.1880  90.0000  14 1

