# MOL2 file generated by ConQuest
# Please check atom types

@<TRIPOS>MOLECULE
HEVJIB
    39    41     1
SMALL
NO_CHARGES
****
Generated from CSD

@<TRIPOS>ATOM
      1 O1         7.6657    0.8065    2.3727 O.3       1 RES1    0.0000
      2 N1         6.8813    1.8479    2.8895 N.2       1 RES1    0.0000
      3 C1        10.0731    3.3864    1.7493 C.ar      1 RES1    0.0000
      4 C2        11.4136    3.1164    1.5355 C.ar      1 RES1    0.0000
      5 C3        11.8086    2.3039    0.5123 C.ar      1 RES1    0.0000
      6 C4        10.8991    1.7152   -0.3271 C.ar      1 RES1    0.0000
      7 C5         9.5490    1.9961   -0.1373 C.ar      1 RES1    0.0000
      8 C6         8.3690    1.5336   -0.8567 C.ar      1 RES1    0.0000
      9 C7         8.2506    0.7208   -1.9759 C.ar      1 RES1    0.0000
     10 C8         7.0064    0.4313   -2.4462 C.ar      1 RES1    0.0000
     11 C9         5.8824    0.9075   -1.8348 C.ar      1 RES1    0.0000
     12 C10        5.9836    1.7480   -0.7231 C.ar      1 RES1    0.0000
     13 C11        7.2349    2.0665   -0.2520 C.ar      1 RES1    0.0000
     14 C12        7.6449    3.0089    0.8597 C.3       1 RES1    0.0000
     15 C13        9.1474    2.8189    0.8994 C.ar      1 RES1    0.0000
     16 C14        6.8873    2.8924    2.1641 C.2       1 RES1    0.0000
     17 C15        6.0759    4.0771    2.6607 C.3       1 RES1    0.0000
     18 C16        5.0463    4.4765    1.5993 C.3       1 RES1    0.0000
     19 C17        5.3441    3.7370    3.9660 C.3       1 RES1    0.0000
     20 C18        7.0176    5.2474    2.9188 C.3       1 RES1    0.0000
     21 H1         9.7979    3.9488    2.4634 H         1 RES1    0.0000
     22 H2        12.0670    3.5011    2.1079 H         1 RES1    0.0000
     23 H3        12.7345    2.1425    0.3788 H         1 RES1    0.0000
     24 H4        11.1823    1.1304   -1.0202 H         1 RES1    0.0000
     25 H5         9.0237    0.3734   -2.4049 H         1 RES1    0.0000
     26 H6         6.9171   -0.1149   -3.2181 H         1 RES1    0.0000
     27 H7         5.0258    0.6654   -2.1671 H         1 RES1    0.0000
     28 H8         5.2034    2.0909   -0.3023 H         1 RES1    0.0000
     29 H9         7.4940    3.8900    0.5371 H         1 RES1    0.0000
     30 H10        5.4873    4.6267    0.7711 H         1 RES1    0.0000
     31 H11        4.6027    5.2715    1.8708 H         1 RES1    0.0000
     32 H12        4.4102    3.7781    1.4973 H         1 RES1    0.0000
     33 H13        5.9696    3.4202    4.6066 H         1 RES1    0.0000
     34 H14        4.9143    4.5158    4.3005 H         1 RES1    0.0000
     35 H15        4.6945    3.0635    3.7987 H         1 RES1    0.0000
     36 H16        7.4811    5.4631    2.1176 H         1 RES1    0.0000
     37 H17        7.6439    5.0068    3.5916 H         1 RES1    0.0000
     38 H18        6.5155    6.0002    3.2068 H         1 RES1    0.0000
     39 H19        7.5194    0.1864    2.9855 H         1 RES1    0.0000
@<TRIPOS>BOND
     1    1    2 1
     2    2   16 2
     3    3    4 ar
     4    4    5 ar
     5    5    6 ar
     6    6    7 ar
     7    7    8 1
     8    8    9 ar
     9    9   10 ar
    10   10   11 ar
    11   11   12 ar
    12   12   13 ar
    13   13    8 ar
    14   14   13 1
    15   15    3 ar
    16   16   14 1
    17   17   16 1
    18   18   17 1
    19   19   17 1
    20   20   17 1
    21   21    3 1
    22   22    4 1
    23   23    5 1
    24   24    6 1
    25   25    9 1
    26   26   10 1
    27   27   11 1
    28   28   12 1
    29   29   14 1
    30   30   18 1
    31   31   18 1
    32   32   18 1
    33   33   19 1
    34   34   19 1
    35   35   19 1
    36   36   20 1
    37   37   20 1
    38   38   20 1
    39   39    1 1
    40    7   15 ar
    41   14   15 1
@<TRIPOS>SUBSTRUCTURE
     1 RES1 1

@<TRIPOS>CRYSIN
  10.2750   11.0730    8.2920  71.9400  66.5700  64.4100   2 1

