# MOL2 file generated by ConQuest
# Please check atom types

@<TRIPOS>MOLECULE
HEVVEJ
    31    34     1
SMALL
NO_CHARGES
****
Generated from CSD

@<TRIPOS>ATOM
      1 C1         3.7831   -0.3259   14.5554 C.3       1 RES1    0.0000
      2 C2         2.3733   -0.1771   14.0587 C.3       1 RES1    0.0000
      3 O1         2.0502    1.2093   13.7462 O.3       1 RES1    0.0000
      4 N1         1.0142    1.6551   14.5842 N.2       1 RES1    0.0000
      5 C3         0.7097    0.7265   15.4150 C.2       1 RES1    0.0000
      6 C4         1.5037   -0.5218   15.2696 C.3       1 RES1    0.0000
      7 C5         2.5677   -0.7780   16.3696 C.3       1 RES1    0.0000
      8 C6         3.2136   -2.1123   16.0586 C.3       1 RES1    0.0000
      9 C7         4.0221   -1.8184   14.7858 C.3       1 RES1    0.0000
     10 C8         3.6600    0.1990   15.9823 C.3       1 RES1    0.0000
     11 C9        -0.3488    0.9582   16.4171 C.ar      1 RES1    0.0000
     12 C10       -0.9605    2.1983   16.5496 C.ar      1 RES1    0.0000
     13 C11       -1.9441    2.3998   17.4826 C.ar      1 RES1    0.0000
     14 C12       -2.3257    1.3694   18.3105 C.ar      1 RES1    0.0000
     15 C13       -1.7581    0.1363   18.1896 C.ar      1 RES1    0.0000
     16 C14       -0.7541   -0.0804   17.2436 C.ar      1 RES1    0.0000
     17 H1         4.4874    0.0320   14.0198 H         1 RES1    0.0000
     18 H2         2.1838   -0.7372   13.3143 H         1 RES1    0.0000
     19 H3         0.9714   -1.2947   15.1170 H         1 RES1    0.0000
     20 H4         2.1812   -0.6423   17.2263 H         1 RES1    0.0000
     21 H5         2.6201   -2.8500   15.9780 H         1 RES1    0.0000
     22 H6         3.7979   -2.3396   16.7728 H         1 RES1    0.0000
     23 H7         4.9607   -1.9779   14.8347 H         1 RES1    0.0000
     24 H8         3.6880   -2.3584   14.0774 H         1 RES1    0.0000
     25 H9         3.3456    1.0951   16.0284 H         1 RES1    0.0000
     26 H10        4.5151    0.1143   16.3898 H         1 RES1    0.0000
     27 H11       -0.6306    2.9028   16.0010 H         1 RES1    0.0000
     28 H12       -2.2914    3.2814   17.6079 H         1 RES1    0.0000
     29 H13       -3.1125    1.5402   18.8188 H         1 RES1    0.0000
     30 H14       -2.0250   -0.6285   18.6878 H         1 RES1    0.0000
     31 H15       -0.3421   -0.9349   17.1875 H         1 RES1    0.0000
@<TRIPOS>BOND
     1    1    2 1
     2    2    3 1
     3    3    4 1
     4    4    5 2
     5    5    6 1
     6    6    2 1
     7    7    6 1
     8    8    7 1
     9    9    1 1
    10   10    1 1
    11   11    5 1
    12   12   11 ar
    13   13   12 ar
    14   14   13 ar
    15   15   14 ar
    16   16   11 ar
    17   17    1 1
    18   18    2 1
    19   19    6 1
    20   20    7 1
    21   21    8 1
    22   22    8 1
    23   23    9 1
    24   24    9 1
    25   25   10 1
    26   26   10 1
    27   27   12 1
    28   28   13 1
    29   29   14 1
    30   30   15 1
    31   31   16 1
    32    7   10 1
    33    8    9 1
    34   15   16 ar
@<TRIPOS>SUBSTRUCTURE
     1 RES1 1

@<TRIPOS>CRYSIN
  12.4560    6.2790   14.4090  90.0000  92.1900  90.0000 231 1

