# MOL2 file generated by ConQuest
# Please check atom types

@<TRIPOS>MOLECULE
HEVYEM
    41    42     1
SMALL
NO_CHARGES
****
Generated from CSD

@<TRIPOS>ATOM
      1 C1         6.0872    0.3237    7.0890 C.2       1 RES1    0.0000
      2 C2         5.3933    1.5598    6.7173 C.2       1 RES1    0.0000
      3 C3         4.6339    1.6063    5.5731 C.2       1 RES1    0.0000
      4 C4         7.4369   -0.7553    8.7143 C.3       1 RES1    0.0000
      5 C5         8.1359   -0.3349    9.9727 C.3       1 RES1    0.0000
      6 C6         5.4308    2.7789    7.5569 C.2       1 RES1    0.0000
      7 C7         6.7082    3.1497    8.2440 C.ar      1 RES1    0.0000
      8 C8         6.6411    3.6819    9.5309 C.ar      1 RES1    0.0000
      9 C9         7.8137    4.0170   10.2004 C.ar      1 RES1    0.0000
     10 C10        9.0324    3.8519    9.5857 C.ar      1 RES1    0.0000
     11 C11        9.1076    3.3505    8.3009 C.ar      1 RES1    0.0000
     12 C12        7.9422    2.9779    7.6246 C.ar      1 RES1    0.0000
     13 C13        3.8920    0.5841    3.4595 C.ar      1 RES1    0.0000
     14 C14        3.7711   -0.6493    2.8183 C.ar      1 RES1    0.0000
     15 C15        3.1601   -0.6865    1.5831 C.ar      1 RES1    0.0000
     16 C16        2.6805    0.4397    0.9397 C.ar      1 RES1    0.0000
     17 C17        2.8407    1.6596    1.5808 C.ar      1 RES1    0.0000
     18 C18        3.4300    1.7417    2.8357 C.ar      1 RES1    0.0000
     19 O1         6.1155   -0.6833    6.4005 O.2       1 RES1    0.0000
     20 O2         6.6374    0.3791    8.2981 O.3       1 RES1    0.0000
     21 O3         4.4396    3.4892    7.6728 O.2       1 RES1    0.0000
     22 O4         3.6379   -2.9409    1.3684 O.2       1 RES1    0.0000
     23 O5         2.2564   -2.0886   -0.0051 O.2       1 RES1    0.0000
     24 N1         4.5212    0.5827    4.7127 N.3       1 RES1    0.0000
     25 N2         3.0172   -2.0008    0.9348 N.pl3     1 RES1    0.0000
     26 H1         4.8993   -0.1483    4.9608 H         1 RES1    0.0000
     27 H2         4.1766    2.4075    5.3807 H         1 RES1    0.0000
     28 H3         6.8395   -1.5313    8.8536 H         1 RES1    0.0000
     29 H4         8.0734   -0.9800    8.0163 H         1 RES1    0.0000
     30 H5         7.5186   -0.1405   10.6493 H         1 RES1    0.0000
     31 H6         8.7024    0.5030    9.7783 H         1 RES1    0.0000
     32 H7         8.7747   -1.0088   10.2406 H         1 RES1    0.0000
     33 H8         5.7129    3.8010    9.9664 H         1 RES1    0.0000
     34 H9         7.8120    4.3253   11.1029 H         1 RES1    0.0000
     35 H10        9.8410    4.0743   10.0960 H         1 RES1    0.0000
     36 H11        9.9504    3.2355    7.8244 H         1 RES1    0.0000
     37 H12        7.9756    2.6221    6.7365 H         1 RES1    0.0000
     38 H13        4.0190   -1.4251    3.2374 H         1 RES1    0.0000
     39 H14        2.3293    0.3786    0.0785 H         1 RES1    0.0000
     40 H15        2.6065    2.4927    1.1315 H         1 RES1    0.0000
     41 H16        3.4722    2.5821    3.2897 H         1 RES1    0.0000
@<TRIPOS>BOND
     1    1    2 1
     2    2    3 2
     3    3   24 1
     4    4    5 1
     5    5   30 1
     6    6    2 1
     7    7    6 1
     8    8    7 ar
     9    9    8 ar
    10   10    9 ar
    11   11   10 ar
    12   12    7 ar
    13   13   14 ar
    14   14   15 ar
    15   15   16 ar
    16   16   17 ar
    17   17   18 ar
    18   18   13 ar
    19   19    1 2
    20   20    1 1
    21   21    6 2
    22   22   25 2
    23   23   25 2
    24   24   13 1
    25   25   15 1
    26   26   24 1
    27   27    3 1
    28   28    4 1
    29   29    4 1
    30   31    5 1
    31   32    5 1
    32   33    8 1
    33   34    9 1
    34   35   10 1
    35   36   11 1
    36   37   12 1
    37   38   14 1
    38   39   16 1
    39   40   17 1
    40   41   18 1
    41    4   20 1
    42   11   12 ar
@<TRIPOS>SUBSTRUCTURE
     1 RES1 1

@<TRIPOS>CRYSIN
   8.2900    8.0670   12.5000  90.3800  94.5000  90.3500   2 1

