# MOL2 file generated by ConQuest
# Please check atom types

@<TRIPOS>MOLECULE
HEVZEP
    41    41     1
SMALL
NO_CHARGES
****
Generated from CSD

@<TRIPOS>ATOM
      1 O1        -0.5778    4.7898   16.7044 O.2       1 RES1    0.0000
      2 N1         1.9054    2.6004   11.7668 N.am      1 RES1    0.0000
      3 N2         1.1346    1.8353    8.7594 N.am      1 RES1    0.0000
      4 O2         1.6541    3.0496    7.0014 O.3       1 RES1    0.0000
      5 C1         2.5168    4.6487   12.9067 C.ar      1 RES1    0.0000
      6 H1         3.1556    4.8048   12.2490 H         1 RES1    0.0000
      7 O3        -1.0501    2.9273   15.7453 O.2       1 RES1    0.0000
      8 O4        -0.2526    1.9455   11.5089 O.2       1 RES1    0.0000
      9 O5         3.3053    2.2916    8.3645 O.2       1 RES1    0.0000
     10 N3        -0.3940    3.9540   15.8270 N.pl3     1 RES1    0.0000
     11 C2         1.7356    3.5120   12.8371 C.ar      1 RES1    0.0000
     12 C3         0.9236    1.8943   11.1640 C.2       1 RES1    0.0000
     13 C4         1.3695    1.0683    9.9557 C.3       1 RES1    0.0000
     14 H2         2.3313    0.8958   10.0320 H         1 RES1    0.0000
     15 C5         2.1424    2.3814    8.0521 C.2       1 RES1    0.0000
     16 C6         2.5700    3.6789    6.0160 C.3       1 RES1    0.0000
     17 C7         0.6381    4.2090   14.8089 C.ar      1 RES1    0.0000
     18 C8         0.7753    3.2826   13.8190 C.ar      1 RES1    0.0000
     19 H3         0.2432    2.5203   13.7989 H         1 RES1    0.0000
     20 C9         1.6031    4.3217    5.0395 C.3       1 RES1    0.0000
     21 H4         1.0033    3.6545    4.6965 H         1 RES1    0.0000
     22 H5         2.0946    4.7126    4.3134 H         1 RES1    0.0000
     23 H6         1.0999    5.0039    5.4895 H         1 RES1    0.0000
     24 C10        3.4171    4.7233    6.6764 C.3       1 RES1    0.0000
     25 H7         2.8647    5.2819    7.2270 H         1 RES1    0.0000
     26 H8         3.8448    5.2598    6.0039 H         1 RES1    0.0000
     27 H9         4.0847    4.2978    7.2189 H         1 RES1    0.0000
     28 C11        3.3761    2.6060    5.3395 C.3       1 RES1    0.0000
     29 H10        4.0295    2.2623    5.9530 H         1 RES1    0.0000
     30 H11        3.8201    2.9752    4.5719 H         1 RES1    0.0000
     31 H12        2.7933    1.8956    5.0609 H         1 RES1    0.0000
     32 C12        2.3709    5.5449   13.9208 C.ar      1 RES1    0.0000
     33 H13        2.9234    6.2912   13.9637 H         1 RES1    0.0000
     34 C13        1.4042    5.3480   14.8866 C.ar      1 RES1    0.0000
     35 H14        1.2755    5.9664   15.5698 H         1 RES1    0.0000
     36 C14        0.6404   -0.2641    9.9061 C.3       1 RES1    0.0000
     37 H15       -0.3018   -0.1098    9.8043 H         1 RES1    0.0000
     38 H16        0.7993   -0.7466   10.7206 H         1 RES1    0.0000
     39 H17        0.9628   -0.7775    9.1613 H         1 RES1    0.0000
     40 H18        0.4779    1.8617    8.4661 H         1 RES1    0.0000
     41 H19        2.7030    2.4881   11.5069 H         1 RES1    0.0000
@<TRIPOS>BOND
     1    1   10 2
     2    2   11 1
     3    3   13 1
     4    4   15 1
     5    5    6 1
     6    7   10 2
     7    8   12 2
     8    9   15 2
     9   10   17 1
    10   11    5 ar
    11   12    2 1
    12   13   12 1
    13   14   13 1
    14   15    3 1
    15   16    4 1
    16   17   18 ar
    17   18   11 ar
    18   19   18 1
    19   20   16 1
    20   21   20 1
    21   22   20 1
    22   23   20 1
    23   24   16 1
    24   25   24 1
    25   26   24 1
    26   27   24 1
    27   28   16 1
    28   29   28 1
    29   30   28 1
    30   31   28 1
    31   32    5 ar
    32   33   32 1
    33   34   17 ar
    34   35   34 1
    35   36   13 1
    36   37   36 1
    37   38   36 1
    38   39   36 1
    39   40    3 1
    40   41    2 1
    41   32   34 ar
@<TRIPOS>SUBSTRUCTURE
     1 RES1 1

@<TRIPOS>CRYSIN
   5.0685    5.6696   13.5082  97.1920  91.1160  94.9030   1 1

