# MOL2 file generated by ConQuest
# Please check atom types

@<TRIPOS>MOLECULE
HEVZIT
    41    41     1
SMALL
NO_CHARGES
****
Generated from CSD

@<TRIPOS>ATOM
      1 N1         6.6341    2.1740   -1.7326 N.pl3     1 RES1    0.0000
      2 O1         6.3797    4.2385    2.5520 O.2       1 RES1    0.0000
      3 O2         7.2860    3.2030   -1.6374 O.2       1 RES1    0.0000
      4 N2         4.2253    3.5551    2.2886 N.am      1 RES1    0.0000
      5 O3         6.8047    1.3354   -2.6053 O.2       1 RES1    0.0000
      6 O4         2.8109    3.8442    5.6820 O.2       1 RES1    0.0000
      7 O5         4.4839    3.0926    7.0399 O.3       1 RES1    0.0000
      8 C1         5.4048    2.8713    0.2561 C.ar      1 RES1    0.0000
      9 H1         5.9242    3.6424    0.2731 H         1 RES1    0.0000
     10 C2         3.6444    1.4871    1.1515 C.ar      1 RES1    0.0000
     11 H2         2.9832    1.3369    1.7872 H         1 RES1    0.0000
     12 C3         5.2007    4.2791    2.8944 C.2       1 RES1    0.0000
     13 N3         4.9898    4.3522    5.2973 N.am      1 RES1    0.0000
     14 C4         5.5758    1.9214   -0.7317 C.ar      1 RES1    0.0000
     15 C5         4.7370    5.1126    4.0879 C.3       1 RES1    0.0000
     16 H3         3.7730    5.2714    4.0080 H         1 RES1    0.0000
     17 C6         4.4327    2.6404    1.2263 C.ar      1 RES1    0.0000
     18 C7         3.9947    3.7633    5.9878 C.2       1 RES1    0.0000
     19 C8         3.5765    2.4693    8.0268 C.3       1 RES1    0.0000
     20 C9         4.8231    0.7691   -0.8277 C.ar      1 RES1    0.0000
     21 H4         4.9651    0.1519   -1.5088 H         1 RES1    0.0000
     22 C10        2.7473    3.5479    8.7102 C.3       1 RES1    0.0000
     23 H5         3.3206    4.2697    8.9785 H         1 RES1    0.0000
     24 H6         2.3151    3.1772    9.4836 H         1 RES1    0.0000
     25 H7         2.0840    3.8763    8.0995 H         1 RES1    0.0000
     26 C11        3.8424    0.5701    0.1379 C.ar      1 RES1    0.0000
     27 H8         3.3118   -0.1922    0.1008 H         1 RES1    0.0000
     28 C12        4.5254    1.8388    9.0262 C.3       1 RES1    0.0000
     29 H9         5.0383    1.1535    8.5914 H         1 RES1    0.0000
     30 H10        4.0214    1.4532    9.7462 H         1 RES1    0.0000
     31 H11        5.1176    2.5104    9.3723 H         1 RES1    0.0000
     32 C13        2.7245    1.4007    7.3609 C.3       1 RES1    0.0000
     33 H12        2.0186    1.8196    6.8625 H         1 RES1    0.0000
     34 H13        2.3468    0.8283    8.0319 H         1 RES1    0.0000
     35 H14        3.2703    0.8806    6.7670 H         1 RES1    0.0000
     36 C14        5.4553    6.4519    4.1229 C.3       1 RES1    0.0000
     37 H15        5.0932    6.9909    4.8300 H         1 RES1    0.0000
     38 H16        5.3339    6.9026    3.2841 H         1 RES1    0.0000
     39 H17        6.3917    6.3092    4.2771 H         1 RES1    0.0000
     40 H18        5.7816    4.2097    5.4889 H         1 RES1    0.0000
     41 H19        3.4226    3.6575    2.5456 H         1 RES1    0.0000
@<TRIPOS>BOND
     1    1    3 2
     2    2   12 2
     3    4   12 1
     4    5    1 2
     5    6   18 2
     6    7   18 1
     7    8    9 1
     8   10   11 1
     9   12   15 1
    10   13   15 1
    11   14    1 1
    12   15   16 1
    13   17    4 1
    14   18   13 1
    15   19    7 1
    16   20   14 ar
    17   21   20 1
    18   22   19 1
    19   23   22 1
    20   24   22 1
    21   25   22 1
    22   26   10 ar
    23   27   26 1
    24   28   19 1
    25   29   28 1
    26   30   28 1
    27   31   28 1
    28   32   19 1
    29   33   32 1
    30   34   32 1
    31   35   32 1
    32   36   15 1
    33   37   36 1
    34   38   36 1
    35   39   36 1
    36   40   13 1
    37   41    4 1
    38    8   14 ar
    39    8   17 ar
    40   10   17 ar
    41   20   26 ar
@<TRIPOS>SUBSTRUCTURE
     1 RES1 1

@<TRIPOS>CRYSIN
   5.0385    5.6116   13.3741  97.1520  91.6650  95.7670   1 1

