# MOL2 file generated by ConQuest
# Please check atom types

@<TRIPOS>MOLECULE
HEWJAX
    30    30     2
SMALL
NO_CHARGES
****
Generated from CSD

@<TRIPOS>ATOM
      1 O1        10.2803    4.7506    7.1474 O.2       1 RES1    0.0000
      2 O2        12.4510    4.5401    7.1358 O.2       1 RES1    0.0000
      3 O3        10.0769    2.9621    3.7996 O.2       1 RES1    0.0000
      4 O4        10.9506    2.2084    5.6506 O.2       1 RES1    0.0000
      5 O5        14.3106    5.3053    3.3053 O.3       1 RES1    0.0000
      6 O6        15.8257    3.6262    3.5955 O.2       1 RES1    0.0000
      7 N1        11.3616    4.5998    6.5964 N.pl3     1 RES1    0.0000
      8 N2        10.7170    3.0772    4.8215 N.pl3     1 RES1    0.0000
      9 N3        12.9744    5.5583    3.7201 N.2       1 RES1    0.0000
     10 N4        13.6871    3.6231    4.5669 N.am      1 RES1    0.0000
     11 H1        13.6716    2.8714    5.0249 H         1 RES1    0.0000
     12 C1        11.3203    4.4479    5.0844 C.3       1 RES1    0.0000
     13 H2        10.7288    5.1529    4.6945 H         1 RES1    0.0000
     14 C2        12.6754    4.5401    4.4666 C.2       1 RES1    0.0000
     15 C3        14.7251    4.0990    3.8198 C.2       1 RES1    0.0000
     16 O7        17.0606    2.0980   12.3588 O.2       2 RES2    0.0000
     17 O8        15.2241    1.9404   11.1916 O.2       2 RES2    0.0000
     18 O9        18.7654    0.1021    9.4321 O.2       2 RES2    0.0000
     19 O10       17.1931   -0.4510   10.8342 O.2       2 RES2    0.0000
     20 O11       15.8741    2.9772    7.0060 O.3       2 RES2    0.0000
     21 O12       14.1473    1.6231    6.4068 O.2       2 RES2    0.0000
     22 N5        16.4422    1.9637   11.3170 N.pl3     2 RES2    0.0000
     23 N6        17.7982    0.3375   10.1197 N.pl3     2 RES2    0.0000
     24 N7        16.8079    3.0316    8.0719 N.2       2 RES2    0.0000
     25 N8        15.4673    1.2654    8.3204 N.am      2 RES2    0.0000
     26 H3        15.1334    0.5298    8.6693 H         2 RES2    0.0000
     27 C4        17.2803    1.7703   10.0628 C.3       2 RES2    0.0000
     28 H4        18.0583    2.3986   10.0898 H         2 RES2    0.0000
     29 C5        16.5064    2.0093    8.8131 C.2       2 RES2    0.0000
     30 C6        15.0505    1.8953    7.1760 C.2       2 RES2    0.0000
@<TRIPOS>BOND
     1    1    7 2
     2    2    7 2
     3    3    8 2
     4    4    8 2
     5    5    9 1
     6    6   15 2
     7    7   12 1
     8    8   12 1
     9    9   14 2
    10   10   11 1
    11   12   13 1
    12   14   10 1
    13   15    5 1
    14   16   22 2
    15   17   22 2
    16   18   23 2
    17   19   23 2
    18   20   24 1
    19   21   30 2
    20   22   27 1
    21   23   27 1
    22   24   29 2
    23   25   26 1
    24   27   28 1
    25   29   25 1
    26   30   20 1
    27   10   15 1
    28   12   14 1
    29   25   30 1
    30   27   29 1
@<TRIPOS>SUBSTRUCTURE
     1 RES1 1
     2 RES2 16

@<TRIPOS>CRYSIN
  21.7450    5.1840   12.1740  90.0000 104.9900  90.0000  14 1

