# MOL2 file generated by ConQuest
# Please check atom types

@<TRIPOS>MOLECULE
HEWMED
    35    36     1
SMALL
NO_CHARGES
****
Generated from CSD

@<TRIPOS>ATOM
      1 C1         7.2183    0.8045    4.2660 C.ar      1 RES1    0.0000
      2 C2         8.3621    1.3803    4.8814 C.ar      1 RES1    0.0000
      3 H1         8.8286    2.0806    4.4387 H         1 RES1    0.0000
      4 C3         8.8040    0.9408    6.1055 C.ar      1 RES1    0.0000
      5 H2         9.5688    1.3418    6.5012 H         1 RES1    0.0000
      6 C4         8.1374   -0.0953    6.7807 C.ar      1 RES1    0.0000
      7 H3         8.4593   -0.4010    7.6200 H         1 RES1    0.0000
      8 C5         7.0309   -0.6593    6.2295 C.ar      1 RES1    0.0000
      9 H4         6.5776   -1.3512    6.6958 H         1 RES1    0.0000
     10 C6         6.5372   -0.2301    4.9609 C.ar      1 RES1    0.0000
     11 C7         5.3840   -0.8262    4.3913 C.ar      1 RES1    0.0000
     12 H5         4.9370   -1.5112    4.8741 H         1 RES1    0.0000
     13 C8         4.8911   -0.4504    3.1686 C.ar      1 RES1    0.0000
     14 C9         5.5679    0.5872    2.4806 C.ar      1 RES1    0.0000
     15 C10        6.7089    1.2144    2.9738 C.ar      1 RES1    0.0000
     16 C11        7.3723    2.2638    2.2111 C.2       1 RES1    0.0000
     17 H6         8.1590    2.6683    2.5562 H         1 RES1    0.0000
     18 C12        3.6728   -1.0894    2.5545 C.3       1 RES1    0.0000
     19 H7         3.5142   -1.9621    2.9940 H         1 RES1    0.0000
     20 H8         3.8523   -1.2638    1.5955 H         1 RES1    0.0000
     21 C13        2.4045   -0.2415    2.6717 C.3       1 RES1    0.0000
     22 H9         2.1459   -0.1807    3.6264 H         1 RES1    0.0000
     23 H10        2.6006    0.6751    2.3543 H         1 RES1    0.0000
     24 C14        1.2294   -0.7995    1.8755 C.3       1 RES1    0.0000
     25 H11        1.4900   -0.8672    0.9218 H         1 RES1    0.0000
     26 H12        1.0266   -1.7127    2.1987 H         1 RES1    0.0000
     27 C15       -0.0215    0.0519    1.9854 C.3       1 RES1    0.0000
     28 H13       -0.2898    0.1180    2.9259 H         1 RES1    0.0000
     29 H14       -0.7441   -0.3605    1.4666 H         1 RES1    0.0000
     30 H15        0.1619    0.9482    1.6344 H         1 RES1    0.0000
     31 N1         6.9091    2.6480    1.0826 N.2       1 RES1    0.0000
     32 O1         5.0470    0.9191    1.2630 O.3       1 RES1    0.0000
     33 H16        5.5240    1.5112    0.9072 H         1 RES1    0.0000
     34 O2         7.6692    3.6570    0.4872 O.3       1 RES1    0.0000
     35 H17        7.2372    3.9943   -0.1484 H         1 RES1    0.0000
@<TRIPOS>BOND
     1    1    2 ar
     2    2    3 1
     3    4    2 ar
     4    5    4 1
     5    6    4 ar
     6    7    6 1
     7    8    6 ar
     8    9    8 1
     9   10    1 ar
    10   11   10 ar
    11   12   11 1
    12   13   11 ar
    13   14   13 ar
    14   15    1 ar
    15   16   15 1
    16   17   16 1
    17   18   13 1
    18   19   18 1
    19   20   18 1
    20   21   18 1
    21   22   21 1
    22   23   21 1
    23   24   21 1
    24   25   24 1
    25   26   24 1
    26   27   24 1
    27   28   27 1
    28   29   27 1
    29   30   27 1
    30   31   16 2
    31   32   14 1
    32   33   32 1
    33   34   31 1
    34   35   34 1
    35    8   10 ar
    36   14   15 ar
@<TRIPOS>SUBSTRUCTURE
     1 RES1 1

@<TRIPOS>CRYSIN
  10.5910    4.9385   24.3760  90.0000  93.8230  90.0000  14 1

