# MOL2 file generated by ConQuest
# Please check atom types

@<TRIPOS>MOLECULE
HEWPUV
    21    21     1
SMALL
NO_CHARGES
****
Generated from CSD

@<TRIPOS>ATOM
      1 O1         6.3138    0.0461    0.7541 O.3       1 RES1    0.0000
      2 H1         6.0437   -0.4877    0.1931 H         1 RES1    0.0000
      3 N1         6.9139    1.8266    2.4666 N.pl3     1 RES1    0.0000
      4 H2         7.5067    1.2780    2.1704 H         1 RES1    0.0000
      5 H3         7.1292    2.4156    3.0542 H         1 RES1    0.0000
      6 N2         5.2379    0.9264    1.1376 N.2       1 RES1    0.0000
      7 C1         4.3367    1.2652    4.5944 C.3       1 RES1    0.0000
      8 H4         3.8337    1.2921    5.4118 H         1 RES1    0.0000
      9 H5         5.2733    1.2078    4.7970 H         1 RES1    0.0000
     10 H6         4.0730    0.4983    4.0814 H         1 RES1    0.0000
     11 C2         4.0715    2.5148    3.8013 C.ar      1 RES1    0.0000
     12 C3         3.1931    3.4887    4.2769 C.ar      1 RES1    0.0000
     13 H7         2.7845    3.3625    5.1026 H         1 RES1    0.0000
     14 C4         2.9102    4.6313    3.5625 C.ar      1 RES1    0.0000
     15 H8         2.3164    5.2600    3.9037 H         1 RES1    0.0000
     16 C5         3.5059    4.8383    2.3505 C.ar      1 RES1    0.0000
     17 H9         3.3249    5.6109    1.8648 H         1 RES1    0.0000
     18 C6         4.3788    3.8906    1.8529 C.ar      1 RES1    0.0000
     19 H10        4.7808    4.0302    1.0260 H         1 RES1    0.0000
     20 C7         4.6666    2.7381    2.5614 C.ar      1 RES1    0.0000
     21 C8         5.6540    1.7628    2.0091 C.2       1 RES1    0.0000
@<TRIPOS>BOND
     1    1    2 1
     2    3    4 1
     3    5    3 1
     4    6    1 1
     5    7    8 1
     6    9    7 1
     7   10    7 1
     8   11    7 1
     9   12   11 ar
    10   13   12 1
    11   14   12 ar
    12   15   14 1
    13   16   14 ar
    14   17   16 1
    15   18   16 ar
    16   19   18 1
    17   20   11 ar
    18   21    3 1
    19    6   21 2
    20   18   20 ar
    21   20   21 1
@<TRIPOS>SUBSTRUCTURE
     1 RES1 1

@<TRIPOS>CRYSIN
   9.7510    7.0880   11.9820  90.0000  98.6000  90.0000 231 1

