# MOL2 file generated by ConQuest
# Please check atom types

@<TRIPOS>MOLECULE
HEWWIS
    87    82     3
SMALL
NO_CHARGES
****
Generated from CSD

@<TRIPOS>ATOM
      1 O1         1.1243    7.5349    5.7808 O.3       1 RES1    0.0000
      2 O2         2.2408    2.9017   10.2910 O.2       1 RES1    0.0000
      3 O3         4.0066    6.8603    7.0487 O.2       1 RES1    0.0000
      4 O4         3.1803    4.9276    6.5763 O.2       1 RES1    0.0000
      5 N1         3.1082    6.0335    7.0985 N.pl3     1 RES1    0.0000
      6 C1         1.4908    5.2515    8.7745 C.3       1 RES1    0.0000
      7 H1         0.6255    5.3928    9.1897 H         1 RES1    0.0000
      8 H2         1.4635    4.4113    8.2898 H         1 RES1    0.0000
      9 C2         2.5632    5.2010    9.8303 C.2       1 RES1    0.0000
     10 C3         1.7991    6.3897    7.8194 C.3       1 RES1    0.0000
     11 C4         3.2562    6.2798   10.1886 C.2       1 RES1    0.0000
     12 H3         3.9580    6.1587   10.7854 H         1 RES1    0.0000
     13 C5         1.5361    8.7463    6.3043 C.ar      1 RES1    0.0000
     14 C6         1.9303    7.7147    8.5745 C.3       1 RES1    0.0000
     15 H4         1.0744    7.8259    9.0391 H         1 RES1    0.0000
     16 C7         2.8570    3.9287   10.4837 C.2       1 RES1    0.0000
     17 H5         3.5634    3.9048   11.0865 H         1 RES1    0.0000
     18 C8         2.0069    8.8833    7.6147 C.ar      1 RES1    0.0000
     19 C9         0.7533    6.5381    6.7242 C.3       1 RES1    0.0000
     20 H6         0.6439    5.6894    6.2692 H         1 RES1    0.0000
     21 H7        -0.0984    6.7748    7.1223 H         1 RES1    0.0000
     22 O5         1.3807    8.3457   11.3541 O.3       1 RES1    0.0000
     23 C10        2.9959    7.6762    9.7042 C.3       1 RES1    0.0000
     24 H8         3.8339    7.9928    9.3068 H         1 RES1    0.0000
     25 C11        2.4808   10.1427    7.9830 C.ar      1 RES1    0.0000
     26 H9         2.8239   10.2609    8.8384 H         1 RES1    0.0000
     27 C12        1.5122    9.8193    5.4318 C.ar      1 RES1    0.0000
     28 H10        1.1903    9.7068    4.5664 H         1 RES1    0.0000
     29 C13        2.4559   11.2224    7.1166 C.ar      1 RES1    0.0000
     30 H11        2.7687   12.0531    7.3932 H         1 RES1    0.0000
     31 C14        1.9657   11.0602    5.8433 C.ar      1 RES1    0.0000
     32 H12        1.9390   11.7823    5.2589 H         1 RES1    0.0000
     33 C15        2.6822    8.6214   10.8557 C.3       1 RES1    0.0000
     34 H13        3.3353    8.5060   11.5615 H         1 RES1    0.0000
     35 H14        2.7273    9.5399   10.5479 H         1 RES1    0.0000
     36 C16        1.3420    7.6523   12.5939 C.3       1 RES1    0.0000
     37 H15        1.7624    6.7948   12.4949 H         1 RES1    0.0000
     38 H16        0.4296    7.5312   12.8662 H         1 RES1    0.0000
     39 H17        1.8093    8.1616   13.2610 H         1 RES1    0.0000
     40 H18        3.8201    8.1445    9.4540 Du        3 SUP3    0.0000
     41 O6         1.2105    7.5216   11.5013 Du        3 SUP3    0.0000
     42 C17        0.7165    7.9213   12.7859 Du        3 SUP3    0.0000
     43 H19        0.2861    8.7759   12.7090 Du        3 SUP3    0.0000
     44 H20        1.4487    7.9842   13.4048 Du        3 SUP3    0.0000
     45 H21        0.0855    7.2708   13.1004 Du        3 SUP3    0.0000
     46 C18        2.3290    8.2761   11.0564 Du        3 SUP3    0.0000
     47 H22        2.9977    8.2933   11.7589 Du        3 SUP3    0.0000
     48 H23        2.0485    9.1908   10.8925 Du        3 SUP3    0.0000
     49 O7         0.6042    1.6451   13.8357 O.2       2 RES2    0.0000
     50 O8         5.6644    0.1676   14.4757 O.3       2 RES2    0.0000
     51 O9         4.5137    5.1393   13.5537 O.2       2 RES2    0.0000
     52 O10        5.1246    5.2112   16.9432 O.3       2 RES2    0.0000
     53 O11        2.7767    5.5557   14.7664 O.2       2 RES2    0.0000
     54 N2         3.7659    4.8900   14.4890 N.pl3     2 RES2    0.0000
     55 C19        2.9148    2.1386   13.8166 C.2       2 RES2    0.0000
     56 C20        5.3886    3.0250   15.0223 C.3       2 RES2    0.0000
     57 H24        5.4951    2.2786   15.6495 H         2 RES2    0.0000
     58 C21        1.6529    1.6732   13.2352 C.2       2 RES2    0.0000
     59 H25        1.6594    1.3821   12.3510 H         2 RES2    0.0000
     60 C22        4.0449    2.0426   13.1067 C.2       2 RES2    0.0000
     61 H26        3.9728    1.7388   12.2306 H         2 RES2    0.0000
     62 C23        6.5170    3.9908   15.3471 C.ar      2 RES2    0.0000
     63 C24        5.4207    2.3848   13.6062 C.3       2 RES2    0.0000
     64 H27        5.8253    3.0254   12.9866 H         2 RES2    0.0000
     65 C25        7.7615    3.9277   14.7326 C.ar      2 RES2    0.0000
     66 H28        7.9170    3.2687   14.0940 H         2 RES2    0.0000
     67 C26        4.0576    3.6733   15.3866 C.3       2 RES2    0.0000
     68 C27        6.3266    4.9908   16.3093 C.ar      2 RES2    0.0000
     69 C28        6.2415    1.0892   13.5707 C.3       2 RES2    0.0000
     70 H29        6.2392    0.7192   12.6755 H         2 RES2    0.0000
     71 H30        7.1600    1.2714   13.8230 H         2 RES2    0.0000
     72 C29        2.8996    2.7004   15.2113 C.3       2 RES2    0.0000
     73 H31        2.9775    1.9791   15.8570 H         2 RES2    0.0000
     74 H32        2.0595    3.1590   15.3719 H         2 RES2    0.0000
     75 C30        4.1300    4.1986   16.8087 C.3       2 RES2    0.0000
     76 H33        3.2663    4.5620   17.0613 H         2 RES2    0.0000
     77 H34        4.3342    3.4671   17.4125 H         2 RES2    0.0000
     78 C31        7.3467    5.8763   16.6371 C.ar      2 RES2    0.0000
     79 H35        7.2041    6.5268   17.2854 H         2 RES2    0.0000
     80 C32        8.5673    5.7943   16.0042 C.ar      2 RES2    0.0000
     81 H36        9.2471    6.3914   16.2216 H         2 RES2    0.0000
     82 C33        8.7779    4.8176   15.0437 C.ar      2 RES2    0.0000
     83 H37        9.5984    4.7604   14.6091 H         2 RES2    0.0000
     84 C34        6.0911   -1.1541   14.2475 C.3       2 RES2    0.0000
     85 H38        5.8032   -1.4374   13.3781 H         2 RES2    0.0000
     86 H39        5.7122   -1.7321   14.9136 H         2 RES2    0.0000
     87 H40        7.0496   -1.1942   14.2980 H         2 RES2    0.0000
@<TRIPOS>BOND
     1    1   13 1
     2    2   16 2
     3    3    5 2
     4    4    5 2
     5    5   10 1
     6    6    7 1
     7    8    6 1
     8    9    6 1
     9   10    6 1
    10   11    9 2
    11   12   11 1
    12   13   18 ar
    13   14   10 1
    14   15   14 1
    15   16    9 1
    16   17   16 1
    17   18   14 1
    18   19    1 1
    19   20   19 1
    20   21   19 1
    21   22   33 1
    22   23   11 1
    23   24   23 1
    24   25   18 ar
    25   26   25 1
    26   27   13 ar
    27   28   27 1
    28   29   25 ar
    29   30   29 1
    30   31   27 ar
    31   32   31 1
    32   33   23 1
    33   34   33 1
    34   35   33 1
    35   36   22 1
    36   37   36 1
    37   38   36 1
    38   39   36 1
    39   49   58 2
    40   50   69 1
    41   51   54 2
    42   52   68 1
    43   53   54 2
    44   54   67 1
    45   55   58 1
    46   56   57 1
    47   58   59 1
    48   60   55 2
    49   61   60 1
    50   62   56 1
    51   63   56 1
    52   64   63 1
    53   65   62 ar
    54   66   65 1
    55   67   56 1
    56   68   62 ar
    57   69   63 1
    58   70   69 1
    59   71   69 1
    60   72   55 1
    61   73   72 1
    62   74   72 1
    63   75   52 1
    64   76   75 1
    65   77   75 1
    66   78   68 ar
    67   79   78 1
    68   80   78 ar
    69   81   80 1
    70   82   65 ar
    71   83   82 1
    72   84   50 1
    73   85   84 1
    74   86   84 1
    75   87   84 1
    76   10   19 1
    77   14   23 1
    78   29   31 ar
    79   60   63 1
    80   67   72 1
    81   67   75 1
    82   80   82 ar
@<TRIPOS>SUBSTRUCTURE
     1 RES1 1
     2 RES2 49
     3 SUP3 40

@<TRIPOS>CRYSIN
   9.1983    9.5380   33.4535  90.0000  90.0000  90.0000  19 1

