# MOL2 file generated by ConQuest
# Please check atom types

@<TRIPOS>MOLECULE
HEWZER
    50    42     2
SMALL
NO_CHARGES
****
Generated from CSD

@<TRIPOS>ATOM
      1 O1         9.0246    0.1821   12.4288 O.2       1 RES1    0.0000
      2 O2         7.9656    1.7313   13.5002 O.2       1 RES1    0.0000
      3 N1         7.9737    6.3591    6.3545 N.3       1 RES1    0.0000
      4 N2         8.4742    1.2821   12.4702 N.pl3     1 RES1    0.0000
      5 C1         7.6437    5.5018    7.3593 C.2       1 RES1    0.0000
      6 C2         8.5129    4.5364    7.7984 C.2       1 RES1    0.0000
      7 H1         9.2770    4.3905    7.2538 H         1 RES1    0.0000
      8 C3         8.4173    3.7123    8.9826 C.ar      1 RES1    0.0000
      9 C4         9.1540    2.5103    9.0386 C.ar      1 RES1    0.0000
     10 H2         9.6730    2.2564    8.2854 H         1 RES1    0.0000
     11 C5         9.1481    1.6915   10.1461 C.ar      1 RES1    0.0000
     12 H3         9.6315    0.8739   10.1459 H         1 RES1    0.0000
     13 C6         8.4222    2.0855   11.2613 C.ar      1 RES1    0.0000
     14 C7         7.6977    3.2727   11.2690 C.ar      1 RES1    0.0000
     15 H4         7.2158    3.5349   12.0448 H         1 RES1    0.0000
     16 C8         7.6865    4.0636   10.1422 C.ar      1 RES1    0.0000
     17 H5         7.1760    4.8645   10.1437 H         1 RES1    0.0000
     18 C9         6.2694    5.6756    7.9287 C.ar      1 RES1    0.0000
     19 C10        5.8991    6.8504    8.5796 C.ar      1 RES1    0.0000
     20 H6         6.5238    7.5617    8.6614 H         1 RES1    0.0000
     21 C11        4.6278    6.9880    9.1084 C.ar      1 RES1    0.0000
     22 H7         4.3854    7.7890    9.5585 H         1 RES1    0.0000
     23 C12        3.7075    5.9580    8.9830 C.ar      1 RES1    0.0000
     24 H8         2.8336    6.0547    9.3427 H         1 RES1    0.0000
     25 C13        4.0624    4.7904    8.3339 C.ar      1 RES1    0.0000
     26 H9         3.4319    4.0855    8.2470 H         1 RES1    0.0000
     27 C14        5.3366    4.6474    7.8093 C.ar      1 RES1    0.0000
     28 H10        5.5763    3.8429    7.3648 H         1 RES1    0.0000
     29 C15        9.2971    6.3484    5.7255 C.3       1 RES1    0.0000
     30 H11        9.5173    5.4537    5.3634 H         1 RES1    0.0000
     31 H12       10.0016    6.6261    6.3631 H         1 RES1    0.0000
     32 C16        9.1155    7.4146    4.5624 C.3       1 RES1    0.0000
     33 H13        9.8513    8.0761    4.5838 H         1 RES1    0.0000
     34 H14        9.1188    6.9655    3.6803 H         1 RES1    0.0000
     35 C17        7.7621    8.1094    4.8059 C.3       1 RES1    0.0000
     36 H15        7.8747    8.9364    5.3378 H         1 RES1    0.0000
     37 H16        7.3163    8.3330    3.9494 H         1 RES1    0.0000
     38 C18        7.0118    7.1096    5.5411 C.3       1 RES1    0.0000
     39 H17        6.5434    6.5021    4.9149 H         1 RES1    0.0000
     40 H18        6.3370    7.5445    6.1217 H         1 RES1    0.0000
     41 H19        9.3903    5.5688    5.1221 Du        2 SUP2    0.0000
     42 H20       10.0087    6.3057    6.4122 Du        2 SUP2    0.0000
     43 C19        9.3861    7.6240    4.9533 Du        2 SUP2    0.0000
     44 H21        9.6420    8.3870    5.5300 Du        2 SUP2    0.0000
     45 H22       10.0187    7.5534    4.1951 Du        2 SUP2    0.0000
     46 C20        7.9722    7.7249    4.4898 Du        2 SUP2    0.0000
     47 H23        7.8688    7.2514    3.6290 Du        2 SUP2    0.0000
     48 H24        7.7381    8.6783    4.3467 Du        2 SUP2    0.0000
     49 H25        6.5494    7.8068    6.0704 Du        2 SUP2    0.0000
     50 H26        6.3418    6.5140    5.1221 Du        2 SUP2    0.0000
@<TRIPOS>BOND
     1    1    4 2
     2    2    4 2
     3    3    5 1
     4    4   13 1
     5    5    6 2
     6    6    7 1
     7    8    6 1
     8    9    8 ar
     9   10    9 1
    10   11    9 ar
    11   12   11 1
    12   13   11 ar
    13   14   13 ar
    14   15   14 1
    15   16    8 ar
    16   17   16 1
    17   18    5 1
    18   19   18 ar
    19   20   19 1
    20   21   19 ar
    21   22   21 1
    22   23   21 ar
    23   24   23 1
    24   25   23 ar
    25   26   25 1
    26   27   18 ar
    27   28   27 1
    28   29    3 1
    29   30   29 1
    30   31   29 1
    31   32   29 1
    32   33   32 1
    33   34   32 1
    34   35   32 1
    35   36   35 1
    36   37   35 1
    37   38    3 1
    38   39   38 1
    39   40   38 1
    40   14   16 ar
    41   25   27 ar
    42   35   38 1
@<TRIPOS>SUBSTRUCTURE
     1 RES1 1
     2 SUP2 41

@<TRIPOS>CRYSIN
  11.7839    5.9331   21.5761  90.0000  98.1210  90.0000  13 1

