# MOL2 file generated by ConQuest
# Please check atom types

@<TRIPOS>MOLECULE
HEXBIV
    27    28     1
SMALL
USER_CHARGES
****
Generated from CSD

@<TRIPOS>ATOM
      1 O1         2.5185    9.7415    3.7990 O.2       1 RES1    1.0000
      2 O2         2.3191    7.6577    1.6593 O.3       1 RES1    0.0000
      3 O3         3.3937    6.9140    4.1956 O.3       1 RES1    0.0000
      4 O4         6.0390   11.3254   -1.0806 O.2       1 RES1   -1.0000
      5 O5         5.4123    9.3811   -1.7547 O.2       1 RES1   -1.0000
      6 N1         5.4005   10.2958   -0.9279 N.pl3     1 RES1    1.0000
      7 C1         3.1448    9.7594    2.5896 C.2       1 RES1    0.0000
      8 C2         3.1044    8.7821    1.5757 C.2       1 RES1    0.0000
      9 C3         3.8461    8.9869    0.4364 C.2       1 RES1    0.0000
     10 C4         4.6048   10.1313    0.2791 C.2       1 RES1    0.0000
     11 C5         4.6355   11.1111    1.2525 C.2       1 RES1    0.0000
     12 C6         3.9003   10.9176    2.3956 C.2       1 RES1    0.0000
     13 C7         3.0299    6.4192    1.8759 C.3       1 RES1    0.0000
     14 C8         2.8300    5.9632    3.2945 C.3       1 RES1    0.0000
     15 C9         2.4336    7.6239    4.9819 C.3       1 RES1    0.0000
     16 C10        1.6568    8.6590    4.2326 C.3       1 RES1    0.0000
     17 H1         3.8670    8.2155   -0.2901 H         1 RES1    0.0000
     18 H2         5.1404   11.8083    1.1512 H         1 RES1    0.0000
     19 H3         3.8702   11.6073    3.1197 H         1 RES1    0.0000
     20 H4         2.6712    5.8036    1.2461 H         1 RES1    0.0000
     21 H5         4.0061    6.5825    1.5945 H         1 RES1    0.0000
     22 H6         1.8369    5.8413    3.4299 H         1 RES1    0.0000
     23 H7         3.3128    5.0876    3.3770 H         1 RES1    0.0000
     24 H8         1.7970    6.9970    5.2798 H         1 RES1    0.0000
     25 H9         2.9662    8.1402    5.6830 H         1 RES1    0.0000
     26 H10        1.1176    8.2532    3.3715 H         1 RES1    0.0000
     27 H11        1.0703    9.1075    4.8292 H         1 RES1    0.0000
@<TRIPOS>BOND
     1    1    7 2
     2    2    8 1
     3    3   14 1
     4    4    6 1
     5    5    6 1
     6    6   10 2
     7    7    8 1
     8    8    9 2
     9    9   10 1
    10   10   11 1
    11   11   12 2
    12   12    7 1
    13   13    2 1
    14   14   13 1
    15   15    3 1
    16   16    1 1
    17   17    9 1
    18   18   11 1
    19   19   12 1
    20   20   13 1
    21   21   13 1
    22   22   14 1
    23   23   14 1
    24   24   15 1
    25   25   15 1
    26   26   16 1
    27   27   16 1
    28   15   16 1
@<TRIPOS>SUBSTRUCTURE
     1 RES1 1

@<TRIPOS>CRYSIN
   4.3393   12.5620   18.3210  90.0000  95.2540  90.0000  14 1

