# MOL2 file generated by ConQuest
# Please check atom types

@<TRIPOS>MOLECULE
HEXDAS
    39    40     1
SMALL
NO_CHARGES
****
Generated from CSD

@<TRIPOS>ATOM
      1 O1        -0.9557    1.2527    1.5543 O.2       1 RES1    0.0000
      2 O2        -2.4123    2.8094    1.2452 O.2       1 RES1    0.0000
      3 O3         3.6002    7.1541    2.5732 O.2       1 RES1    0.0000
      4 O4         1.6028    1.9872    3.1834 O.3       1 RES1    0.0000
      5 O5         0.0562    3.5842    3.5228 O.2       1 RES1    0.0000
      6 N1        -1.3359    2.2822    1.0059 N.pl3     1 RES1    0.0000
      7 C1        -0.4983    5.2480    0.8976 C.3       1 RES1    0.0000
      8 H1        -0.6647    6.1915    0.6484 H         1 RES1    0.0000
      9 H2        -1.1119    5.0188    1.6400 H         1 RES1    0.0000
     10 C2        -0.8135    4.3548   -0.3008 C.3       1 RES1    0.0000
     11 H3        -1.7836    4.4025   -0.4922 H         1 RES1    0.0000
     12 H4        -0.3313    4.6979   -1.0944 H         1 RES1    0.0000
     13 C3        -0.4234    2.8998   -0.0737 C.3       1 RES1    0.0000
     14 C4         1.0325    2.7923    0.3647 C.3       1 RES1    0.0000
     15 H5         1.6051    2.9976   -0.4165 H         1 RES1    0.0000
     16 H6         1.2085    1.8521    0.6197 H         1 RES1    0.0000
     17 C5         1.4773    3.7034    1.5421 C.3       1 RES1    0.0000
     18 C6         3.0180    3.7356    1.5426 C.3       1 RES1    0.0000
     19 H7         3.3638    2.8374    1.7749 H         1 RES1    0.0000
     20 H8         3.3407    3.9611    0.6342 H         1 RES1    0.0000
     21 C7         3.5585    4.7561    2.5369 C.3       1 RES1    0.0000
     22 H9         3.3177    4.4786    3.4563 H         1 RES1    0.0000
     23 H10        4.5460    4.7846    2.4746 H         1 RES1    0.0000
     24 C8         3.0002    6.1290    2.2664 C.2       1 RES1    0.0000
     25 C9         1.6619    6.1976    1.6616 C.2       1 RES1    0.0000
     26 H11        1.3022    7.0537    1.4614 H         1 RES1    0.0000
     27 C10        0.9197    5.1119    1.3763 C.2       1 RES1    0.0000
     28 C11       -0.6814    2.0497   -1.3213 C.3       1 RES1    0.0000
     29 H12       -0.1243    2.3749   -2.0591 H         1 RES1    0.0000
     30 H13       -1.6265    2.1159   -1.5720 H         1 RES1    0.0000
     31 H14       -0.4585    1.1145   -1.1312 H         1 RES1    0.0000
     32 C12        0.9552    3.1136    2.8610 C.2       1 RES1    0.0000
     33 C13        1.0883    1.2799    4.3464 C.3       1 RES1    0.0000
     34 H15        0.1159    1.1215    4.2485 H         1 RES1    0.0000
     35 H16        1.2389    1.8138    5.1663 H         1 RES1    0.0000
     36 C14        1.8233   -0.0317    4.4362 C.3       1 RES1    0.0000
     37 H17        1.6957   -0.5352    3.6052 H         1 RES1    0.0000
     38 H18        1.4737   -0.5511    5.1900 H         1 RES1    0.0000
     39 H19        2.7789    0.1381    4.5718 H         1 RES1    0.0000
@<TRIPOS>BOND
     1    1    6 2
     2    2    6 2
     3    3   24 2
     4    4   32 1
     5    5   32 2
     6    6   13 1
     7    7    8 1
     8    9    7 1
     9   10    7 1
    10   11   10 1
    11   12   10 1
    12   13   10 1
    13   14   13 1
    14   15   14 1
    15   16   14 1
    16   17   14 1
    17   18   17 1
    18   19   18 1
    19   20   18 1
    20   21   18 1
    21   22   21 1
    22   23   21 1
    23   24   21 1
    24   25   24 1
    25   26   25 1
    26   27    7 1
    27   28   13 1
    28   29   28 1
    29   30   28 1
    30   31   28 1
    31   32   17 1
    32   33    4 1
    33   34   33 1
    34   35   33 1
    35   36   33 1
    36   37   36 1
    37   38   36 1
    38   39   36 1
    39   17   27 1
    40   25   27 2
@<TRIPOS>SUBSTRUCTURE
     1 RES1 1

@<TRIPOS>CRYSIN
   8.5088   25.9725    6.6769  90.0000 110.9665  90.0000  14 1

