# MOL2 file generated by ConQuest
# Please check atom types

@<TRIPOS>MOLECULE
HEXQAD
    27    27     1
SMALL
NO_CHARGES
****
Generated from CSD

@<TRIPOS>ATOM
      1 O1         5.0247    5.9063   -0.7563 O.2       1 RES1    0.0000
      2 O2         2.5568    3.5416    0.0851 O.3       1 RES1    0.0000
      3 H1         1.8443    3.5432    0.4919 H         1 RES1    0.0000
      4 O3         4.9552    3.5479    1.5014 O.3       1 RES1    0.0000
      5 H2         4.5691    2.9279    1.1304 H         1 RES1    0.0000
      6 O4         0.0222    5.5537    6.4762 O.2       1 RES1    0.0000
      7 O5         0.7140    3.5827    6.9511 O.2       1 RES1    0.0000
      8 N1         0.6955    4.5677    6.2372 N.pl3     1 RES1    0.0000
      9 C1         3.7397    4.5461   -2.2151 C.3       1 RES1    0.0000
     10 H3         4.2885    4.9356   -2.8992 H         1 RES1    0.0000
     11 H4         2.8166    4.7314   -2.4003 H         1 RES1    0.0000
     12 H5         3.8783    3.5968   -2.1945 H         1 RES1    0.0000
     13 C2         4.1059    5.1294   -0.8953 C.2       1 RES1    0.0000
     14 C3         3.2382    4.7714    0.3157 C.3       1 RES1    0.0000
     15 H6         2.5706    5.4785    0.4399 H         1 RES1    0.0000
     16 C4         4.0770    4.6698    1.5915 C.3       1 RES1    0.0000
     17 H7         4.6297    5.4766    1.6506 H         1 RES1    0.0000
     18 C5         3.2046    4.6161    2.8340 C.ar      1 RES1    0.0000
     19 C6         3.0962    3.4670    3.6087 C.ar      1 RES1    0.0000
     20 H8         3.5855    2.7096    3.3817 H         1 RES1    0.0000
     21 C7         2.2654    3.4434    4.7126 C.ar      1 RES1    0.0000
     22 H9         2.1869    2.6720    5.2262 H         1 RES1    0.0000
     23 C8         1.5557    4.5743    5.0429 C.ar      1 RES1    0.0000
     24 C9         1.6394    5.7381    4.2959 C.ar      1 RES1    0.0000
     25 H10        1.1469    6.4927    4.5262 H         1 RES1    0.0000
     26 C10        2.4788    5.7428    3.1963 C.ar      1 RES1    0.0000
     27 H11        2.5587    6.5181    2.6888 H         1 RES1    0.0000
@<TRIPOS>BOND
     1    1   13 2
     2    2    3 1
     3    4    5 1
     4    6    8 2
     5    7    8 2
     6    8   23 1
     7    9   10 1
     8   11    9 1
     9   12    9 1
    10   13    9 1
    11   14    2 1
    12   15   14 1
    13   16    4 1
    14   17   16 1
    15   18   16 1
    16   19   18 ar
    17   20   19 1
    18   21   19 ar
    19   22   21 1
    20   23   21 ar
    21   24   23 ar
    22   25   24 1
    23   26   18 ar
    24   27   26 1
    25   13   14 1
    26   14   16 1
    27   24   26 ar
@<TRIPOS>SUBSTRUCTURE
     1 RES1 1

@<TRIPOS>CRYSIN
   4.7314    9.4083   23.6480  90.0000  90.0000  90.0000  19 1

