# MOL2 file generated by ConQuest
# Please check atom types

@<TRIPOS>MOLECULE
HEXQAD01
    27    27     1
SMALL
NO_CHARGES
****
Generated from CSD

@<TRIPOS>ATOM
      1 O1         0.7055    5.7109   18.6331 O.2       1 RES1    0.0000
      2 O2         5.1091    3.4525   10.9594 O.2       1 RES1    0.0000
      3 O3         2.6056    5.7928   11.7953 O.3       1 RES1    0.0000
      4 H1         1.8023    5.6966   12.1974 H         1 RES1    0.0000
      5 O4         4.9902    5.7884   13.2320 O.3       1 RES1    0.0000
      6 H2         4.5689    6.4654   12.8551 H         1 RES1    0.0000
      7 O5        -0.0501    3.7625   18.0831 O.2       1 RES1    0.0000
      8 N1         0.6680    4.7344   17.8904 N.pl3     1 RES1    0.0000
      9 C1         3.7927    4.7888    9.4838 C.3       1 RES1    0.0000
     10 H3         3.8714    5.6966    9.5266 H         1 RES1    0.0000
     11 H4         4.4097    4.4646    8.7987 H         1 RES1    0.0000
     12 H5         2.8509    4.5017    9.3183 H         1 RES1    0.0000
     13 C2         4.1747    4.2266   10.8164 C.2       1 RES1    0.0000
     14 C3         3.2909    4.5664   12.0183 C.3       1 RES1    0.0000
     15 H6         2.6917    3.8070   12.0780 H         1 RES1    0.0000
     16 C4         4.1209    4.6590   13.3024 C.3       1 RES1    0.0000
     17 H7         4.6859    3.8162   13.2999 H         1 RES1    0.0000
     18 C5         3.2352    4.7077   14.5341 C.ar      1 RES1    0.0000
     19 C6         3.1242    5.8531   15.3143 C.ar      1 RES1    0.0000
     20 H8         3.6326    6.6784   15.1116 H         1 RES1    0.0000
     21 C7         2.2709    5.8716   16.4174 C.ar      1 RES1    0.0000
     22 H9         2.2002    6.6506   16.9420 H         1 RES1    0.0000
     23 C8         1.5448    4.7295   16.7051 C.ar      1 RES1    0.0000
     24 C9         1.6277    3.5735   15.9523 C.ar      1 RES1    0.0000
     25 H10        1.1235    2.7788   16.2047 H         1 RES1    0.0000
     26 C10        2.4909    3.5735   14.8618 C.ar      1 RES1    0.0000
     27 H11        2.6402    2.7603   14.3251 H         1 RES1    0.0000
@<TRIPOS>BOND
     1    1    8 2
     2    2   13 2
     3    3    4 1
     4    5    6 1
     5    7    8 2
     6    8   23 1
     7    9   10 1
     8   11    9 1
     9   12    9 1
    10   13    9 1
    11   14    3 1
    12   15   14 1
    13   16    5 1
    14   17   16 1
    15   18   16 1
    16   19   18 ar
    17   20   19 1
    18   21   19 ar
    19   22   21 1
    20   23   21 ar
    21   24   23 ar
    22   25   24 1
    23   26   18 ar
    24   27   26 1
    25   13   14 1
    26   14   16 1
    27   24   26 ar
@<TRIPOS>SUBSTRUCTURE
     1 RES1 1

@<TRIPOS>CRYSIN
   4.6812    9.2627   23.4070  90.0000  90.0000  90.0000  19 1

