# MOL2 file generated by ConQuest
# Please check atom types

@<TRIPOS>MOLECULE
HEXQEG
    43    45     1
SMALL
NO_CHARGES
****
Generated from CSD

@<TRIPOS>ATOM
      1 O1        -1.4289    3.7464    8.0873 O.3       1 RES1    0.0000
      2 O2         1.7719    8.3475    7.2543 O.3       1 RES1    0.0000
      3 O3         0.4621    9.0692    8.9971 O.3       1 RES1    0.0000
      4 N1        -0.9845    2.9678    6.9347 N.3       1 RES1    0.0000
      5 C1        -0.2794    3.9108    8.9531 C.3       1 RES1    0.0000
      6 C2        -0.6075    5.0012    9.9497 C.3       1 RES1    0.0000
      7 C3        -0.5834    6.3902    9.3130 C.3       1 RES1    0.0000
      8 C4         0.7480    6.6961    8.6108 C.3       1 RES1    0.0000
      9 C5         1.0429    5.6492    7.5299 C.3       1 RES1    0.0000
     10 C6         0.8656    4.1719    7.9930 C.3       1 RES1    0.0000
     11 C7         0.4213    3.3934    6.7334 C.3       1 RES1    0.0000
     12 C8         0.5278    4.3811    5.5858 C.3       1 RES1    0.0000
     13 C9         0.2539    5.7290    6.2288 C.3       1 RES1    0.0000
     14 C10       -1.1006    1.5498    7.3084 C.3       1 RES1    0.0000
     15 C11        1.9064    6.7009    9.6351 C.3       1 RES1    0.0000
     16 C12        0.6109    8.0839    7.9930 C.3       1 RES1    0.0000
     17 C13        1.6428    9.4185    6.3345 C.3       1 RES1    0.0000
     18 C14       -0.6491    9.9239    8.8964 C.3       1 RES1    0.0000
     19 H1        -0.1353    3.0875    9.4262 H         1 RES1    0.0000
     20 H2         0.0445    4.9940   10.6531 H         1 RES1    0.0000
     21 H3        -1.4655    4.8247   10.3423 H         1 RES1    0.0000
     22 H4        -0.7539    7.0576    9.9799 H         1 RES1    0.0000
     23 H5        -1.2824    6.4326    8.6574 H         1 RES1    0.0000
     24 H6         1.9646    5.7713    7.2883 H         1 RES1    0.0000
     25 H7         1.6881    3.8262    8.3466 H         1 RES1    0.0000
     26 H8         0.9790    2.6294    6.5748 H         1 RES1    0.0000
     27 H9        -0.1137    4.1719    4.9025 H         1 RES1    0.0000
     28 H10        1.4061    4.3738    5.1982 H         1 RES1    0.0000
     29 H11        0.5522    6.4519    5.6713 H         1 RES1    0.0000
     30 H12       -0.6826    5.8329    6.4150 H         1 RES1    0.0000
     31 H13       -2.0192    1.3153    7.4569 H         1 RES1    0.0000
     32 H14       -0.7441    1.0143    6.5975 H         1 RES1    0.0000
     33 H15       -0.5973    1.3939    8.1112 H         1 RES1    0.0000
     34 H16        2.7360    6.8690    9.1821 H         1 RES1    0.0000
     35 H17        1.7483    7.3936   10.2806 H         1 RES1    0.0000
     36 H18        1.9519    5.8523   10.0805 H         1 RES1    0.0000
     37 H19       -0.1530    8.0924    7.4129 H         1 RES1    0.0000
     38 H20        2.4674    9.5733    5.8689 H         1 RES1    0.0000
     39 H21        0.9595    9.1792    5.7040 H         1 RES1    0.0000
     40 H22        1.3834   10.2188    6.7988 H         1 RES1    0.0000
     41 H23       -0.6346   10.5477    9.6250 H         1 RES1    0.0000
     42 H24       -0.6248   10.4026    8.0647 H         1 RES1    0.0000
     43 H25       -1.4524    9.3992    8.9405 H         1 RES1    0.0000
@<TRIPOS>BOND
     1    1    4 1
     2    2   16 1
     3    3   16 1
     4    4   11 1
     5    5    1 1
     6    6    5 1
     7    7    6 1
     8    8    7 1
     9    9    8 1
    10   10    5 1
    11   11   10 1
    12   12   11 1
    13   13    9 1
    14   14    4 1
    15   15    8 1
    16   16    8 1
    17   17    2 1
    18   18    3 1
    19   19    5 1
    20   20    6 1
    21   21    6 1
    22   22    7 1
    23   23    7 1
    24   24    9 1
    25   25   10 1
    26   26   11 1
    27   27   12 1
    28   28   12 1
    29   29   13 1
    30   30   13 1
    31   31   14 1
    32   32   14 1
    33   33   14 1
    34   34   15 1
    35   35   15 1
    36   36   15 1
    37   37   16 1
    38   38   17 1
    39   39   17 1
    40   40   17 1
    41   41   18 1
    42   42   18 1
    43   43   18 1
    44    9   10 1
    45   12   13 1
@<TRIPOS>SUBSTRUCTURE
     1 RES1 1

@<TRIPOS>CRYSIN
   9.3970   12.0890   13.0520  90.0000 105.4000  90.0000  14 1

