# MOL2 file generated by ConQuest
# Please check atom types

@<TRIPOS>MOLECULE
HEXTIN01
    36    27     2
SMALL
NO_CHARGES
****
Generated from CSD

@<TRIPOS>ATOM
      1 O1         3.7811    7.3281    2.0193 O.2       1 RES1    0.0000
      2 O2         4.1223    5.3683    1.2182 O.2       1 RES1    0.0000
      3 O3         2.1801    6.0211    7.2193 O.2       1 RES1    0.0000
      4 O4         2.8353    3.9860    7.0785 O.2       1 RES1    0.0000
      5 O5        -0.7697    2.7049    2.8939 O.2       1 RES1    0.0000
      6 O6        -1.5558    4.6657    2.6323 O.2       1 RES1    0.0000
      7 N1         3.5883    6.1331    1.9866 N.pl3     1 RES1    0.0000
      8 N2         2.3852    5.0015    6.6017 N.pl3     1 RES1    0.0000
      9 N3        -0.6752    3.8999    2.9396 N.pl3     1 RES1    0.0000
     10 C1         1.4473    5.0287    2.4513 C.ar      1 RES1    0.0000
     11 C2         2.6251    5.5664    2.9548 C.ar      1 RES1    0.0000
     12 C3         2.9857    5.5943    4.3063 C.ar      1 RES1    0.0000
     13 C4         2.0566    5.0048    5.1543 C.ar      1 RES1    0.0000
     14 C5         0.8541    4.4291    4.7763 C.ar      1 RES1    0.0000
     15 C6         0.6053    4.4735    3.4066 C.ar      1 RES1    0.0000
     16 C7         1.1017    5.0552    0.9857 C.3       1 RES1    0.0000
     17 H1         0.2492    4.6364    0.8503 H         1 RES1    0.0000
     18 H2         1.7732    4.5819    0.4898 H         1 RES1    0.0000
     19 H3         1.0624    5.9659    0.6822 H         1 RES1    0.0000
     20 H4         1.8075    5.4863    0.4982 Du        2 SUP2    0.0000
     21 H5         0.2835    5.5408    0.8587 Du        2 SUP2    0.0000
     22 H6         0.9938    4.1571    0.6655 Du        2 SUP2    0.0000
     23 C8         4.2785    6.1731    4.7908 C.3       1 RES1    0.0000
     24 H7         4.7705    6.5262    4.0454 H         1 RES1    0.0000
     25 H8         4.7956    5.4872    5.2197 H         1 RES1    0.0000
     26 H9         4.0989    6.8778    5.4175 H         1 RES1    0.0000
     27 H10        4.3397    6.0686    5.7430 Du        2 SUP2    0.0000
     28 H11        4.3147    7.1066    4.5687 Du        2 SUP2    0.0000
     29 H12        5.0106    5.7160    4.3709 Du        2 SUP2    0.0000
     30 C9        -0.1168    3.8427    5.7651 C.3       1 RES1    0.0000
     31 H13       -0.8817    3.4998    5.2973 H         1 RES1    0.0000
     32 H14       -0.3970    4.5240    6.3804 H         1 RES1    0.0000
     33 H15        0.3086    3.1304    6.2480 H         1 RES1    0.0000
     34 H16        0.2348    3.9368    6.6534 Du        2 SUP2    0.0000
     35 H17       -0.2498    2.9118    5.5704 Du        2 SUP2    0.0000
     36 H18       -0.9562    4.3053    5.7027 Du        2 SUP2    0.0000
@<TRIPOS>BOND
     1    1    7 2
     2    2    7 2
     3    3    8 2
     4    4    8 2
     5    5    9 2
     6    6    9 2
     7    7   11 1
     8    8   13 1
     9    9   15 1
    10   10   11 ar
    11   11   12 ar
    12   12   13 ar
    13   13   14 ar
    14   14   15 ar
    15   15   10 ar
    16   16   10 1
    17   17   16 1
    18   18   16 1
    19   19   16 1
    20   23   12 1
    21   24   23 1
    22   25   23 1
    23   26   23 1
    24   30   14 1
    25   31   30 1
    26   32   30 1
    27   33   30 1
@<TRIPOS>SUBSTRUCTURE
     1 RES1 1
     2 SUP2 20

@<TRIPOS>CRYSIN
   8.2730    8.7980    8.9400 108.0700 113.2500  95.1500   2 1

