# MOL2 file generated by ConQuest
# Please check atom types

@<TRIPOS>MOLECULE
HEXXUE
    36    37     1
SMALL
NO_CHARGES
****
Generated from CSD

@<TRIPOS>ATOM
      1 O1         4.0421   -1.4650    1.6952 O.3       1 RES1    0.0000
      2 O2         3.5311   -0.9255    6.4389 O.2       1 RES1    0.0000
      3 O3         3.5473    1.5520    3.1003 O.3       1 RES1    0.0000
      4 O4         3.3470    3.9419    2.3010 O.2       1 RES1    0.0000
      5 O5         3.1297    5.5565    3.6863 O.2       1 RES1    0.0000
      6 N1         3.6719   -0.8674    4.1857 N.am      1 RES1    0.0000
      7 N2         3.2373    4.3704    3.4601 N.pl3     1 RES1    0.0000
      8 C1         4.0160   -2.5440    2.5275 C.ar      1 RES1    0.0000
      9 C2         4.1678   -3.8593    2.1415 C.ar      1 RES1    0.0000
     10 H1         4.2890   -4.0648    1.2432 H         1 RES1    0.0000
     11 C3         4.1420   -4.8694    3.0783 C.ar      1 RES1    0.0000
     12 H2         4.2478   -5.7539    2.8113 H         1 RES1    0.0000
     13 C4         3.9592   -4.5718    4.4019 C.ar      1 RES1    0.0000
     14 H3         3.9459   -5.2551    5.0331 H         1 RES1    0.0000
     15 C5         3.7935   -3.2557    4.8063 C.ar      1 RES1    0.0000
     16 H4         3.6616   -3.0625    5.7054 H         1 RES1    0.0000
     17 C6         3.8245   -2.2307    3.8794 C.ar      1 RES1    0.0000
     18 C7         3.5328   -0.2920    5.3999 C.2       1 RES1    0.0000
     19 C8         3.3690    1.2014    5.4393 C.ar      1 RES1    0.0000
     20 C9         3.1931    1.7577    6.6995 C.ar      1 RES1    0.0000
     21 H5         3.1653    1.1855    7.4325 H         1 RES1    0.0000
     22 C10        3.0576    3.1181    6.9227 C.ar      1 RES1    0.0000
     23 C11        3.0846    3.9528    5.8318 C.ar      1 RES1    0.0000
     24 H6         2.9988    4.8720    5.9499 H         1 RES1    0.0000
     25 C12        3.2374    3.4376    4.5668 C.ar      1 RES1    0.0000
     26 C13        3.3903    2.0623    4.3307 C.ar      1 RES1    0.0000
     27 C14        4.2436   -1.6847    0.3098 C.3       1 RES1    0.0000
     28 H7         5.0168   -2.2408    0.1825 H         1 RES1    0.0000
     29 H8         4.3784   -0.8433   -0.1314 H         1 RES1    0.0000
     30 H9         3.4732   -2.1204   -0.0611 H         1 RES1    0.0000
     31 C15        2.8846    3.6675    8.3132 C.3       1 RES1    0.0000
     32 H10        3.6345    4.2239    8.5326 H         1 RES1    0.0000
     33 H11        2.8310    2.9420    8.9394 H         1 RES1    0.0000
     34 H12        2.0778    4.1853    8.3542 H         1 RES1    0.0000
     35 H13        3.6823   -0.3229    3.4910 H         1 RES1    0.0000
     36 H14        3.4797    2.2336    2.5869 H         1 RES1    0.0000
@<TRIPOS>BOND
     1    1    8 1
     2    2   18 2
     3    3   26 1
     4    4    7 2
     5    5    7 2
     6    6   17 1
     7    7   25 1
     8    8    9 ar
     9    9   10 1
    10   11    9 ar
    11   12   11 1
    12   13   11 ar
    13   14   13 1
    14   15   13 ar
    15   16   15 1
    16   17    8 ar
    17   18    6 1
    18   19   18 1
    19   20   19 ar
    20   21   20 1
    21   22   20 ar
    22   23   22 ar
    23   24   23 1
    24   25   23 ar
    25   26   19 ar
    26   27    1 1
    27   28   27 1
    28   29   27 1
    29   30   27 1
    30   31   22 1
    31   32   31 1
    32   33   31 1
    33   34   31 1
    34   35    6 1
    35   36    3 1
    36   15   17 ar
    37   25   26 ar
@<TRIPOS>SUBSTRUCTURE
     1 RES1 1

@<TRIPOS>CRYSIN
   6.9220   24.0950    8.9581  90.0000 110.8440  90.0000 231 1

