# MOL2 file generated by ConQuest
# Please check atom types

@<TRIPOS>MOLECULE
HEYHEY
    46    49     1
SMALL
NO_CHARGES
****
Generated from CSD

@<TRIPOS>ATOM
      1 C1         1.1795   -0.0263    3.4718 C.ar      1 RES1    0.0000
      2 C2         2.3663   -0.0739    2.7916 C.ar      1 RES1    0.0000
      3 C3         2.5049    0.4611    1.5152 C.ar      1 RES1    0.0000
      4 C4         1.4534    1.0510    0.9149 C.ar      1 RES1    0.0000
      5 C5         0.1961    1.1196    1.5531 C.ar      1 RES1    0.0000
      6 C6        -0.8995    1.7102    0.8909 C.ar      1 RES1    0.0000
      7 C7        -2.1192    1.7690    1.4682 C.ar      1 RES1    0.0000
      8 C8        -2.2991    1.2333    2.7417 C.ar      1 RES1    0.0000
      9 C9        -1.2869    0.6387    3.4239 C.ar      1 RES1    0.0000
     10 C10        0.0252    0.5608    2.8635 C.ar      1 RES1    0.0000
     11 N1         1.1273   -0.5886    4.7777 N.3       1 RES1    0.0000
     12 N2        -1.6175    0.0516    4.6844 N.3       1 RES1    0.0000
     13 C11        1.7854   -0.1143    5.8599 C.ar      1 RES1    0.0000
     14 C12        1.6753   -0.6624    7.1594 C.ar      1 RES1    0.0000
     15 C13        2.3416   -0.0909    8.2491 C.ar      1 RES1    0.0000
     16 C14        3.1150    1.0078    8.0972 C.ar      1 RES1    0.0000
     17 C15        3.2617    1.5604    6.8348 C.ar      1 RES1    0.0000
     18 C16        2.6290    1.0219    5.7551 C.ar      1 RES1    0.0000
     19 C17       -1.4116    0.6613    5.8799 C.ar      1 RES1    0.0000
     20 C18       -1.8031    0.1149    7.1174 C.ar      1 RES1    0.0000
     21 C19       -1.4998    0.7579    8.3200 C.ar      1 RES1    0.0000
     22 C20       -0.8253    1.9339    8.3270 C.ar      1 RES1    0.0000
     23 C21       -0.4398    2.4964    7.1254 C.ar      1 RES1    0.0000
     24 C22       -0.7266    1.8892    5.9408 C.ar      1 RES1    0.0000
     25 N3         0.8366   -1.7906    7.4430 N.pl3     1 RES1    0.0000
     26 O1         0.2141   -2.3279    6.5220 O.2       1 RES1    0.0000
     27 O2         0.7477   -2.2020    8.5947 O.2       1 RES1    0.0000
     28 N4        -2.5286   -1.1267    7.1973 N.pl3     1 RES1    0.0000
     29 O3        -2.9110   -1.6694    6.1705 O.2       1 RES1    0.0000
     30 O4        -2.7443   -1.6094    8.2962 O.2       1 RES1    0.0000
     31 H1         0.5931   -1.2308    4.8941 H         1 RES1    0.0000
     32 H2        -2.1201   -0.6185    4.6544 H         1 RES1    0.0000
     33 H3         3.0782   -0.4883    3.2161 H         1 RES1    0.0000
     34 H4         3.3571    0.4521    1.0987 H         1 RES1    0.0000
     35 H5         1.5242    1.4332    0.0599 H         1 RES1    0.0000
     36 H6        -0.7467    2.0375    0.0000 H         1 RES1    0.0000
     37 H7        -2.8157    2.1511    1.0188 H         1 RES1    0.0000
     38 H8        -3.1487    1.2328    3.1362 H         1 RES1    0.0000
     39 H9         2.2333   -0.5125    9.0890 H         1 RES1    0.0000
     40 H10        3.5534    1.4033    8.8793 H         1 RES1    0.0000
     41 H11        3.7852    2.3390    6.7019 H         1 RES1    0.0000
     42 H12        2.7359    1.3920    4.8741 H         1 RES1    0.0000
     43 H13       -1.8078    0.3354    9.0990 H         1 RES1    0.0000
     44 H14       -0.6282    2.3460    9.1090 H         1 RES1    0.0000
     45 H15        0.0155    3.2975    7.1314 H         1 RES1    0.0000
     46 H16       -0.4373    2.2715    5.1438 H         1 RES1    0.0000
@<TRIPOS>BOND
     1    1    2 ar
     2    2    3 ar
     3    3    4 ar
     4    4    5 ar
     5    5    6 ar
     6    6    7 ar
     7    7    8 ar
     8    8    9 ar
     9    9   10 ar
    10   10    1 ar
    11   11    1 1
    12   12    9 1
    13   13   11 1
    14   14   13 ar
    15   15   14 ar
    16   16   15 ar
    17   17   16 ar
    18   18   13 ar
    19   19   12 1
    20   20   19 ar
    21   21   20 ar
    22   22   21 ar
    23   23   22 ar
    24   24   19 ar
    25   25   14 1
    26   26   25 2
    27   27   25 2
    28   28   20 1
    29   29   28 2
    30   30   28 2
    31   31   11 1
    32   32   12 1
    33   33    2 1
    34   34    3 1
    35   35    4 1
    36   36    6 1
    37   37    7 1
    38   38    8 1
    39   39   15 1
    40   40   16 1
    41   41   17 1
    42   42   18 1
    43   43   21 1
    44   44   22 1
    45   45   23 1
    46   46   24 1
    47    5   10 ar
    48   17   18 ar
    49   23   24 ar
@<TRIPOS>SUBSTRUCTURE
     1 RES1 1

@<TRIPOS>CRYSIN
   8.2250   11.3410   11.5310 109.9400 106.4400 102.4700   2 1

