# MOL2 file generated by ConQuest
# Please check atom types

@<TRIPOS>MOLECULE
HEYJIH
    25    26     1
SMALL
NO_CHARGES
****
Generated from CSD

@<TRIPOS>ATOM
      1 C1         6.3448    3.9465    6.5145 C.2       1 RES1    0.0000
      2 C2         6.7918    4.0921    7.8012 C.2       1 RES1    0.0000
      3 H1         6.5456    4.7775    8.4112 H         1 RES1    0.0000
      4 C3         7.6902    3.0266    8.0486 C.2       1 RES1    0.0000
      5 H2         8.1676    2.8460    8.8498 H         1 RES1    0.0000
      6 C4         7.7204    2.3212    6.8929 C.2       1 RES1    0.0000
      7 C5         5.4383    4.6909    5.6716 C.2       1 RES1    0.0000
      8 H3         5.3380    4.4515    4.7578 H         1 RES1    0.0000
      9 C6         3.8999    6.4426    5.3350 C.ar      1 RES1    0.0000
     10 C7         3.1706    7.4450    5.9808 C.ar      1 RES1    0.0000
     11 H4         3.2799    7.5683    6.9165 H         1 RES1    0.0000
     12 C8         2.2913    8.2638    5.2884 C.ar      1 RES1    0.0000
     13 H5         1.7960    8.9318    5.7477 H         1 RES1    0.0000
     14 C9         2.1403    8.0983    3.9119 C.ar      1 RES1    0.0000
     15 C10        2.8624    7.1029    3.2540 C.ar      1 RES1    0.0000
     16 H6         2.7597    6.9887    2.3165 H         1 RES1    0.0000
     17 C11        3.7280    6.2790    3.9547 C.ar      1 RES1    0.0000
     18 H7         4.2078    5.5991    3.4963 H         1 RES1    0.0000
     19 N1         8.4826    1.1691    6.5455 N.pl3     1 RES1    0.0000
     20 N2         4.7677    5.6740    6.1514 N.2       1 RES1    0.0000
     21 O1         9.0520    0.5935    7.4789 O.2       1 RES1    0.0000
     22 O2         8.5386    0.8267    5.3709 O.2       1 RES1    0.0000
     23 O3         6.9365    2.8505    5.9295 O.3       1 RES1    0.0000
     24 O4         1.2835    8.9292    3.2604 O.3       1 RES1    0.0000
     25 H8         1.4495    8.8754    2.3947 H         1 RES1    0.0000
@<TRIPOS>BOND
     1    1    2 2
     2    2    3 1
     3    4    2 1
     4    5    4 1
     5    6    4 2
     6    7    1 1
     7    8    7 1
     8    9   10 ar
     9   10   11 1
    10   12   10 ar
    11   13   12 1
    12   14   12 ar
    13   15   14 ar
    14   16   15 1
    15   17    9 ar
    16   18   17 1
    17   19    6 1
    18   20    7 2
    19   21   19 2
    20   22   19 2
    21   23    1 1
    22   24   14 1
    23   25   24 1
    24    6   23 1
    25    9   20 1
    26   15   17 ar
@<TRIPOS>SUBSTRUCTURE
     1 RES1 1

@<TRIPOS>CRYSIN
   8.9143    9.9006   11.7516  90.0000 104.5550  90.0000 231 1

