# MOL2 file generated by ConQuest
# Please check atom types

@<TRIPOS>MOLECULE
HEYQOS
    44    45     1
SMALL
NO_CHARGES
****
Generated from CSD

@<TRIPOS>ATOM
      1 C1         0.0187    1.2651    4.8737 C.ar      1 RES1    0.0000
      2 C2         1.6461    0.1792    5.8959 C.ar      1 RES1    0.0000
      3 C3         2.0078    2.2175    5.1265 C.ar      1 RES1    0.0000
      4 C4        -1.7599    2.4738    3.8964 C.3       1 RES1    0.0000
      5 C5         2.1541   -1.0130    6.7051 C.3       1 RES1    0.0000
      6 C6         2.8959   -0.5742    7.9606 C.3       1 RES1    0.0000
      7 C7         3.2388   -1.6294    8.9999 C.3       1 RES1    0.0000
      8 C8         3.8363   -0.9670   10.2216 C.2       1 RES1    0.0000
      9 C9         4.8828   -1.3468   12.3957 C.3       1 RES1    0.0000
     10 C10        6.3460   -1.4817   12.5219 C.2       1 RES1    0.0000
     11 C11        7.3774   -0.6336   12.5249 C.2       1 RES1    0.0000
     12 C12        8.5476   -1.3770   12.7565 C.2       1 RES1    0.0000
     13 C13        8.1939   -2.6205   12.8731 C.2       1 RES1    0.0000
     14 C14        2.3603    4.4281    4.3705 C.3       1 RES1    0.0000
     15 N1         0.3961    0.1288    5.4777 N.ar      1 RES1    0.0000
     16 N2         2.5268    1.1536    5.7517 N.ar      1 RES1    0.0000
     17 N3         0.7643    2.3404    4.6821 N.ar      1 RES1    0.0000
     18 N4         4.3432   -1.8087   11.1192 N.am      1 RES1    0.0000
     19 N5         3.0023   -1.8835    5.7736 N.pl3     1 RES1    0.0000
     20 N6         0.9565   -1.8804    7.0639 N.pl3     1 RES1    0.0000
     21 O1         3.8474    0.2463   10.3666 O.2       1 RES1    0.0000
     22 O2        -1.2378    1.2530    4.4594 O.3       1 RES1    0.0000
     23 O3         6.8325   -2.7395   12.7358 O.3       1 RES1    0.0000
     24 O4         2.8269   -1.7703    4.5835 O.2       1 RES1    0.0000
     25 O5         3.7622   -2.6578    6.2819 O.2       1 RES1    0.0000
     26 O6         0.7621   -2.8944    6.4292 O.2       1 RES1    0.0000
     27 O7         0.2658   -1.4729    7.9646 O.2       1 RES1    0.0000
     28 O8         2.8516    3.2237    4.9966 O.3       1 RES1    0.0000
     29 H1        -2.6743    2.3472    3.6331 H         1 RES1    0.0000
     30 H2        -1.2356    2.7119    3.1282 H         1 RES1    0.0000
     31 H3        -1.7089    3.1762    4.5487 H         1 RES1    0.0000
     32 H4         3.8720   -2.2509    8.6333 H         1 RES1    0.0000
     33 H5         2.4413   -2.0987    9.2560 H         1 RES1    0.0000
     34 H6         4.6671   -0.4184   12.5095 H         1 RES1    0.0000
     35 H7         4.4923   -1.8560   13.1097 H         1 RES1    0.0000
     36 H8         3.0680    5.0757    4.3323 H         1 RES1    0.0000
     37 H9         1.6323    4.7797    4.8883 H         1 RES1    0.0000
     38 H10        2.0559    4.2338    3.4810 H         1 RES1    0.0000
     39 H11        2.2406    0.1029    8.4288 H         1 RES1    0.0000
     40 H12        3.7296   -0.1207    7.6236 H         1 RES1    0.0000
     41 H13        4.2079   -2.7767   10.9960 H         1 RES1    0.0000
     42 H14        8.7208   -3.5199   13.0480 H         1 RES1    0.0000
     43 H15        9.5458   -0.9738   12.7954 H         1 RES1    0.0000
     44 H16        7.2240    0.3744   12.2742 H         1 RES1    0.0000
@<TRIPOS>BOND
     1    1   15 ar
     2    2    5 1
     3    3   16 ar
     4    4   22 1
     5    5    6 1
     6    6    7 1
     7    7    8 1
     8    8   18 1
     9    9   10 1
    10   10   11 2
    11   11   12 1
    12   12   13 2
    13   13   23 1
    14   14   28 1
    15   15    2 ar
    16   16    2 ar
    17   17    1 ar
    18   18    9 1
    19   19    5 1
    20   20    5 1
    21   21    8 2
    22   22    1 1
    23   23   10 1
    24   24   19 2
    25   25   19 2
    26   26   20 2
    27   27   20 2
    28   28    3 1
    29   29    4 1
    30   30    4 1
    31   31    4 1
    32   32    7 1
    33   33    7 1
    34   34    9 1
    35   35    9 1
    36   36   14 1
    37   37   14 1
    38   38   14 1
    39   39    6 1
    40   40    6 1
    41   41   18 1
    42   42   13 1
    43   43   12 1
    44   44   11 1
    45    3   17 ar
@<TRIPOS>SUBSTRUCTURE
     1 RES1 1

@<TRIPOS>CRYSIN
  13.1600    9.6820   14.4810  90.0000 105.4800  90.0000  14 1

