# MOL2 file generated by ConQuest
# Please check atom types

@<TRIPOS>MOLECULE
HEYQUY
    53    50     3
SMALL
NO_CHARGES
****
Generated from CSD

@<TRIPOS>ATOM
      1 N1         2.0748    6.7039    1.9132 N.2       1 RES1    0.0000
      2 N2         2.4557    4.5313    2.8836 N.pl3     1 RES1    0.0000
      3 N3         3.2990    4.0685    3.8654 N.2       1 RES1    0.0000
      4 N4         4.0308    5.0276    4.3439 N.2       1 RES1    0.0000
      5 N5         3.6494    6.1458    3.6205 N.am      1 RES1    0.0000
      6 N6         2.0037    8.6791   -0.2322 N.pl3     1 RES1    0.0000
      7 N7         0.4076    9.1492    1.5996 N.pl3     1 RES1    0.0000
      8 N8         2.6231   10.3593    1.4704 N.pl3     1 RES1    0.0000
      9 N9         3.5714    8.3566    2.9374 N.2       1 RES1    0.0000
     10 O1         5.1877    7.6709    4.4946 O.2       1 RES1    0.0000
     11 O2         0.0468    8.7727    2.6359 O.2       1 RES1    0.0000
     12 O3         0.1814   10.4824    1.3728 Du        3 SUP3    0.0000
     13 O4        -0.3708    9.5052    0.7550 O.2       1 RES1    0.0000
     14 O5         2.9522    7.9381   -0.5289 Du        3 SUP3    0.0000
     15 O6         2.4349    7.7738   -0.6474 O.2       1 RES1    0.0000
     16 O7         1.9048    9.8309   -0.9145 O.2       1 RES1    0.0000
     17 O8         0.8558    8.5954   -0.7611 Du        3 SUP3    0.0000
     18 O9         3.6209   10.6218    1.2079 Du        3 SUP3    0.0000
     19 O10        3.5870   10.5690    0.5774 O.2       1 RES1    0.0000
     20 O11        1.7763   11.1207    2.1945 Du        3 SUP3    0.0000
     21 O12        2.3147   11.0194    2.3843 O.2       1 RES1    0.0000
     22 C1         4.2382    7.4551    3.7302 C.2       1 RES1    0.0000
     23 C2         2.6133    7.9259    2.1171 C.2       1 RES1    0.0000
     24 C3         2.6678    5.8451    2.7416 C.2       1 RES1    0.0000
     25 C4         1.4857    3.6528    2.1689 C.3       1 RES1    0.0000
     26 C5         1.9502    8.9997    1.2604 C.3       1 RES1    0.0000
     27 N10        7.9338    5.7138    5.5094 N.2       2 RES2    0.0000
     28 N11        6.0899    4.6142    6.7261 N.pl3     2 RES2    0.0000
     29 N12        5.1144    5.0347    7.5855 N.2       2 RES2    0.0000
     30 N13        5.2640    6.2891    7.7975 N.2       2 RES2    0.0000
     31 N14        6.3593    6.6921    7.0229 N.am      2 RES2    0.0000
     32 N15       10.7351    6.1465    4.8096 N.pl3     2 RES2    0.0000
     33 N16        9.2008    6.9345    2.9966 N.pl3     2 RES2    0.0000
     34 N17       10.1762    8.5522    4.5182 N.pl3     2 RES2    0.0000
     35 N18        8.0018    8.0669    6.0350 N.2       2 RES2    0.0000
     36 O13        6.4592    8.9068    7.5525 O.2       2 RES2    0.0000
     37 O14       11.2228    5.4686    3.9442 O.2       2 RES2    0.0000
     38 O15       11.0287    6.0996    5.9704 O.2       2 RES2    0.0000
     39 O16       10.0789    7.2514    2.1891 O.2       2 RES2    0.0000
     40 O17        8.0766    6.4972    2.7948 O.2       2 RES2    0.0000
     41 O18        9.5370    9.3752    3.8883 O.2       2 RES2    0.0000
     42 O19       11.1647    8.7703    5.2120 O.2       2 RES2    0.0000
     43 C6         6.9155    8.0238    6.9341 C.2       2 RES2    0.0000
     44 C7         8.3842    6.9792    5.4314 C.2       2 RES2    0.0000
     45 C8         6.8746    5.6578    6.3392 C.2       2 RES2    0.0000
     46 C9         6.1603    3.2347    6.2490 C.3       2 RES2    0.0000
     47 C10        9.5986    7.1437    4.4778 C.3       2 RES2    0.0000
     48 H1         0.7629    4.0101    1.6373 H         1 RES1    0.0000
     49 H2         2.1088    2.9860    1.8156 H         1 RES1    0.0000
     50 H3         1.3351    2.8451    2.8647 H         1 RES1    0.0000
     51 H4         7.0176    3.0065    5.7443 H         2 RES2    0.0000
     52 H5         6.1629    2.7013    7.0155 H         2 RES2    0.0000
     53 H6         5.4673    2.9713    5.8775 H         2 RES2    0.0000
@<TRIPOS>BOND
     1    1   23 1
     2    2    3 1
     3    3    4 2
     4    4    5 1
     5    5   22 1
     6    6   15 2
     7    7   11 2
     8    8   19 2
     9    9   22 1
    10   10   22 2
    11   13    7 2
    12   16    6 2
    13   21    8 2
    14   23    9 2
    15   24    1 2
    16   25    2 1
    17   26    6 1
    18   27   44 1
    19   28   29 1
    20   29   30 2
    21   30   31 1
    22   31   43 1
    23   32   37 2
    24   33   39 2
    25   34   41 2
    26   35   43 1
    27   36   43 2
    28   38   32 2
    29   40   33 2
    30   42   34 2
    31   44   35 2
    32   45   27 2
    33   46   28 1
    34   47   32 1
    35   48   25 1
    36   49   25 1
    37   50   25 1
    38   51   46 1
    39   52   46 1
    40   53   46 1
    41    2   24 1
    42    5   24 1
    43    7   26 1
    44    8   26 1
    45   23   26 1
    46   28   45 1
    47   31   45 1
    48   33   47 1
    49   34   47 1
    50   44   47 1
@<TRIPOS>SUBSTRUCTURE
     1 RES1 1
     2 RES2 27
     3 SUP3 12

@<TRIPOS>CRYSIN
  24.4660   14.6730    6.7300  90.0000  90.7000  90.0000 231 1

