# MOL2 file generated by ConQuest
# Please check atom types

@<TRIPOS>MOLECULE
HEZQOT
    74    80     2
SMALL
NO_CHARGES
****
Generated from CSD

@<TRIPOS>ATOM
      1 N1         2.6860   -6.5690    1.9664 N.pl3     1 RES1    0.0000
      2 H1         3.1614   -7.2890    1.9443 H         1 RES1    0.0000
      3 C1         3.1475   -5.2757    2.0791 C.2       1 RES1    0.0000
      4 H2         4.0904   -5.1229    2.1248 H         1 RES1    0.0000
      5 C2         2.1176   -4.3975    2.1039 C.2       1 RES1    0.0000
      6 C3        -0.4354   -4.8876    1.9747 C.ar      1 RES1    0.0000
      7 H3        -0.7807   -3.9840    1.9870 H         1 RES1    0.0000
      8 C4        -1.3222   -5.9455    1.8755 C.ar      1 RES1    0.0000
      9 C5        -0.9272   -7.2880    1.8144 C.ar      1 RES1    0.0000
     10 H4        -1.6342   -7.9442    1.7525 H         1 RES1    0.0000
     11 C6         0.4054   -7.5990    1.8352 C.ar      1 RES1    0.0000
     12 H5         0.7096   -8.4983    1.7994 H         1 RES1    0.0000
     13 C7         0.9213   -5.1907    1.9993 C.ar      1 RES1    0.0000
     14 C8         1.3215   -6.5511    1.9219 C.ar      1 RES1    0.0000
     15 C9         2.2116   -2.9082    2.2626 C.3       1 RES1    0.0000
     16 H6         1.6136   -2.6193    3.0373 H         1 RES1    0.0000
     17 H7         3.1033   -2.6644    2.5370 H         1 RES1    0.0000
     18 N2        -2.7432   -5.6488    1.8220 N.pl3     1 RES1    0.0000
     19 O1        -3.5410   -6.5855    1.7077 O.2       1 RES1    0.0000
     20 O2        -3.1195   -4.4749    1.8967 O.2       1 RES1    0.0000
     21 N3         1.2298   -1.4480   -1.0085 N.pl3     1 RES1    0.0000
     22 H8         0.8868   -1.5389   -1.8050 H         1 RES1    0.0000
     23 C10        1.3780   -2.5200   -0.1448 C.2       1 RES1    0.0000
     24 H9         1.1576   -3.4246   -0.4349 H         1 RES1    0.0000
     25 C11        1.8645   -2.0981    1.0472 C.2       1 RES1    0.0000
     26 C12        2.5132    0.3043    1.7998 C.ar      1 RES1    0.0000
     27 H10        2.8048    0.1037    2.6663 H         1 RES1    0.0000
     28 C13        2.5836    1.5947    1.3121 C.ar      1 RES1    0.0000
     29 C14        2.1981    1.9585    0.0153 C.ar      1 RES1    0.0000
     30 H11        2.2765    2.8638   -0.2658 H         1 RES1    0.0000
     31 C15        1.7094    1.0046   -0.8413 C.ar      1 RES1    0.0000
     32 H12        1.4464    1.2425   -1.7269 H         1 RES1    0.0000
     33 C16        2.0322   -0.6761    0.9319 C.ar      1 RES1    0.0000
     34 C17        1.6262   -0.3104   -0.3774 C.ar      1 RES1    0.0000
     35 N4         3.1197    2.6331    2.1834 N.pl3     1 RES1    0.0000
     36 O3         3.2615    3.7729    1.7282 O.2       1 RES1    0.0000
     37 O4         3.4419    2.3389    3.3339 O.2       1 RES1    0.0000
     38 N5         9.6733    1.4052    1.5826 N.pl3     2 RES2    0.0000
     39 H13       10.5265    1.2106    1.5734 H         2 RES2    0.0000
     40 C18        8.6566    0.4769    1.6793 C.2       2 RES2    0.0000
     41 H14        8.8925   -0.4678    1.7013 H         2 RES2    0.0000
     42 C19        7.4504    1.1019    1.7445 C.2       2 RES2    0.0000
     43 C20        6.9365    3.6587    1.7186 C.ar      2 RES2    0.0000
     44 H15        5.9768    3.6199    1.7724 H         2 RES2    0.0000
     45 C21        7.5847    4.8792    1.6680 C.ar      2 RES2    0.0000
     46 C22        8.9725    5.0219    1.5775 C.ar      2 RES2    0.0000
     47 H16        9.3565    5.9349    1.5648 H         2 RES2    0.0000
     48 C23        9.7679    3.9039    1.5229 C.ar      2 RES2    0.0000
     49 H17       10.6838    3.9747    1.4284 H         2 RES2    0.0000
     50 C24        7.7322    2.5152    1.7014 C.ar      2 RES2    0.0000
     51 C25        9.1455    2.6557    1.6004 C.ar      2 RES2    0.0000
     52 C26        6.0892    0.4674    1.8393 C.3       2 RES2    0.0000
     53 H18        5.4610    0.9395    1.1541 H         2 RES2    0.0000
     54 H19        5.6852    0.6738    2.7189 H         2 RES2    0.0000
     55 N6         6.7859    6.0926    1.7090 N.pl3     2 RES2    0.0000
     56 O5         5.5589    6.0050    1.6767 O.2       2 RES2    0.0000
     57 O6         7.3696    7.1808    1.7743 O.2       2 RES2    0.0000
     58 N7         6.5097   -3.2260    1.7792 N.pl3     2 RES2    0.0000
     59 H20        6.9040   -3.9933    2.0609 H         2 RES2    0.0000
     60 C27        6.6667   -1.9833    2.3657 C.2       2 RES2    0.0000
     61 H21        7.1656   -1.8884    3.2150 H         2 RES2    0.0000
     62 C28        6.0941   -1.0182    1.5904 C.2       2 RES2    0.0000
     63 C29        4.8827   -1.2846   -0.7023 C.ar      2 RES2    0.0000
     64 H22        4.6567   -0.3814   -0.8002 H         2 RES2    0.0000
     65 C30        4.5486   -2.2445   -1.6316 C.ar      2 RES2    0.0000
     66 C31        4.8052   -3.6076   -1.4663 C.ar      2 RES2    0.0000
     67 H23        4.4636   -4.2086   -2.1732 H         2 RES2    0.0000
     68 C32        5.4521   -4.0387   -0.3349 C.ar      2 RES2    0.0000
     69 H24        5.6453   -4.9874   -0.1691 H         2 RES2    0.0000
     70 C33        5.5564   -1.6997    0.4424 C.ar      2 RES2    0.0000
     71 C34        5.8422   -3.0820    0.5978 C.ar      2 RES2    0.0000
     72 N8         3.9013   -1.8194   -2.8643 N.pl3     2 RES2    0.0000
     73 O7         3.5623   -2.6785   -3.6827 O.2       2 RES2    0.0000
     74 O8         3.7106   -0.6173   -3.0681 O.2       2 RES2    0.0000
@<TRIPOS>BOND
     1    1    2 1
     2    3    1 1
     3    4    3 1
     4    5    3 2
     5    6    7 1
     6    8    6 ar
     7    9    8 ar
     8   10    9 1
     9   11    9 ar
    10   12   11 1
    11   13    5 1
    12   14    1 1
    13   15    5 1
    14   16   15 1
    15   17   15 1
    16   18    8 1
    17   19   18 2
    18   20   18 2
    19   21   22 1
    20   23   21 1
    21   24   23 1
    22   25   15 1
    23   26   27 1
    24   28   26 ar
    25   29   28 ar
    26   30   29 1
    27   31   29 ar
    28   32   31 1
    29   33   25 1
    30   34   21 1
    31   35   28 1
    32   36   35 2
    33   37   35 2
    34   38   39 1
    35   40   38 1
    36   41   40 1
    37   42   40 2
    38   43   44 1
    39   45   43 ar
    40   46   45 ar
    41   47   46 1
    42   48   46 ar
    43   49   48 1
    44   50   42 1
    45   51   38 1
    46   52   42 1
    47   53   52 1
    48   54   52 1
    49   55   45 1
    50   56   55 2
    51   57   55 2
    52   58   59 1
    53   60   58 1
    54   61   60 1
    55   62   52 1
    56   63   64 1
    57   65   63 ar
    58   66   65 ar
    59   67   66 1
    60   68   66 ar
    61   69   68 1
    62   70   62 1
    63   71   58 1
    64   72   65 1
    65   73   72 2
    66   74   72 2
    67    6   13 ar
    68   11   14 ar
    69   13   14 ar
    70   23   25 2
    71   26   33 ar
    72   31   34 ar
    73   33   34 ar
    74   43   50 ar
    75   48   51 ar
    76   50   51 ar
    77   60   62 2
    78   63   70 ar
    79   68   71 ar
    80   70   71 ar
@<TRIPOS>SUBSTRUCTURE
     1 RES1 1
     2 RES2 38

@<TRIPOS>CRYSIN
  31.7420   13.2890   15.9930  90.0000 117.2900  90.0000  15 1

