# MOL2 file generated by ConQuest
# Please check atom types

@<TRIPOS>MOLECULE
HEZSIQ
    42    45     1
SMALL
NO_CHARGES
****
Generated from CSD

@<TRIPOS>ATOM
      1 O1         6.8400    1.1293   -0.0123 O.3       1 RES1    0.0000
      2 O2         7.3505    2.7767   -1.7888 O.3       1 RES1    0.0000
      3 N1         8.0037    1.5348   -1.9451 N.2       1 RES1    0.0000
      4 C1         7.7020    0.7359   -0.9932 C.2       1 RES1    0.0000
      5 C2         8.2752   -0.6100   -0.9454 C.ar      1 RES1    0.0000
      6 C3         9.0863   -1.0857   -1.9761 C.ar      1 RES1    0.0000
      7 H1         9.2842   -0.5274   -2.7194 H         1 RES1    0.0000
      8 C4         9.6015   -2.3624   -1.9200 C.ar      1 RES1    0.0000
      9 H2        10.1574   -2.6790   -2.6222 H         1 RES1    0.0000
     10 C5         9.3121   -3.1873   -0.8429 C.ar      1 RES1    0.0000
     11 H3         9.6690   -4.0673   -0.8099 H         1 RES1    0.0000
     12 C6         8.5054   -2.7292    0.1820 C.ar      1 RES1    0.0000
     13 H4         8.3009   -3.3022    0.9112 H         1 RES1    0.0000
     14 C7         7.9858   -1.4265    0.1557 C.ar      1 RES1    0.0000
     15 C8         7.1451   -0.8934    1.2276 C.2       1 RES1    0.0000
     16 C9         6.6313    0.3454    1.1080 C.2       1 RES1    0.0000
     17 C10        7.9372    3.6847   -2.7134 C.3       1 RES1    0.0000
     18 H5         7.5045    4.5605   -2.6313 H         1 RES1    0.0000
     19 H6         7.8176    3.3458   -3.6255 H         1 RES1    0.0000
     20 H7         8.8944    3.7736   -2.5209 H         1 RES1    0.0000
     21 C11        6.8520   -1.7230    2.4312 C.ar      1 RES1    0.0000
     22 C12        7.8793   -2.0671    3.3076 C.ar      1 RES1    0.0000
     23 H8         8.7734   -1.8109    3.1122 H         1 RES1    0.0000
     24 C13        7.6018   -2.7814    4.4626 C.ar      1 RES1    0.0000
     25 H9         8.3053   -3.0019    5.0621 H         1 RES1    0.0000
     26 C14        6.3069   -3.1755    4.7484 C.ar      1 RES1    0.0000
     27 H10        6.1180   -3.6541    5.5471 H         1 RES1    0.0000
     28 C15        5.2913   -2.8684    3.8646 C.ar      1 RES1    0.0000
     29 H11        4.4041   -3.1551    4.0477 H         1 RES1    0.0000
     30 C16        5.5560   -2.1443    2.7108 C.ar      1 RES1    0.0000
     31 H12        4.8502   -1.9355    2.1099 H         1 RES1    0.0000
     32 C17        5.7893    1.0718    2.0795 C.ar      1 RES1    0.0000
     33 C18        6.1085    1.0835    3.4351 C.ar      1 RES1    0.0000
     34 H13        6.8839    0.6293    3.7429 H         1 RES1    0.0000
     35 C19        5.2999    1.7548    4.3355 C.ar      1 RES1    0.0000
     36 H14        5.5261    1.7627    5.2586 H         1 RES1    0.0000
     37 C20        4.1613    2.4161    3.9001 C.ar      1 RES1    0.0000
     38 H15        3.5972    2.8563    4.5245 H         1 RES1    0.0000
     39 C21        3.8520    2.4319    2.5546 C.ar      1 RES1    0.0000
     40 H16        3.0784    2.8919    2.2516 H         1 RES1    0.0000
     41 C22        4.6683    1.7773    1.6428 C.ar      1 RES1    0.0000
     42 H17        4.4622    1.8099    0.7158 H         1 RES1    0.0000
@<TRIPOS>BOND
     1    1    4 1
     2    2    3 1
     3    3    4 2
     4    4    5 1
     5    5    6 ar
     6    6    7 1
     7    8    6 ar
     8    9    8 1
     9   10    8 ar
    10   11   10 1
    11   12   10 ar
    12   13   12 1
    13   14    5 ar
    14   15   14 1
    15   16    1 1
    16   17    2 1
    17   18   17 1
    18   19   17 1
    19   20   17 1
    20   21   15 1
    21   22   21 ar
    22   23   22 1
    23   24   22 ar
    24   25   24 1
    25   26   24 ar
    26   27   26 1
    27   28   26 ar
    28   29   28 1
    29   30   21 ar
    30   31   30 1
    31   32   16 1
    32   33   32 ar
    33   34   33 1
    34   35   33 ar
    35   36   35 1
    36   37   35 ar
    37   38   37 1
    38   39   37 ar
    39   40   39 1
    40   41   32 ar
    41   42   41 1
    42   12   14 ar
    43   15   16 2
    44   28   30 ar
    45   39   41 ar
@<TRIPOS>SUBSTRUCTURE
     1 RES1 1

@<TRIPOS>CRYSIN
   9.6156    9.7142   10.8697 106.3060  93.9960 118.4750   2 1

