# MOL2 file generated by ConQuest
# Please check atom types

@<TRIPOS>MOLECULE
HIBSIW
    42    43     1
SMALL
NO_CHARGES
****
Generated from CSD

@<TRIPOS>ATOM
      1 O1         1.9247    0.4666    1.8699 O.2       1 RES1    0.0000
      2 O2         1.5575   -0.8648    3.4896 O.2       1 RES1    0.0000
      3 O3         0.7915    5.7785    8.4956 O.3       1 RES1    0.0000
      4 N1         0.9407    4.5607    7.8092 N.2       1 RES1    0.0000
      5 N2         0.9136    1.9240    7.4959 N.3       1 RES1    0.0000
      6 H1         0.8143    2.6011    8.0009 H         1 RES1    0.0000
      7 N3         1.7067    0.2545    3.0428 N.pl3     1 RES1    0.0000
      8 C1         1.3216    3.5423    5.7047 C.ar      1 RES1    0.0000
      9 C2         1.1932    2.1952    6.1947 C.ar      1 RES1    0.0000
     10 C3         1.3413    1.1443    5.2757 C.ar      1 RES1    0.0000
     11 H2         1.2739    0.2631    5.5386 H         1 RES1    0.0000
     12 C4         1.6002    1.4054    3.9547 C.ar      1 RES1    0.0000
     13 C5         1.7548    2.6804    3.4602 C.ar      1 RES1    0.0000
     14 H3         1.9418    2.8559    2.5927 H         1 RES1    0.0000
     15 C6         1.6081    3.7162    4.3522 C.ar      1 RES1    0.0000
     16 H4         1.7222    4.6242    4.0155 H         1 RES1    0.0000
     17 C7         1.1642    4.7382    6.5577 C.2       1 RES1    0.0000
     18 C8         1.2637    6.1128    5.9564 C.3       1 RES1    0.0000
     19 H5         0.8297    6.1558    5.0818 H         1 RES1    0.0000
     20 H6         0.7904    6.7518    6.4979 H         1 RES1    0.0000
     21 H7         2.1206    6.3291    5.8405 H         1 RES1    0.0000
     22 C9         0.6384    5.5130    9.8787 C.3       1 RES1    0.0000
     23 H8         0.5223    6.2940   10.2728 H         1 RES1    0.0000
     24 H9        -0.0851    4.8627   10.0243 H         1 RES1    0.0000
     25 H10        1.4431    5.0601   10.2215 H         1 RES1    0.0000
     26 C10        0.8062    0.5831    8.0621 C.3       1 RES1    0.0000
     27 H11        0.2965    0.0118    7.4461 H         1 RES1    0.0000
     28 C11        0.0278    0.6467    9.3777 C.3       1 RES1    0.0000
     29 H12       -0.2175   -0.2866    9.6254 H         1 RES1    0.0000
     30 H13       -0.7963    1.1335    9.2410 H         1 RES1    0.0000
     31 C12        0.8266    1.2840   10.5051 C.3       1 RES1    0.0000
     32 H14        0.3271    1.2606   11.3468 H         1 RES1    0.0000
     33 H15        0.9817    2.2134   10.3106 H         1 RES1    0.0000
     34 C13        2.1571    0.5899   10.6901 C.3       1 RES1    0.0000
     35 H16        1.9840   -0.3319   10.9558 H         1 RES1    0.0000
     36 H17        2.6674    1.0075   11.4014 H         1 RES1    0.0000
     37 C14        2.9594    0.5999    9.3991 C.3       1 RES1    0.0000
     38 H18        3.1422    1.5531    9.1519 H         1 RES1    0.0000
     39 H19        3.8155    0.1679    9.5118 H         1 RES1    0.0000
     40 C15        2.1749   -0.0582    8.2767 C.3       1 RES1    0.0000
     41 H20        2.7166   -0.0483    7.4505 H         1 RES1    0.0000
     42 H21        2.0263   -1.0065    8.4689 H         1 RES1    0.0000
@<TRIPOS>BOND
     1    1    7 2
     2    2    7 2
     3    3    4 1
     4    4   17 2
     5    5    6 1
     6    7   12 1
     7    8    9 ar
     8    9    5 1
     9   10    9 ar
    10   11   10 1
    11   12   10 ar
    12   13   12 ar
    13   14   13 1
    14   15    8 ar
    15   16   15 1
    16   17    8 1
    17   18   17 1
    18   19   18 1
    19   20   18 1
    20   21   18 1
    21   22    3 1
    22   23   22 1
    23   24   22 1
    24   25   22 1
    25   26    5 1
    26   27   26 1
    27   28   26 1
    28   29   28 1
    29   30   28 1
    30   31   28 1
    31   32   31 1
    32   33   31 1
    33   34   31 1
    34   35   34 1
    35   36   34 1
    36   37   34 1
    37   38   37 1
    38   39   37 1
    39   40   26 1
    40   41   40 1
    41   42   40 1
    42   13   15 ar
    43   37   40 1
@<TRIPOS>SUBSTRUCTURE
     1 RES1 1

@<TRIPOS>CRYSIN
   7.2262    9.2507   11.4120 102.1500  92.3590  92.3670   2 1

