# MOL2 file generated by ConQuest
# Please check atom types

@<TRIPOS>MOLECULE
HIBXIZ
    70    74     2
SMALL
NO_CHARGES
****
Generated from CSD

@<TRIPOS>ATOM
      1 C1        -2.4899    5.0828   -4.2115 C.ar      1 RES1    0.0000
      2 C2        -2.2513    3.8424   -4.7472 C.ar      1 RES1    0.0000
      3 C3        -1.5107    2.9354   -4.0067 C.ar      1 RES1    0.0000
      4 C4        -1.0082    3.2714   -2.7449 C.ar      1 RES1    0.0000
      5 C5        -1.2586    4.5540   -2.2470 C.ar      1 RES1    0.0000
      6 C6        -1.9988    5.4724   -2.9759 C.ar      1 RES1    0.0000
      7 C7        -0.2340    2.2625   -2.0285 C.2       1 RES1    0.0000
      8 C8         0.4109    2.3674   -0.8604 C.2       1 RES1    0.0000
      9 C9         1.2733    1.3167   -0.2235 C.2       1 RES1    0.0000
     10 C10        1.7505    1.9608    0.9980 C.ar      1 RES1    0.0000
     11 C11        2.5887    1.5464    2.0484 C.ar      1 RES1    0.0000
     12 C12        2.7982    2.4540    3.0718 C.ar      1 RES1    0.0000
     13 C13        2.2349    3.7317    3.0803 C.ar      1 RES1    0.0000
     14 C14        1.4216    4.1421    2.0190 C.ar      1 RES1    0.0000
     15 C15        1.2072    3.2303    1.0244 C.ar      1 RES1    0.0000
     16 C16        3.2327    0.1929    2.0554 C.3       1 RES1    0.0000
     17 C17        2.4828    4.6726    4.2232 C.3       1 RES1    0.0000
     18 N1        -3.3321    6.0318   -4.9507 N.pl3     1 RES1    0.0000
     19 O1        -3.5935    7.1116   -4.4471 O.2       1 RES1    0.0000
     20 O2        -3.7590    5.6742   -6.0434 O.2       1 RES1    0.0000
     21 O3         0.4080    3.4999   -0.0775 O.3       1 RES1    0.0000
     22 O4         1.5104    0.2189   -0.6831 O.2       1 RES1    0.0000
     23 H1        -2.5697    3.6533   -5.6347 H         1 RES1    0.0000
     24 H2        -1.3065    2.0715   -4.3906 H         1 RES1    0.0000
     25 H3        -0.9428    4.7895   -1.3944 H         1 RES1    0.0000
     26 H4        -2.1956    6.3440   -2.6111 H         1 RES1    0.0000
     27 H5        -0.0931    1.3899   -2.4539 H         1 RES1    0.0000
     28 H6         3.3722    2.1601    3.7959 H         1 RES1    0.0000
     29 H7         1.0189    5.0354    2.0051 H         1 RES1    0.0000
     30 H8         3.6940    0.0020    2.8709 H         1 RES1    0.0000
     31 H9         2.6533   -0.5317    1.6542 H         1 RES1    0.0000
     32 H10        3.8732   -0.1329    1.3215 H         1 RES1    0.0000
     33 H11        2.4167    5.5339    3.8962 H         1 RES1    0.0000
     34 H12        1.9801    4.4386    5.0013 H         1 RES1    0.0000
     35 H13        3.4354    4.7219    4.5364 H         1 RES1    0.0000
     36 C18        0.9153    6.6456    7.1344 C.ar      2 RES2    0.0000
     37 C19       -0.3272    6.9849    6.6361 C.ar      2 RES2    0.0000
     38 C20       -1.4404    6.6076    7.3447 C.ar      2 RES2    0.0000
     39 C21       -1.3331    5.9051    8.5534 C.ar      2 RES2    0.0000
     40 C22       -0.0541    5.5655    9.0155 C.ar      2 RES2    0.0000
     41 C23        1.0647    5.9289    8.3096 C.ar      2 RES2    0.0000
     42 C24       -2.5617    5.5817    9.2652 C.2       2 RES2    0.0000
     43 C25       -2.7445    4.9561   10.4300 C.2       2 RES2    0.0000
     44 C26       -4.0620    4.6005   11.0388 C.2       2 RES2    0.0000
     45 C27       -3.7066    3.8734   12.2571 C.ar      2 RES2    0.0000
     46 C28       -4.4623    3.2487   13.2493 C.ar      2 RES2    0.0000
     47 C29       -3.7510    2.6329   14.2687 C.ar      2 RES2    0.0000
     48 C30       -2.3505    2.5963   14.3036 C.ar      2 RES2    0.0000
     49 C31       -1.6157    3.2132   13.3002 C.ar      2 RES2    0.0000
     50 C32       -2.3260    3.8387   12.3072 C.ar      2 RES2    0.0000
     51 C33       -5.9568    3.2097   13.1974 C.3       2 RES2    0.0000
     52 C34       -1.6525    1.8722   15.4207 C.3       2 RES2    0.0000
     53 N2         2.1144    7.0953    6.4321 N.pl3     2 RES2    0.0000
     54 O5         3.2038    6.6975    6.8197 O.2       2 RES2    0.0000
     55 O6         1.9794    7.8651    5.4884 O.2       2 RES2    0.0000
     56 O7        -1.7233    4.4786   11.2320 O.3       2 RES2    0.0000
     57 O8        -5.1551    4.8637   10.5658 O.2       2 RES2    0.0000
     58 H14       -0.3739    7.5560    5.8215 H         2 RES2    0.0000
     59 H15       -2.3093    6.8375    6.9995 H         2 RES2    0.0000
     60 H16        0.0353    5.0859    9.8544 H         2 RES2    0.0000
     61 H17        1.8964    5.7157    8.5785 H         2 RES2    0.0000
     62 H18       -3.3639    5.8468    8.8519 H         2 RES2    0.0000
     63 H19       -4.2324    2.2201   14.9331 H         2 RES2    0.0000
     64 H20       -0.6574    3.2037   13.3040 H         2 RES2    0.0000
     65 H21       -6.3136    3.9409   12.7025 H         2 RES2    0.0000
     66 H22       -6.3157    2.4805   12.6319 H         2 RES2    0.0000
     67 H23       -6.3507    2.9446   13.9580 H         2 RES2    0.0000
     68 H24       -1.9820    1.8889   16.2729 H         2 RES2    0.0000
     69 H25       -1.6283    0.9958   15.2362 H         2 RES2    0.0000
     70 H26       -0.8052    2.1515   15.4891 H         2 RES2    0.0000
@<TRIPOS>BOND
     1    1    2 ar
     2    2    3 ar
     3    3    4 ar
     4    4    5 ar
     5    5    6 ar
     6    6    1 ar
     7    7    4 1
     8    8    7 2
     9    9    8 1
    10   10    9 1
    11   11   10 ar
    12   12   11 ar
    13   13   12 ar
    14   14   13 ar
    15   15   10 ar
    16   16   11 1
    17   17   13 1
    18   18    1 1
    19   19   18 2
    20   20   18 2
    21   21    8 1
    22   22    9 2
    23   23    2 1
    24   24    3 1
    25   25    5 1
    26   26    6 1
    27   27    7 1
    28   28   12 1
    29   29   14 1
    30   30   16 1
    31   31   16 1
    32   32   16 1
    33   33   17 1
    34   34   17 1
    35   35   17 1
    36   36   37 ar
    37   37   38 ar
    38   38   39 ar
    39   39   40 ar
    40   40   41 ar
    41   41   36 ar
    42   42   39 1
    43   43   42 2
    44   44   43 1
    45   45   44 1
    46   46   45 ar
    47   47   46 ar
    48   48   47 ar
    49   49   48 ar
    50   50   45 ar
    51   51   46 1
    52   52   48 1
    53   53   36 1
    54   54   53 2
    55   55   53 2
    56   56   43 1
    57   57   44 2
    58   58   37 1
    59   59   38 1
    60   60   40 1
    61   61   41 1
    62   62   42 1
    63   63   47 1
    64   64   49 1
    65   65   51 1
    66   66   51 1
    67   67   51 1
    68   68   52 1
    69   69   52 1
    70   70   52 1
    71   14   15 ar
    72   15   21 1
    73   49   50 ar
    74   50   56 1
@<TRIPOS>SUBSTRUCTURE
     1 RES1 1
     2 RES2 36

@<TRIPOS>CRYSIN
   8.1610    8.2220   23.1130  93.4600  96.8800 113.4300   2 1

