# MOL2 file generated by ConQuest
# Please check atom types

@<TRIPOS>MOLECULE
HICDOM
    76    86     2
SMALL
NO_CHARGES
****
Generated from CSD

@<TRIPOS>ATOM
      1 N1         4.6596   16.2693    7.4119 N.2       1 RES1    0.0000
      2 C1         5.3108   16.7061    6.1666 C.3       1 RES1    0.0000
      3 C2         6.1350   15.5218    5.6472 C.3       1 RES1    0.0000
      4 N2         5.6228   14.4420    6.4907 N.pl3     1 RES1    0.0000
      5 C3         6.0402   13.1398    6.5220 C.2       1 RES1    0.0000
      6 C4         6.8595   12.3333    5.7548 C.2       1 RES1    0.0000
      7 N3         6.8855   11.0525    6.3055 N.2       1 RES1    0.0000
      8 C5         6.1203   11.0900    7.3431 C.2       1 RES1    0.0000
      9 N4         5.5698   12.3413    7.5408 N.pl3     1 RES1    0.0000
     10 C6         4.7392   12.7995    8.5834 C.ar      1 RES1    0.0000
     11 C7         4.3220   11.9555    9.5997 C.ar      1 RES1    0.0000
     12 C8         3.5531   12.4592   10.6260 C.ar      1 RES1    0.0000
     13 C9         3.1782   13.7936   10.6297 C.ar      1 RES1    0.0000
     14 C10        3.5719   14.6349    9.6135 C.ar      1 RES1    0.0000
     15 C11        4.3698   14.1472    8.5809 C.ar      1 RES1    0.0000
     16 C12        4.8585   15.0127    7.5120 C.2       1 RES1    0.0000
     17 N5         9.0824   12.0814    2.9888 N.2       1 RES1    0.0000
     18 O1         8.4132   11.5991    4.1490 O.3       1 RES1    0.0000
     19 C13        7.6264   12.5959    4.5708 C.2       1 RES1    0.0000
     20 N6         7.7126   13.6596    3.8249 N.2       1 RES1    0.0000
     21 C14        8.6181   13.2871    2.8624 C.2       1 RES1    0.0000
     22 C15        9.0594   14.1740    1.7848 C.3       1 RES1    0.0000
     23 C16        9.0798   15.6450    2.0363 C.3       1 RES1    0.0000
     24 C17        8.0746   15.0797    1.1202 C.3       1 RES1    0.0000
     25 N7         6.1717    9.2279    2.1715 N.2       2 RES2    0.0000
     26 C18        6.9545    9.7128    1.0326 C.3       2 RES2    0.0000
     27 C19        7.5508    8.4857    0.3217 C.3       2 RES2    0.0000
     28 N8         6.9565    7.3978    1.0926 N.pl3     2 RES2    0.0000
     29 C20        7.1342    6.0501    0.9399 C.2       2 RES2    0.0000
     30 C21        7.8096    5.2168    0.0688 C.2       2 RES2    0.0000
     31 N9         7.6000    3.8878    0.4418 N.2       2 RES2    0.0000
     32 C22        6.8442    3.9280    1.4819 C.2       2 RES2    0.0000
     33 N10        6.5126    5.2222    1.8448 N.pl3     2 RES2    0.0000
     34 C23        5.6744    5.6750    2.8837 C.ar      2 RES2    0.0000
     35 C24        4.9967    4.7827    3.6997 C.ar      2 RES2    0.0000
     36 C25        4.1649    5.2677    4.6834 C.ar      2 RES2    0.0000
     37 C26        4.0316    6.6315    4.8825 C.ar      2 RES2    0.0000
     38 C27        4.7064    7.5264    4.0714 C.ar      2 RES2    0.0000
     39 C28        5.5236    7.0522    3.0514 C.ar      2 RES2    0.0000
     40 C29        6.2084    7.9551    2.1352 C.2       2 RES2    0.0000
     41 N11        9.8501    4.9569   -2.8436 N.2       2 RES2    0.0000
     42 O2         9.1538    4.4344   -1.7147 O.3       2 RES2    0.0000
     43 C30        8.6039    5.4928   -1.0901 C.2       2 RES2    0.0000
     44 N12        8.8720    6.6208   -1.6784 N.2       2 RES2    0.0000
     45 C31        9.6364    6.2350   -2.7510 C.2       2 RES2    0.0000
     46 C32       10.1544    7.2022   -3.7172 C.3       2 RES2    0.0000
     47 C33       10.4811    8.5821   -3.2304 C.3       2 RES2    0.0000
     48 C34        9.2830    8.3758   -4.0664 C.3       2 RES2    0.0000
     49 H1         5.8865   17.4675    6.3401 H         1 RES1    0.0000
     50 H2         4.6445   16.9652    5.5126 H         1 RES1    0.0000
     51 H3         5.9665   15.3543    4.7074 H         1 RES1    0.0000
     52 H4         7.0866   15.6624    5.7831 H         1 RES1    0.0000
     53 H5         5.9579   10.3591    7.8893 H         1 RES1    0.0000
     54 H6         4.5572   11.0573    9.5907 H         1 RES1    0.0000
     55 H7         3.2855   11.9003   11.3171 H         1 RES1    0.0000
     56 H8         2.6608   14.1245   11.3274 H         1 RES1    0.0000
     57 H9         3.3075   15.5269    9.6155 H         1 RES1    0.0000
     58 H10        9.7762   13.8297    1.2115 H         1 RES1    0.0000
     59 H11        8.7759   15.9566    2.9024 H         1 RES1    0.0000
     60 H12        9.8031   16.1587    1.6475 H         1 RES1    0.0000
     61 H13        8.1796   15.2485    0.1715 H         1 RES1    0.0000
     62 H14        7.1515   15.0464    1.4268 H         1 RES1    0.0000
     63 H15        7.6630   10.2996    1.3386 H         2 RES2    0.0000
     64 H16        6.3848   10.2074    0.4237 H         2 RES2    0.0000
     65 H17        7.2863    8.4487   -0.6100 H         2 RES2    0.0000
     66 H18        8.5195    8.4747    0.3817 H         2 RES2    0.0000
     67 H19        6.5580    3.1721    1.9392 H         2 RES2    0.0000
     68 H20        5.0995    3.8672    3.5827 H         2 RES2    0.0000
     69 H21        3.6920    4.6742    5.2173 H         2 RES2    0.0000
     70 H22        3.4848    6.9485    5.5621 H         2 RES2    0.0000
     71 H23        4.6129    8.4404    4.2090 H         2 RES2    0.0000
     72 H24       10.7146    6.8459   -4.4359 H         2 RES2    0.0000
     73 H25       10.3498    8.7710   -2.2917 H         2 RES2    0.0000
     74 H26       11.2419    9.0301   -3.6371 H         2 RES2    0.0000
     75 H27        9.3105    8.6976   -4.9807 H         2 RES2    0.0000
     76 H28        8.4183    8.4388   -3.6352 H         2 RES2    0.0000
@<TRIPOS>BOND
     1    1    2 1
     2    2    3 1
     3    3    4 1
     4    4    5 1
     5    5    6 2
     6    6    7 1
     7    7    8 2
     8    8    9 1
     9    9    5 1
    10   10    9 1
    11   11   10 ar
    12   12   11 ar
    13   13   12 ar
    14   14   13 ar
    15   15   10 ar
    16   16    1 2
    17   17   18 1
    18   18   19 1
    19   19    6 1
    20   20   19 2
    21   21   17 2
    22   22   21 1
    23   23   22 1
    24   24   22 1
    25   25   26 1
    26   26   27 1
    27   27   28 1
    28   28   29 1
    29   29   30 2
    30   30   31 1
    31   31   32 2
    32   32   33 1
    33   33   29 1
    34   34   33 1
    35   35   34 ar
    36   36   35 ar
    37   37   36 ar
    38   38   37 ar
    39   39   34 ar
    40   40   25 2
    41   41   42 1
    42   42   43 1
    43   43   30 1
    44   44   43 2
    45   45   41 2
    46   46   45 1
    47   47   46 1
    48   48   46 1
    49   49    2 1
    50   50    2 1
    51   51    3 1
    52   52    3 1
    53   53    8 1
    54   54   11 1
    55   55   12 1
    56   56   13 1
    57   57   14 1
    58   58   22 1
    59   59   23 1
    60   60   23 1
    61   61   24 1
    62   62   24 1
    63   63   26 1
    64   64   26 1
    65   65   27 1
    66   66   27 1
    67   67   32 1
    68   68   35 1
    69   69   36 1
    70   70   37 1
    71   71   38 1
    72   72   46 1
    73   73   47 1
    74   74   47 1
    75   75   48 1
    76   76   48 1
    77    4   16 1
    78   14   15 ar
    79   15   16 1
    80   20   21 1
    81   23   24 1
    82   28   40 1
    83   38   39 ar
    84   39   40 1
    85   44   45 1
    86   47   48 1
@<TRIPOS>SUBSTRUCTURE
     1 RES1 1
     2 RES2 25

@<TRIPOS>CRYSIN
   8.6930   26.7940   12.5340  90.0000  93.0800  90.0000  14 2

