# MOL2 file generated by ConQuest
# Please check atom types

@<TRIPOS>MOLECULE
HICDUS
    51    52     1
SMALL
NO_CHARGES
****
Generated from CSD

@<TRIPOS>ATOM
      1 C1       -14.6706    4.7826   -4.7804 C.3       1 RES1    0.0000
      2 C2       -14.4815    5.8883   -5.7935 C.2       1 RES1    0.0000
      3 C3       -15.4384    3.6387   -5.4535 C.3       1 RES1    0.0000
      4 C4       -13.2905    4.3255   -4.1621 C.3       1 RES1    0.0000
      5 C5       -12.5873    3.2388   -4.9715 C.3       1 RES1    0.0000
      6 C6       -12.3652    5.5141   -4.0160 C.3       1 RES1    0.0000
      7 C7       -13.7284    3.7956   -2.7780 C.3       1 RES1    0.0000
      8 C8       -12.5970    3.5570   -1.7958 C.2       1 RES1    0.0000
      9 C9       -11.8855    2.2529   -1.8169 C.ar      1 RES1    0.0000
     10 C10      -10.4918    2.1745   -1.8183 C.ar      1 RES1    0.0000
     11 C11       -9.8627    0.9534   -1.8323 C.ar      1 RES1    0.0000
     12 C12      -10.5873   -0.2207   -1.8099 C.ar      1 RES1    0.0000
     13 C13      -11.9754   -0.1624   -1.8028 C.ar      1 RES1    0.0000
     14 C14      -12.6082    1.0676   -1.8071 C.ar      1 RES1    0.0000
     15 C15      -10.5538   -2.6092   -1.7115 C.3       1 RES1    0.0000
     16 C16       -9.5303   -3.6880   -1.5471 C.3       1 RES1    0.0000
     17 C17      -14.8312    4.7456   -2.3256 C.3       1 RES1    0.0000
     18 C18      -13.5575    6.4361   -7.8999 C.3       1 RES1    0.0000
     19 C19      -15.4784    5.2777   -3.5720 C.3       1 RES1    0.0000
     20 N1       -12.3255    4.5114   -0.9935 N.2       1 RES1    0.0000
     21 O1        -9.8617   -1.3701   -1.7832 O.3       1 RES1    0.0000
     22 O2       -11.2652    4.2314   -0.0941 O.3       1 RES1    0.0000
     23 O3       -14.8258    7.0265   -5.6572 O.2       1 RES1    0.0000
     24 O4       -13.8619    5.4547   -6.8980 O.3       1 RES1    0.0000
     25 H1        -8.7850    0.9119   -1.8619 H         1 RES1    0.0000
     26 H2        -9.9044    3.0819   -1.8113 H         1 RES1    0.0000
     27 H3       -13.6876    1.1069   -1.8056 H         1 RES1    0.0000
     28 H4       -12.5554   -1.0721   -1.7930 H         1 RES1    0.0000
     29 H5       -14.1972    2.9307   -2.9101 H         1 RES1    0.0000
     30 H6       -14.4102    5.5567   -1.7523 H         1 RES1    0.0000
     31 H7       -15.5546    4.2179   -1.7241 H         1 RES1    0.0000
     32 H8       -16.4949    4.9159   -3.6380 H         1 RES1    0.0000
     33 H9       -15.4838    6.3577   -3.5509 H         1 RES1    0.0000
     34 H10      -11.2280   -2.6069   -0.8684 H         1 RES1    0.0000
     35 H11      -11.1138   -2.7683   -2.6207 H         1 RES1    0.0000
     36 H12      -10.0266   -4.6481   -1.4923 H         1 RES1    0.0000
     37 H13       -8.9693   -3.5177   -0.6394 H         1 RES1    0.0000
     38 H14       -8.8566   -3.6779   -2.3930 H         1 RES1    0.0000
     39 H15      -13.2442    2.3896   -5.0839 H         1 RES1    0.0000
     40 H16      -11.6898    2.9329   -4.4558 H         1 RES1    0.0000
     41 H17      -12.3287    3.6253   -5.9467 H         1 RES1    0.0000
     42 H18      -12.8585    6.2860   -3.4455 H         1 RES1    0.0000
     43 H19      -12.1055    5.8973   -4.9926 H         1 RES1    0.0000
     44 H20      -11.4666    5.2049   -3.5017 H         1 RES1    0.0000
     45 H21      -15.5807    2.8377   -4.7453 H         1 RES1    0.0000
     46 H22      -14.8706    3.2802   -6.2966 H         1 RES1    0.0000
     47 H23      -16.3989    3.9972   -5.7935 H         1 RES1    0.0000
     48 H24      -13.0542    5.9589   -8.7374 H         1 RES1    0.0000
     49 H25      -12.9117    7.1923   -7.4783 H         1 RES1    0.0000
     50 H26      -14.4729    6.8943   -8.2456 H         1 RES1    0.0000
     51 H27      -11.1391    5.2072    0.7827 H         1 RES1    0.0000
@<TRIPOS>BOND
     1    1    2 1
     2    2   23 2
     3    3    1 1
     4    4    1 1
     5    5    4 1
     6    6    4 1
     7    7    4 1
     8    8    7 1
     9    9    8 1
    10   10    9 ar
    11   11   10 ar
    12   12   11 ar
    13   13   12 ar
    14   14    9 ar
    15   15   16 1
    16   16   36 1
    17   17    7 1
    18   18   24 1
    19   19    1 1
    20   20    8 2
    21   21   12 1
    22   22   20 1
    23   24    2 1
    24   25   11 1
    25   26   10 1
    26   27   14 1
    27   28   13 1
    28   29    7 1
    29   30   17 1
    30   31   17 1
    31   32   19 1
    32   33   19 1
    33   34   15 1
    34   35   15 1
    35   37   16 1
    36   38   16 1
    37   39    5 1
    38   40    5 1
    39   41    5 1
    40   42    6 1
    41   43    6 1
    42   44    6 1
    43   45    3 1
    44   46    3 1
    45   47    3 1
    46   48   18 1
    47   49   18 1
    48   50   18 1
    49   51   22 1
    50   13   14 ar
    51   15   21 1
    52   17   19 1
@<TRIPOS>SUBSTRUCTURE
     1 RES1 1

@<TRIPOS>CRYSIN
  24.1790   11.2030   17.2860  90.0000 125.6200  90.0000  15 1

