# MOL2 file generated by ConQuest
# Please check atom types

@<TRIPOS>MOLECULE
HICDAY
    33    34     1
SMALL
NO_CHARGES
****
Generated from CSD

@<TRIPOS>ATOM
      1 O1         2.6535    1.4373    1.6780 O.3       1 RES1    0.0000
      2 O2         0.3420    2.6090    2.1207 O.3       1 RES1    0.0000
      3 O3        -2.4643    0.9874   13.2778 O.2       1 RES1    0.0000
      4 O4        -4.1855    1.9969   12.5173 O.2       1 RES1    0.0000
      5 N1        -3.1090    1.4647   12.3591 N.pl3     1 RES1    0.0000
      6 C1         0.3019    1.0529    6.7582 C.2       1 RES1    0.0000
      7 C2        -0.9066    1.3917    7.1107 C.2       1 RES1    0.0000
      8 C3         0.9127    1.1975    5.4288 C.ar      1 RES1    0.0000
      9 C4         2.1537    0.6098    5.2123 C.ar      1 RES1    0.0000
     10 C5         2.7704    0.6517    3.9828 C.ar      1 RES1    0.0000
     11 C6         2.1794    1.2995    2.9392 C.ar      1 RES1    0.0000
     12 C7         0.9366    1.9314    3.1390 C.ar      1 RES1    0.0000
     13 C8         0.3133    1.8728    4.3630 C.ar      1 RES1    0.0000
     14 C9         3.8997    0.8405    1.3683 C.3       1 RES1    0.0000
     15 C10       -1.4763    1.3140    8.4763 C.ar      1 RES1    0.0000
     16 C11       -0.8124    0.7491    9.5476 C.ar      1 RES1    0.0000
     17 C12       -1.3285    0.7628   10.8215 C.ar      1 RES1    0.0000
     18 C13       -2.5624    1.3734   11.0186 C.ar      1 RES1    0.0000
     19 C14       -3.2675    1.9170    9.9695 C.ar      1 RES1    0.0000
     20 C15       -2.7152    1.8743    8.7177 C.ar      1 RES1    0.0000
     21 H1         0.7867    2.4445    1.3433 H         1 RES1    0.0000
     22 H2         0.9831    0.7940    7.7324 H         1 RES1    0.0000
     23 H3        -1.6174    1.7525    6.3281 H         1 RES1    0.0000
     24 H4         2.5547    0.1561    5.9700 H         1 RES1    0.0000
     25 H5         3.5881    0.1515    3.9106 H         1 RES1    0.0000
     26 H6        -0.4894    2.3212    4.4796 H         1 RES1    0.0000
     27 H7         3.8367   -0.1005    1.4904 H         1 RES1    0.0000
     28 H8         4.1188    1.0247    0.4607 H         1 RES1    0.0000
     29 H9         4.5696    1.1922    1.9345 H         1 RES1    0.0000
     30 H10       -0.0784    0.2330    9.3783 H         1 RES1    0.0000
     31 H11       -1.0415    0.4271   11.5848 H         1 RES1    0.0000
     32 H12       -4.2494    2.3928   10.0777 H         1 RES1    0.0000
     33 H13       -3.1842    2.2717    7.9656 H         1 RES1    0.0000
@<TRIPOS>BOND
     1    1   11 1
     2    2   12 1
     3    3    5 2
     4    4    5 2
     5    5   18 1
     6    6    7 2
     7    7   15 1
     8    8    6 1
     9    9    8 ar
    10   10    9 ar
    11   11   10 ar
    12   12   11 ar
    13   13    8 ar
    14   14    1 1
    15   15   16 ar
    16   16   17 ar
    17   17   18 ar
    18   18   19 ar
    19   19   20 ar
    20   20   15 ar
    21   21    2 1
    22   22    6 1
    23   23    7 1
    24   24    9 1
    25   25   10 1
    26   26   13 1
    27   27   14 1
    28   28   14 1
    29   29   14 1
    30   30   16 1
    31   31   17 1
    32   32   19 1
    33   33   20 1
    34   12   13 ar
@<TRIPOS>SUBSTRUCTURE
     1 RES1 1

@<TRIPOS>CRYSIN
   6.2810    7.6130   27.7800  90.0000  92.4500  90.0000 231 1

