# MOL2 file generated by ConQuest
# Please check atom types

@<TRIPOS>MOLECULE
HICFAA
    51    55     1
SMALL
NO_CHARGES
****
Generated from CSD

@<TRIPOS>ATOM
      1 O1         6.7040    4.4527    1.4643 O.3       1 RES1    0.0000
      2 O2         9.4725    7.4008    1.3712 O.3       1 RES1    0.0000
      3 O3        10.7461    9.2472    1.3849 O.2       1 RES1    0.0000
      4 O4         8.4274    7.7330   -3.5403 O.2       1 RES1    0.0000
      5 O5         7.2658    6.1503   -4.4375 O.2       1 RES1    0.0000
      6 N1         7.0528    3.9138    6.1450 N.pl3     1 RES1    0.0000
      7 N2         7.7689    6.7159   -3.4894 N.pl3     1 RES1    0.0000
      8 C1         9.6467    8.7592    1.4444 C.2       1 RES1    0.0000
      9 C2         8.0341    7.0412    1.4841 C.3       1 RES1    0.0000
     10 C3         7.5318    4.2908    7.4666 C.3       1 RES1    0.0000
     11 C4         8.8602    3.7784    7.7756 C.3       1 RES1    0.0000
     12 C5         6.3283    2.6425    6.0544 C.3       1 RES1    0.0000
     13 C6         7.1719    1.4864    5.6759 C.3       1 RES1    0.0000
     14 C7         8.0228    5.8715    5.0890 C.ar      1 RES1    0.0000
     15 C8         7.3236    4.6297    5.0071 C.ar      1 RES1    0.0000
     16 C9         6.9112    4.2180    3.7687 C.ar      1 RES1    0.0000
     17 C10        7.1617    4.9736    2.6630 C.ar      1 RES1    0.0000
     18 C11        7.8278    6.2045    2.6829 C.ar      1 RES1    0.0000
     19 C12        8.2143    6.6002    3.9585 C.ar      1 RES1    0.0000
     20 C13        6.9829    5.0730    0.2780 C.ar      1 RES1    0.0000
     21 C14        6.5569    4.4151   -0.8513 C.ar      1 RES1    0.0000
     22 C15        6.8136    4.9561   -2.0612 C.ar      1 RES1    0.0000
     23 C16        7.5036    6.1383   -2.1691 C.ar      1 RES1    0.0000
     24 C17        7.9234    6.7855   -1.0262 C.ar      1 RES1    0.0000
     25 C18        7.6619    6.2906    0.2395 C.ar      1 RES1    0.0000
     26 C19        8.3198    9.3799    1.5822 C.ar      1 RES1    0.0000
     27 C20        7.9923   10.7111    1.7025 C.ar      1 RES1    0.0000
     28 C21        6.6534   11.0167    1.8229 C.ar      1 RES1    0.0000
     29 C22        5.6898   10.0199    1.8390 C.ar      1 RES1    0.0000
     30 C23        6.0302    8.6971    1.7025 C.ar      1 RES1    0.0000
     31 C24        7.3685    8.3924    1.5822 C.ar      1 RES1    0.0000
     32 H1         8.3475    6.2125    5.9254 H         1 RES1    0.0000
     33 H2         6.4588    3.3667    3.5453 H         1 RES1    0.0000
     34 H3         6.1006    3.5489   -0.7061 H         1 RES1    0.0000
     35 H4         6.5091    4.5477   -2.7908 H         1 RES1    0.0000
     36 H5         8.4666    7.6388   -1.0721 H         1 RES1    0.0000
     37 H6         8.6754   11.3687    1.6777 H         1 RES1    0.0000
     38 H7         6.4027   11.9150    1.9197 H         1 RES1    0.0000
     39 H8         4.8178   10.2314    1.8676 H         1 RES1    0.0000
     40 H9         5.4264    8.0004    1.7398 H         1 RES1    0.0000
     41 H10        6.8902    3.9799    8.2868 H         1 RES1    0.0000
     42 H11        7.4947    5.3103    7.5733 H         1 RES1    0.0000
     43 H12        5.4096    2.7901    5.3980 H         1 RES1    0.0000
     44 H13        5.9634    2.4735    6.8461 H         1 RES1    0.0000
     45 H14        9.2895    4.0228    8.8874 H         1 RES1    0.0000
     46 H15        9.1517    2.7720    7.8736 H         1 RES1    0.0000
     47 H16        9.5506    4.1154    7.1762 H         1 RES1    0.0000
     48 H17        6.6866    0.6423    5.6238 H         1 RES1    0.0000
     49 H18        7.5867    1.5098    4.8073 H         1 RES1    0.0000
     50 H19        7.8458    1.1878    6.4403 H         1 RES1    0.0000
     51 H20        8.7247    7.4902    3.9647 H         1 RES1    0.0000
@<TRIPOS>BOND
     1    1   17 1
     2    2    8 1
     3    3    8 2
     4    4    7 2
     5    5    7 2
     6    6   10 1
     7    7   23 1
     8    8   26 1
     9    9    2 1
    10   10   11 1
    11   11   45 1
    12   12    6 1
    13   13   12 1
    14   14   15 ar
    15   15    6 1
    16   16   15 ar
    17   17   16 ar
    18   18    9 1
    19   19   14 ar
    20   20    1 1
    21   21   20 ar
    22   22   21 ar
    23   23   22 ar
    24   24   23 ar
    25   25    9 1
    26   26   27 ar
    27   27   28 ar
    28   28   29 ar
    29   29   30 ar
    30   30   31 ar
    31   31    9 1
    32   32   14 1
    33   33   16 1
    34   34   21 1
    35   35   22 1
    36   36   24 1
    37   37   27 1
    38   38   28 1
    39   39   29 1
    40   40   30 1
    41   41   10 1
    42   42   10 1
    43   43   12 1
    44   44   12 1
    45   46   11 1
    46   47   11 1
    47   48   13 1
    48   49   13 1
    49   50   13 1
    50   51   19 1
    51   17   18 ar
    52   18   19 ar
    53   20   25 ar
    54   24   25 ar
    55   26   31 ar
@<TRIPOS>SUBSTRUCTURE
     1 RES1 1

@<TRIPOS>CRYSIN
   8.3420    9.8610   12.7350  80.4100  79.9100  80.9600   2 1

