# MOL2 file generated by ConQuest
# Please check atom types

@<TRIPOS>MOLECULE
HICNAL
    74    78     2
SMALL
NO_CHARGES
****
Generated from CSD

@<TRIPOS>ATOM
      1 O1         9.5747    6.3143   10.7272 O.2       1 RES1    0.0000
      2 O2         9.5027    6.1372    8.5692 O.2       1 RES1    0.0000
      3 N1         9.1549    3.4968   11.1350 N.pl3     1 RES1    0.0000
      4 H1         9.1210    4.1323   11.7168 H         1 RES1    0.0000
      5 H2         9.0680    2.7396   11.5370 H         1 RES1    0.0000
      6 N2         9.9021    5.7771    9.6699 N.pl3     1 RES1    0.0000
      7 N3        10.3069    0.3426   11.7280 N.1       1 RES1    0.0000
      8 C1        10.3531    3.5280   10.5005 C.ar      1 RES1    0.0000
      9 C2        10.8096    4.6287    9.7570 C.ar      1 RES1    0.0000
     10 C3        12.0173    4.6783    9.0589 C.ar      1 RES1    0.0000
     11 C4        12.8664    3.5542    9.1150 C.ar      1 RES1    0.0000
     12 C5        12.4398    2.4389    9.8165 C.ar      1 RES1    0.0000
     13 H3        12.9873    1.6876    9.8445 H         1 RES1    0.0000
     14 C6        11.2131    2.4087   10.4795 C.ar      1 RES1    0.0000
     15 C7        10.7539    1.2341   11.1588 C.1       1 RES1    0.0000
     16 C8        12.3895    5.9260    8.3236 C.ar      1 RES1    0.0000
     17 C9        12.5675    7.1143    9.0064 C.ar      1 RES1    0.0000
     18 H4        12.4479    7.1338    9.9285 H         1 RES1    0.0000
     19 C10       12.9180    8.2773    8.3411 C.ar      1 RES1    0.0000
     20 H5        13.0647    9.0627    8.8150 H         1 RES1    0.0000
     21 C11       13.0457    8.2579    6.9731 C.ar      1 RES1    0.0000
     22 H6        13.2658    9.0394    6.5202 H         1 RES1    0.0000
     23 C12       12.8487    7.0812    6.2611 C.ar      1 RES1    0.0000
     24 H7        12.9302    7.0764    5.3343 H         1 RES1    0.0000
     25 C13       12.5294    5.9153    6.9381 C.ar      1 RES1    0.0000
     26 H8        12.4072    5.1231    6.4665 H         1 RES1    0.0000
     27 C14       14.2140    3.5211    8.4756 C.ar      1 RES1    0.0000
     28 C15       15.1486    4.5537    8.6516 C.ar      1 RES1    0.0000
     29 H9        14.9177    5.3031    9.1512 H         1 RES1    0.0000
     30 C16       16.4107    4.4710    8.0913 C.ar      1 RES1    0.0000
     31 H10       17.0220    5.1601    8.2197 H         1 RES1    0.0000
     32 C17       16.7680    3.3615    7.3349 C.ar      1 RES1    0.0000
     33 H11       17.6130    3.3158    6.9474 H         1 RES1    0.0000
     34 C18       15.8754    2.3328    7.1622 C.ar      1 RES1    0.0000
     35 H12       16.1172    1.5873    6.6626 H         1 RES1    0.0000
     36 C19       14.5957    2.4068    7.7411 C.ar      1 RES1    0.0000
     37 H13       13.9980    1.7022    7.6291 H         1 RES1    0.0000
     38 O3         7.4256   11.1883   12.5397 O.2       2 RES2    0.0000
     39 O4         7.6484   10.9391   14.6822 O.2       2 RES2    0.0000
     40 N4         7.8739    8.3396   12.1388 N.pl3     2 RES2    0.0000
     41 H14        8.4023    9.0179   12.1580 H         2 RES2    0.0000
     42 H15        8.0939    7.6350   11.6981 H         2 RES2    0.0000
     43 N5         7.1702   10.6248   13.6086 N.pl3     2 RES2    0.0000
     44 N6         6.7151    5.1669   11.6266 N.1       2 RES2    0.0000
     45 C20        6.6947    8.3815   12.8011 C.ar      2 RES2    0.0000
     46 C21        6.2518    9.4802   13.5426 C.ar      2 RES2    0.0000
     47 C22        5.0455    9.5425   14.2389 C.ar      2 RES2    0.0000
     48 C23        4.1774    8.4360   14.1918 C.ar      2 RES2    0.0000
     49 C24        4.6162    7.3041   13.4816 C.ar      2 RES2    0.0000
     50 H16        4.0660    6.5557   13.4489 H         2 RES2    0.0000
     51 C25        5.8280    7.2622   12.8373 C.ar      2 RES2    0.0000
     52 C26        6.2790    6.0710   12.1650 C.1       2 RES2    0.0000
     53 C27        4.7086   10.7727   15.0175 C.ar      2 RES2    0.0000
     54 C28        4.5496   11.9902   14.3500 C.ar      2 RES2    0.0000
     55 H17        4.6732   12.0408   13.4303 H         2 RES2    0.0000
     56 C29        4.2032   13.1279   15.0807 C.ar      2 RES2    0.0000
     57 H18        4.0891   13.9376   14.6372 H         2 RES2    0.0000
     58 C30        4.0266   13.0773   16.4277 C.ar      2 RES2    0.0000
     59 H19        3.8052   13.8461   16.9040 H         2 RES2    0.0000
     60 C31        4.1801   11.8734   17.0837 C.ar      2 RES2    0.0000
     61 H20        4.0592   11.8316   18.0035 H         2 RES2    0.0000
     62 C32        4.5157   10.7192   16.3787 C.ar      2 RES2    0.0000
     63 H21        4.6094    9.9114   16.8293 H         2 RES2    0.0000
     64 C33        2.8257    8.4253   14.8225 C.ar      2 RES2    0.0000
     65 C34        1.9481    9.4919   14.6862 C.ar      2 RES2    0.0000
     66 H22        2.2171   10.2452   14.2123 H         2 RES2    0.0000
     67 C35        0.6833    9.4569   15.2418 C.ar      2 RES2    0.0000
     68 H23        0.1168   10.1878   15.1531 H         2 RES2    0.0000
     69 C36        0.2608    8.3406   15.9305 C.ar      2 RES2    0.0000
     70 H24       -0.5882    8.3163   16.3087 H         2 RES2    0.0000
     71 C37        1.1099    7.2515   16.0566 C.ar      2 RES2    0.0000
     72 H25        0.8233    6.4895   16.5048 H         2 RES2    0.0000
     73 C38        2.3706    7.2953   15.5220 C.ar      2 RES2    0.0000
     74 H26        2.9357    6.5635   15.6247 H         2 RES2    0.0000
@<TRIPOS>BOND
     1    1    6 2
     2    2    6 2
     3    3    4 1
     4    5    3 1
     5    6    9 1
     6    7   15 3
     7    8    3 1
     8    9    8 ar
     9   10    9 ar
    10   11   10 ar
    11   12   11 ar
    12   13   12 1
    13   14    8 ar
    14   15   14 1
    15   16   10 1
    16   17   16 ar
    17   18   17 1
    18   19   17 ar
    19   20   19 1
    20   21   19 ar
    21   22   21 1
    22   23   21 ar
    23   24   23 1
    24   25   16 ar
    25   26   25 1
    26   27   11 1
    27   28   27 ar
    28   29   28 1
    29   30   28 ar
    30   31   30 1
    31   32   30 ar
    32   33   32 1
    33   34   32 ar
    34   35   34 1
    35   36   27 ar
    36   37   36 1
    37   38   43 2
    38   39   43 2
    39   40   41 1
    40   42   40 1
    41   43   46 1
    42   44   52 3
    43   45   40 1
    44   46   45 ar
    45   47   46 ar
    46   48   47 ar
    47   49   48 ar
    48   50   49 1
    49   51   45 ar
    50   52   51 1
    51   53   47 1
    52   54   53 ar
    53   55   54 1
    54   56   54 ar
    55   57   56 1
    56   58   56 ar
    57   59   58 1
    58   60   58 ar
    59   61   60 1
    60   62   53 ar
    61   63   62 1
    62   64   48 1
    63   65   64 ar
    64   66   65 1
    65   67   65 ar
    66   68   67 1
    67   69   67 ar
    68   70   69 1
    69   71   69 ar
    70   72   71 1
    71   73   64 ar
    72   74   73 1
    73   12   14 ar
    74   23   25 ar
    75   34   36 ar
    76   49   51 ar
    77   60   62 ar
    78   71   73 ar
@<TRIPOS>SUBSTRUCTURE
     1 RES1 1
     2 RES2 38

@<TRIPOS>CRYSIN
  13.5850    9.7323   23.3448  90.0000  90.0000  90.0000  33 1

