# MOL2 file generated by ConQuest
# Please check atom types

@<TRIPOS>MOLECULE
HICQOZ
    72    74     2
SMALL
USER_CHARGES
****
Generated from CSD

@<TRIPOS>ATOM
      1 O1        -0.0570   23.3618   14.7967 O.2       1 RES1   -1.0000
      2 O2        -2.9701   21.5348   17.8654 O.2       1 RES1    0.0000
      3 N1        -0.6470   22.5126   15.5541 N.pl3     1 RES1    1.0000
      4 N2        -2.0449   21.6426   16.9928 N.3       1 RES1    0.0000
      5 N3        -1.4694   25.1112   16.9764 N.ar      1 RES1    0.0000
      6 C1        -1.1622   27.4296   17.5840 C.3       1 RES1    0.0000
      7 C2        -2.0518   26.2974   17.1753 C.ar      1 RES1    0.0000
      8 C3        -3.4206   26.4823   17.0285 C.ar      1 RES1    0.0000
      9 C4        -4.2170   25.4327   16.6873 C.ar      1 RES1    0.0000
     10 C5        -3.6352   24.1962   16.4946 C.ar      1 RES1    0.0000
     11 C6        -2.2645   24.0876   16.6415 C.ar      1 RES1    0.0000
     12 C7        -1.6326   22.7791   16.4192 C.2       1 RES1    0.0000
     13 C8        -1.1752   20.4644   16.6154 C.3       1 RES1    0.0000
     14 C9        -0.4905   21.0246   15.3467 C.3       1 RES1    0.0000
     15 C10       -0.2361   20.2271   17.7759 C.3       1 RES1    0.0000
     16 C11       -2.0519   19.2474   16.4020 C.3       1 RES1    0.0000
     17 C12        0.9797   20.6811   15.2059 C.3       1 RES1    0.0000
     18 C13       -1.2148   20.7100   14.0517 C.3       1 RES1    0.0000
     19 H1        -0.2605   27.1275   17.6444 H         1 RES1    0.0000
     20 H2        -1.2032   28.1442   16.9454 H         1 RES1    0.0000
     21 H3        -1.4101   27.7696   18.4365 H         1 RES1    0.0000
     22 H4        -3.7984   27.3416   17.1629 H         1 RES1    0.0000
     23 H5        -5.1549   25.5491   16.5882 H         1 RES1    0.0000
     24 H6        -4.1524   23.4356   16.2465 H         1 RES1    0.0000
     25 H7         0.3493   19.5029   17.5978 H         1 RES1    0.0000
     26 H8         0.3038   21.0011   17.9240 H         1 RES1    0.0000
     27 H9        -0.7171   20.0380   18.5763 H         1 RES1    0.0000
     28 H10       -1.5441   18.4863   16.1533 H         1 RES1    0.0000
     29 H11       -2.5579   19.0481   17.1784 H         1 RES1    0.0000
     30 H12       -2.6774   19.4227   15.7029 H         1 RES1    0.0000
     31 H13        1.1177   19.7437   15.0816 H         1 RES1    0.0000
     32 H14        1.3711   21.1349   14.4603 H         1 RES1    0.0000
     33 H15        1.4668   20.9476   15.9825 H         1 RES1    0.0000
     34 H16       -1.1622   19.7705   13.8701 H         1 RES1    0.0000
     35 H17       -2.1362   20.9476   14.1186 H         1 RES1    0.0000
     36 H18       -0.8274   21.1884   13.3265 H         1 RES1    0.0000
     37 O3         0.0012   17.5403   14.2230 O.2       2 RES2   -1.0000
     38 O4         3.0410   14.3838   15.6502 O.2       2 RES2    0.0000
     39 N4         0.9579   16.6848   14.2166 N.pl3     2 RES2    1.0000
     40 N5         2.4046   15.1968   14.9017 N.3       2 RES2    0.0000
     41 N6         1.5702   16.5620   17.5737 N.ar      2 RES2    0.0000
     42 C14        1.9069   17.2533   19.8561 C.3       2 RES2    0.0000
     43 C15        1.0208   16.6901   18.7902 C.ar      2 RES2    0.0000
     44 C16       -0.3000   16.3493   19.0477 C.ar      2 RES2    0.0000
     45 C17       -1.0822   15.8752   18.0380 C.ar      2 RES2    0.0000
     46 C18       -0.5410   15.7380   16.7828 C.ar      2 RES2    0.0000
     47 C19        0.7836   16.0903   16.6079 C.ar      2 RES2    0.0000
     48 C20        1.3851   15.9911   15.2664 C.2       2 RES2    0.0000
     49 C21        2.5760   15.1914   13.3961 C.3       2 RES2    0.0000
     50 C22        1.8693   16.5216   13.0308 C.3       2 RES2    0.0000
     51 C23        1.8514   13.9651   12.8914 C.3       2 RES2    0.0000
     52 C24        4.0454   15.1109   13.0478 C.3       2 RES2    0.0000
     53 C25        1.0439   16.4943   11.7664 C.3       2 RES2    0.0000
     54 C26        2.7902   17.7364   13.0454 C.3       2 RES2    0.0000
     55 H19        2.7804   17.4430   19.5238 H         2 RES2    0.0000
     56 H20        1.5526   18.0583   20.2072 H         2 RES2    0.0000
     57 H21        1.9929   16.6404   20.5799 H         2 RES2    0.0000
     58 H22       -0.6552   16.4531   19.9276 H         2 RES2    0.0000
     59 H23       -1.9903   15.6505   18.1880 H         2 RES2    0.0000
     60 H24       -1.0571   15.3830   16.0601 H         2 RES2    0.0000
     61 H25        1.9293   13.8848   11.9441 H         2 RES2    0.0000
     62 H26        2.2427   13.1892   13.2644 H         2 RES2    0.0000
     63 H27        0.9303   13.9918   13.1401 H         2 RES2    0.0000
     64 H28        4.1750   15.1154   12.0995 H         2 RES2    0.0000
     65 H29        4.5075   15.8645   13.4197 H         2 RES2    0.0000
     66 H30        4.4263   14.3129   13.4041 H         2 RES2    0.0000
     67 H31        1.5976   16.3996   10.9967 H         2 RES2    0.0000
     68 H32        0.4304   15.7575   11.7733 H         2 RES2    0.0000
     69 H33        0.5560   17.3092   11.6646 H         2 RES2    0.0000
     70 H34        3.4079   17.7105   12.3169 H         2 RES2    0.0000
     71 H35        2.2899   18.5398   12.9848 H         2 RES2    0.0000
     72 H36        3.2919   17.7640   13.8546 H         2 RES2    0.0000
@<TRIPOS>BOND
     1    1    3 1
     2    2    4 1
     3    3   12 2
     4    4   12 1
     5    5    7 ar
     6    6    7 1
     7    7    8 ar
     8    8    9 ar
     9    9   10 ar
    10   10   11 ar
    11   11    5 ar
    12   12   11 1
    13   13    4 1
    14   14    3 1
    15   15   13 1
    16   16   13 1
    17   17   14 1
    18   18   14 1
    19   19    6 1
    20   20    6 1
    21   21    6 1
    22   22    8 1
    23   23    9 1
    24   24   10 1
    25   25   15 1
    26   26   15 1
    27   27   15 1
    28   28   16 1
    29   29   16 1
    30   30   16 1
    31   31   17 1
    32   32   17 1
    33   33   17 1
    34   34   18 1
    35   35   18 1
    36   36   18 1
    37   37   39 1
    38   38   40 1
    39   39   48 2
    40   40   48 1
    41   41   43 ar
    42   42   43 1
    43   43   44 ar
    44   44   45 ar
    45   45   46 ar
    46   46   47 ar
    47   47   41 ar
    48   48   47 1
    49   49   40 1
    50   50   39 1
    51   51   49 1
    52   52   49 1
    53   53   50 1
    54   54   50 1
    55   55   42 1
    56   56   42 1
    57   57   42 1
    58   58   44 1
    59   59   45 1
    60   60   46 1
    61   61   51 1
    62   62   51 1
    63   63   51 1
    64   64   52 1
    65   65   52 1
    66   66   52 1
    67   67   53 1
    68   68   53 1
    69   69   53 1
    70   70   54 1
    71   71   54 1
    72   72   54 1
    73   13   14 1
    74   49   50 1
@<TRIPOS>SUBSTRUCTURE
     1 RES1 1
     2 RES2 37

@<TRIPOS>CRYSIN
   6.3698   26.7530   15.6100  90.0000  95.7290  90.0000  14 1

