# MOL2 file generated by ConQuest
# Please check atom types

@<TRIPOS>MOLECULE
HICQIT
    66    68     2
SMALL
USER_CHARGES
****
Generated from CSD

@<TRIPOS>ATOM
      1 O1         2.7364   21.7015    1.5051 O.2       1 RES1   -1.0000
      2 O2         0.0758   24.7770   -0.6367 O.2       1 RES1    0.0000
      3 N1         1.8776   22.2080    0.7182 N.pl3     1 RES1    1.0000
      4 N2         0.6034   23.6750   -0.2886 N.3       1 RES1    0.0000
      5 N3         4.1515   25.5468    2.3612 N.ar      1 RES1    0.0000
      6 C1         3.4141   26.5936    2.7229 C.ar      1 RES1    0.0000
      7 C2         2.0748   26.7154    2.4638 C.ar      1 RES1    0.0000
      8 C3         1.4344   25.6988    1.7892 C.ar      1 RES1    0.0000
      9 C4         2.1639   24.6013    1.3980 C.ar      1 RES1    0.0000
     10 C5         3.5069   24.5804    1.7084 C.ar      1 RES1    0.0000
     11 C6         1.5607   23.5223    0.6400 C.2       1 RES1    0.0000
     12 C7         0.3731   22.4249   -1.0786 C.3       1 RES1    0.0000
     13 C8         0.9429   21.3559   -0.1129 C.3       1 RES1    0.0000
     14 C9         1.1625   22.5921   -2.3599 C.3       1 RES1    0.0000
     15 C10       -1.0983   22.2822   -1.3890 C.3       1 RES1    0.0000
     16 C11       -0.0748   20.7867    0.8516 C.3       1 RES1    0.0000
     17 C12        1.7230   20.2320   -0.7529 C.3       1 RES1    0.0000
     18 H1         3.8298   27.2931    3.2064 H         1 RES1    0.0000
     19 H2         1.6007   27.5051    2.7319 H         1 RES1    0.0000
     20 H3         0.5019   25.7482    1.6160 H         1 RES1    0.0000
     21 H4         4.0244   23.8398    1.4365 H         1 RES1    0.0000
     22 H5         2.0914   22.6887   -2.1932 H         1 RES1    0.0000
     23 H6         1.0440   21.8405   -2.9371 H         1 RES1    0.0000
     24 H7         0.8760   23.3551   -2.8345 H         1 RES1    0.0000
     25 H8        -1.6080   22.1737   -0.5900 H         1 RES1    0.0000
     26 H9        -1.4202   23.0522   -1.8469 H         1 RES1    0.0000
     27 H10       -1.2460   21.5376   -1.9495 H         1 RES1    0.0000
     28 H11       -0.5767   21.4770    1.2569 H         1 RES1    0.0000
     29 H12       -0.6968   20.2048    0.4104 H         1 RES1    0.0000
     30 H13        0.3353   20.2956    1.5519 H         1 RES1    0.0000
     31 H14        2.3682   20.5683   -1.3595 H         1 RES1    0.0000
     32 H15        2.1866   19.7201   -0.1026 H         1 RES1    0.0000
     33 H16        1.1582   19.6292   -1.2313 H         1 RES1    0.0000
     34 O3         1.2164   17.8596    2.2682 O.2       2 RES2   -1.0000
     35 O4         3.9473   14.7422    4.2697 O.2       2 RES2    0.0000
     36 N4         2.0757   17.3313    3.0487 N.pl3     2 RES2    1.0000
     37 N5         3.3826   15.8482    4.0016 N.3       2 RES2    0.0000
     38 N6        -0.0522   13.9916    1.2261 N.ar      2 RES2    0.0000
     39 C13        0.7526   13.2779    0.4617 C.ar      2 RES2    0.0000
     40 C14        2.1226   13.3382    0.5207 C.ar      2 RES2    0.0000
     41 C15        2.7059   14.2278    1.3980 C.ar      2 RES2    0.0000
     42 C16        1.8854   15.0154    2.1701 C.ar      2 RES2    0.0000
     43 C17        0.5207   14.8507    2.0611 C.ar      2 RES2    0.0000
     44 C18        2.4340   16.0354    3.0666 C.2       2 RES2    0.0000
     45 C19        3.5656   17.0750    4.8545 C.3       2 RES2    0.0000
     46 C20        2.9690   18.1734    3.9285 C.3       2 RES2    0.0000
     47 C21        2.7787   16.8378    6.1192 C.3       2 RES2    0.0000
     48 C22        5.0355   17.2368    5.1919 C.3       2 RES2    0.0000
     49 C23        3.9874   18.8029    2.9948 C.3       2 RES2    0.0000
     50 C24        2.1669   19.2503    4.6083 C.3       2 RES2    0.0000
     51 H17        0.3619   12.6923   -0.1796 H         2 RES2    0.0000
     52 H18        2.6495   12.7832   -0.0385 H         2 RES2    0.0000
     53 H19        3.6527   14.2978    1.4750 H         2 RES2    0.0000
     54 H20       -0.0400   15.3580    2.6293 H         2 RES2    0.0000
     55 H21        1.8501   16.7515    5.9383 H         2 RES2    0.0000
     56 H22        3.0655   16.0548    6.5796 H         2 RES2    0.0000
     57 H23        2.8715   17.5694    6.7207 H         2 RES2    0.0000
     58 H24        5.5334   17.3876    4.3864 H         2 RES2    0.0000
     59 H25        5.1812   17.9934    5.7588 H         2 RES2    0.0000
     60 H26        5.3839   16.4486    5.6049 H         2 RES2    0.0000
     61 H27        4.5058   18.1449    2.5523 H         2 RES2    0.0000
     62 H28        3.5777   19.3263    2.3086 H         2 RES2    0.0000
     63 H29        4.5974   19.3566    3.4501 H         2 RES2    0.0000
     64 H30        1.5312   18.8719    5.1944 H         2 RES2    0.0000
     65 H31        2.7103   19.8110    5.1303 H         2 RES2    0.0000
     66 H32        1.6783   19.7807    3.9888 H         2 RES2    0.0000
@<TRIPOS>BOND
     1    1    3 1
     2    2    4 1
     3    3   11 2
     4    4   11 1
     5    5    6 ar
     6    6    7 ar
     7    7    8 ar
     8    8    9 ar
     9    9   10 ar
    10   10    5 ar
    11   11    9 1
    12   12    4 1
    13   13    3 1
    14   14   12 1
    15   15   12 1
    16   16   13 1
    17   17   13 1
    18   18    6 1
    19   19    7 1
    20   20    8 1
    21   21   10 1
    22   22   14 1
    23   23   14 1
    24   24   14 1
    25   25   15 1
    26   26   15 1
    27   27   15 1
    28   28   16 1
    29   29   16 1
    30   30   16 1
    31   31   17 1
    32   32   17 1
    33   33   17 1
    34   34   36 1
    35   35   37 1
    36   36   44 2
    37   37   44 1
    38   38   39 ar
    39   39   40 ar
    40   40   41 ar
    41   41   42 ar
    42   42   43 ar
    43   43   38 ar
    44   44   42 1
    45   45   37 1
    46   46   36 1
    47   47   45 1
    48   48   45 1
    49   49   46 1
    50   50   46 1
    51   51   39 1
    52   52   40 1
    53   53   41 1
    54   54   43 1
    55   55   47 1
    56   56   47 1
    57   57   47 1
    58   58   48 1
    59   59   48 1
    60   60   48 1
    61   61   49 1
    62   62   49 1
    63   63   49 1
    64   64   50 1
    65   65   50 1
    66   66   50 1
    67   12   13 1
    68   45   46 1
@<TRIPOS>SUBSTRUCTURE
     1 RES1 1
     2 RES2 34

@<TRIPOS>CRYSIN
   6.1729   30.2920   13.0640  90.0000 100.9590  90.0000  14 1

