# MOL2 file generated by ConQuest
# Please check atom types

@<TRIPOS>MOLECULE
HICQEP01
    66    68     2
SMALL
USER_CHARGES
****
Generated from CSD

@<TRIPOS>ATOM
      1 C1         0.0008    3.6560    3.7550 C.ar      1 RES1    0.0000
      2 H1         0.5600    2.9836    3.3840 H         1 RES1    0.0000
      3 C2        -1.3713    3.5177    3.6165 C.ar      1 RES1    0.0000
      4 H2        -1.7379    2.7654    3.1666 H         1 RES1    0.0000
      5 C3        -2.1955    4.4883    4.1417 C.ar      1 RES1    0.0000
      6 H3        -3.1394    4.4186    4.0631 H         1 RES1    0.0000
      7 C4        -1.6166    5.5690    4.7869 C.ar      1 RES1    0.0000
      8 H4        -2.1546    6.2643    5.1469 H         1 RES1    0.0000
      9 C5        -0.2378    5.6132    4.8955 C.ar      1 RES1    0.0000
     10 C6         0.4034    6.6963    5.6553 C.2       1 RES1    0.0000
     11 C7         1.0033    8.8495    6.4192 C.3       1 RES1    0.0000
     12 C8         2.0601    9.4113    5.4717 C.3       1 RES1    0.0000
     13 H5         1.6227    9.9349    4.7682 H         1 RES1    0.0000
     14 H6         2.5608    8.6731    5.0661 H         1 RES1    0.0000
     15 H7         2.6750    9.9869    5.9728 H         1 RES1    0.0000
     16 C9         0.2223    9.9873    7.0552 C.3       1 RES1    0.0000
     17 H8         0.8045   10.4776    7.6728 H         1 RES1    0.0000
     18 H9        -0.5430    9.6236    7.5471 H         1 RES1    0.0000
     19 H10       -0.0973   10.5950    6.3560 H         1 RES1    0.0000
     20 C10        1.5503    7.7812    7.4037 C.3       1 RES1    0.0000
     21 C11        3.0189    7.9264    7.7728 C.3       1 RES1    0.0000
     22 H11        3.5655    7.8849    6.9605 H         1 RES1    0.0000
     23 H12        3.2770    7.2001    8.3779 H         1 RES1    0.0000
     24 H13        3.1600    8.7881    8.2179 H         1 RES1    0.0000
     25 C12        0.7009    7.6017    8.6616 C.3       1 RES1    0.0000
     26 H14        0.8131    8.3809    9.2452 H         1 RES1    0.0000
     27 H15        0.9878    6.7938    9.1367 H         1 RES1    0.0000
     28 H16       -0.2419    7.5150    8.4095 H         1 RES1    0.0000
     29 N1         0.5795    4.6834    4.3818 N.ar      1 RES1    0.0000
     30 N2         0.0802    8.0021    5.5807 N.pl3     1 RES1    1.0000
     31 N3         1.3501    6.5252    6.5986 N.3       1 RES1    0.0000
     32 O1        -0.7898    8.5164    4.7959 O.2       1 RES1   -1.0000
     33 O2         1.8618    5.4160    6.9647 O.2       1 RES1    0.0000
     34 C13       -0.9424    1.7089    0.5192 C.ar      2 RES2    0.0000
     35 H17       -0.3580    2.2124   -0.0352 H         2 RES2    0.0000
     36 C14       -2.3043    1.9161    0.3856 C.ar      2 RES2    0.0000
     37 H18       -2.6398    2.5354   -0.2518 H         2 RES2    0.0000
     38 C15       -3.1636    1.2057    1.1959 C.ar      2 RES2    0.0000
     39 H19       -4.1024    1.3378    1.1400 H         2 RES2    0.0000
     40 C16       -2.6299    0.2940    2.0943 C.ar      2 RES2    0.0000
     41 H20       -3.1939   -0.2137    2.6660 H         2 RES2    0.0000
     42 C17       -1.2527    0.1431    2.1369 C.ar      2 RES2    0.0000
     43 C18       -0.6551   -0.8709    3.0256 C.2       2 RES2    0.0000
     44 C19       -0.0844   -2.9964    3.8757 C.3       2 RES2    0.0000
     45 C20       -0.8931   -4.0997    4.5358 C.3       2 RES2    0.0000
     46 H21       -1.2105   -4.7260    3.8521 H         2 RES2    0.0000
     47 H22       -1.6615   -3.7075    5.0012 H         2 RES2    0.0000
     48 H23       -0.3300   -4.5770    5.1801 H         2 RES2    0.0000
     49 C21        0.9811   -3.6079    2.9688 C.3       2 RES2    0.0000
     50 H24        1.5812   -4.1696    3.5024 H         2 RES2    0.0000
     51 H25        1.4969   -2.8920    2.5422 H         2 RES2    0.0000
     52 H26        0.5490   -4.1543    2.2795 H         2 RES2    0.0000
     53 C22        0.4640   -1.8947    4.8286 C.3       2 RES2    0.0000
     54 C23       -0.3782   -1.6861    6.0812 C.3       2 RES2    0.0000
     55 H27       -1.3167   -1.5640    5.8273 H         2 RES2    0.0000
     56 H28       -0.0626   -0.8904    6.5584 H         2 RES2    0.0000
     57 H29       -0.2967   -2.4700    6.6638 H         2 RES2    0.0000
     58 C24        1.9258   -2.0348    5.2085 C.3       2 RES2    0.0000
     59 H30        2.0598   -2.8815    5.6835 H         2 RES2    0.0000
     60 H31        2.1850   -1.2897    5.7898 H         2 RES2    0.0000
     61 H32        2.4764   -2.0241    4.3981 H         2 RES2    0.0000
     62 N4        -0.4008    0.8441    1.3808 N.ar      2 RES2    0.0000
     63 N5         0.2650   -0.6613    3.9846 N.3       2 RES2    0.0000
     64 N6        -0.9762   -2.1761    2.9829 N.pl3     2 RES2    1.0000
     65 O3        -1.7972   -2.7166    2.1633 O.2       2 RES2   -1.0000
     66 O4         0.7752    0.4671    4.3030 O.2       2 RES2    0.0000
@<TRIPOS>BOND
     1    1    2 1
     2    3    1 ar
     3    4    3 1
     4    5    3 ar
     5    6    5 1
     6    7    5 ar
     7    8    7 1
     8    9    7 ar
     9   10    9 1
    10   11   12 1
    11   12   13 1
    12   14   12 1
    13   15   12 1
    14   16   11 1
    15   17   16 1
    16   18   16 1
    17   19   16 1
    18   20   11 1
    19   21   20 1
    20   22   21 1
    21   23   21 1
    22   24   21 1
    23   25   20 1
    24   26   25 1
    25   27   25 1
    26   28   25 1
    27   29    1 ar
    28   30   10 2
    29   31   10 1
    30   32   30 1
    31   33   31 1
    32   34   35 1
    33   36   34 ar
    34   37   36 1
    35   38   36 ar
    36   39   38 1
    37   40   38 ar
    38   41   40 1
    39   42   40 ar
    40   43   42 1
    41   44   45 1
    42   45   46 1
    43   47   45 1
    44   48   45 1
    45   49   44 1
    46   50   49 1
    47   51   49 1
    48   52   49 1
    49   53   44 1
    50   54   53 1
    51   55   54 1
    52   56   54 1
    53   57   54 1
    54   58   53 1
    55   59   58 1
    56   60   58 1
    57   61   58 1
    58   62   34 ar
    59   63   43 1
    60   64   43 2
    61   65   64 1
    62   66   63 1
    63    9   29 ar
    64   11   30 1
    65   20   31 1
    66   42   62 ar
    67   44   64 1
    68   53   63 1
@<TRIPOS>SUBSTRUCTURE
     1 RES1 1
     2 RES2 34

@<TRIPOS>CRYSIN
   6.1471   30.0605   12.9583  90.0000 100.2690  90.0000  14 1

