# MOL2 file generated by ConQuest
# Please check atom types

@<TRIPOS>MOLECULE
HICQEP
    66    68     2
SMALL
USER_CHARGES
****
Generated from CSD

@<TRIPOS>ATOM
      1 O1         2.7162    6.6005    1.5663 O.2       1 RES1   -1.0000
      2 O2         0.0587    9.6709   -0.6292 O.2       1 RES1    0.0000
      3 N1         1.8487    7.0992    0.7746 N.pl3     1 RES1    1.0000
      4 N2         0.5754    8.5589   -0.2598 N.3       1 RES1    0.0000
      5 N3         1.3181   10.4146    1.9536 N.ar      1 RES1    0.0000
      6 C1         1.8811   11.4533    2.5721 C.ar      1 RES1    0.0000
      7 C2         3.2446   11.5975    2.7358 C.ar      1 RES1    0.0000
      8 C3         4.0753   10.6427    2.2203 C.ar      1 RES1    0.0000
      9 C4         3.5174    9.5503    1.5850 C.ar      1 RES1    0.0000
     10 C5         2.1448    9.4961    1.4523 C.ar      1 RES1    0.0000
     11 C6         1.5245    8.4002    0.6959 C.2       1 RES1    0.0000
     12 C7         0.9327    6.2338   -0.0580 C.3       1 RES1    0.0000
     13 C8         0.3843    7.2982   -1.0502 C.3       1 RES1    0.0000
     14 C9        -0.1175    5.6775    0.8904 C.3       1 RES1    0.0000
     15 C10        1.7211    5.0900   -0.6804 C.3       1 RES1    0.0000
     16 C11       -1.0859    7.1501   -1.4317 C.3       1 RES1    0.0000
     17 C12        1.2380    7.4787   -2.3169 C.3       1 RES1    0.0000
     18 H1         1.3178   12.2616    2.7448 H         1 RES1    0.0000
     19 H2         3.6338   12.5432    3.1314 H         1 RES1    0.0000
     20 H3         5.0776   10.7050    2.2422 H         1 RES1    0.0000
     21 H4         4.0699    8.7185    1.2242 H         1 RES1    0.0000
     22 H5        -0.6618    6.3443    1.2371 H         1 RES1    0.0000
     23 H6        -0.6764    4.8453    0.3350 H         1 RES1    0.0000
     24 H7         0.3926    5.0663    1.5850 H         1 RES1    0.0000
     25 H8         2.3544    5.2935   -1.1211 H         1 RES1    0.0000
     26 H9         1.8759    4.2305    0.1289 H         1 RES1    0.0000
     27 H10        1.0245    4.4546   -1.2242 H         1 RES1    0.0000
     28 H11       -1.6889    7.1952   -0.5928 H         1 RES1    0.0000
     29 H12       -1.5200    7.9008   -1.9072 H         1 RES1    0.0000
     30 H13       -1.2325    6.3261   -1.7912 H         1 RES1    0.0000
     31 H14        2.4326    7.5314   -2.0231 H         1 RES1    0.0000
     32 H15        1.2295    6.6108   -2.9252 H         1 RES1    0.0000
     33 H16        0.8834    8.4762   -2.7319 H         1 RES1    0.0000
     34 O3         3.6860   17.8561    4.2762 O.2       2 RES2   -1.0000
     35 O4         1.1282   14.6848    2.1159 O.2       2 RES2    0.0000
     36 N4         2.8664   17.3195    3.4504 N.pl3     2 RES2    1.0000
     37 N5         1.6330   15.8177    2.4341 N.3       2 RES2    0.0000
     38 N6         2.2832   14.3078    5.0308 N.ar      2 RES2    0.0000
     39 C13        2.8166   13.4220    5.8929 C.ar      2 RES2    0.0000
     40 C14        4.1746   13.2146    6.0372 C.ar      2 RES2    0.0000
     41 C15        5.0341   13.9096    5.2292 C.ar      2 RES2    0.0000
     42 C16        4.5103   14.8366    4.3388 C.ar      2 RES2    0.0000
     43 C17        3.1391   14.9980    4.2873 C.ar      2 RES2    0.0000
     44 C18        2.5505   16.0209    3.3994 C.2       2 RES2    0.0000
     45 C19        1.9790   18.1480    2.5515 C.3       2 RES2    0.0000
     46 C20        1.4383   17.0502    1.6005 C.3       2 RES2    0.0000
     47 C21        0.9228   18.7633    3.4471 C.3       2 RES2    0.0000
     48 C22        2.8011   19.2579    1.9085 C.3       2 RES2    0.0000
     49 C23        2.2848   16.8434    0.3389 C.3       2 RES2    0.0000
     50 C24       -0.0318   17.2023    1.2216 C.3       2 RES2    0.0000
     51 H17        1.9856   12.7128    6.4689 H         2 RES2    0.0000
     52 H18        4.5918   12.5220    6.5333 H         2 RES2    0.0000
     53 H19        6.0074   13.7273    5.2705 H         2 RES2    0.0000
     54 H20        5.0901   15.4383    3.7757 H         2 RES2    0.0000
     55 H21        0.2311   18.0244    3.8401 H         2 RES2    0.0000
     56 H22        1.3990   19.3539    4.0463 H         2 RES2    0.0000
     57 H23        0.3908   19.3206    2.8350 H         2 RES2    0.0000
     58 H24        3.6121   18.9572    1.3531 H         2 RES2    0.0000
     59 H25        2.1500   19.7839    1.3273 H         2 RES2    0.0000
     60 H26        3.0186   20.1200    2.6546 H         2 RES2    0.0000
     61 H27        3.3986   16.8495    0.6185 H         2 RES2    0.0000
     62 H28        2.0041   15.9561   -0.0902 H         2 RES2    0.0000
     63 H29        2.3094   17.6974   -0.2964 H         2 RES2    0.0000
     64 H30       -0.6693   17.2098    2.1907 H         2 RES2    0.0000
     65 H31       -0.1740   18.2516    0.7216 H         2 RES2    0.0000
     66 H32       -0.2729   16.6193    0.7861 H         2 RES2    0.0000
@<TRIPOS>BOND
     1    1    3 1
     2    2    4 1
     3    3   11 2
     4    4   11 1
     5    5    6 ar
     6    6    7 ar
     7    7    8 ar
     8    8    9 ar
     9    9   10 ar
    10   10    5 ar
    11   11   10 1
    12   12    3 1
    13   13    4 1
    14   14   12 1
    15   15   12 1
    16   16   13 1
    17   17   13 1
    18   18    6 1
    19   19    7 1
    20   20    8 1
    21   21    9 1
    22   22   14 1
    23   23   14 1
    24   24   14 1
    25   25   15 1
    26   26   15 1
    27   27   15 1
    28   28   16 1
    29   29   16 1
    30   30   16 1
    31   31   17 1
    32   32   17 1
    33   33   17 1
    34   34   36 1
    35   35   37 1
    36   36   44 2
    37   37   44 1
    38   38   39 ar
    39   39   40 ar
    40   40   41 ar
    41   41   42 ar
    42   42   43 ar
    43   43   38 ar
    44   44   43 1
    45   45   36 1
    46   46   37 1
    47   47   45 1
    48   48   45 1
    49   49   46 1
    50   50   46 1
    51   51   39 1
    52   52   40 1
    53   53   41 1
    54   54   42 1
    55   55   47 1
    56   56   47 1
    57   57   47 1
    58   58   48 1
    59   59   48 1
    60   60   48 1
    61   61   49 1
    62   62   49 1
    63   63   49 1
    64   64   50 1
    65   65   50 1
    66   66   50 1
    67   12   13 1
    68   45   46 1
@<TRIPOS>SUBSTRUCTURE
     1 RES1 1
     2 RES2 34

@<TRIPOS>CRYSIN
   6.1900   30.2830   13.1160  90.0000 100.7400  90.0000  14 1

