# MOL2 file generated by ConQuest
# Please check atom types

@<TRIPOS>MOLECULE
HIDTOF
    82    80     3
SMALL
NO_CHARGES
****
Generated from CSD

@<TRIPOS>ATOM
      1 O1         6.8554   10.9646   15.4066 O.2       1 RES1    0.0000
      2 O2         5.0240    9.6420   15.1654 O.3       1 RES1    0.0000
      3 O3         3.8025   10.2375   12.5717 O.3       1 RES1    0.0000
      4 O4         2.1375   11.5477   11.7909 O.2       1 RES1    0.0000
      5 O5         7.6373   11.8029    7.0824 O.2       1 RES1    0.0000
      6 O6         6.1042   13.1771    6.3988 O.2       1 RES1    0.0000
      7 N1         6.5421   12.3474    7.2030 N.pl3     1 RES1    0.0000
      8 C1         5.6864   10.8244   15.2161 C.2       1 RES1    0.0000
      9 C2         4.4688   11.6823   15.0085 C.3       1 RES1    0.0000
     10 C3         3.7362   10.3486   14.9773 C.3       1 RES1    0.0000
     11 C4         3.0127    9.9060   13.7440 C.3       1 RES1    0.0000
     12 C5         3.2564   11.0824   11.6780 C.2       1 RES1    0.0000
     13 C6         4.1503   11.3822   10.5321 C.ar      1 RES1    0.0000
     14 C7         3.6826   12.2805    9.5627 C.ar      1 RES1    0.0000
     15 C8         4.4555   12.6030    8.4780 C.ar      1 RES1    0.0000
     16 C9         5.7129   12.0212    8.3628 C.ar      1 RES1    0.0000
     17 C10        6.2151   11.1285    9.3116 C.ar      1 RES1    0.0000
     18 C11        5.4196   10.8184   10.4049 C.ar      1 RES1    0.0000
     19 C12        2.7405    8.4004   13.7534 C.3       1 RES1    0.0000
     20 C13        1.8397    7.9810   12.6280 C.2       1 RES1    0.0000
     21 C14        0.5826    7.6193   12.7947 C.2       1 RES1    0.0000
     22 C15       -0.3562    7.2233   11.7058 C.3       1 RES1    0.0000
     23 C16       -0.9010    5.8165   11.8820 C.3       1 RES1    0.0000
     24 H1         4.4551   12.1807   14.1533 H         1 RES1    0.0000
     25 H2         4.2362   12.2632   15.7755 H         1 RES1    0.0000
     26 H3         3.2036   10.2096   15.7929 H         1 RES1    0.0000
     27 H4         2.2116   10.3933   13.7454 H         1 RES1    0.0000
     28 H5         2.7894   12.6933    9.6504 H         1 RES1    0.0000
     29 H6         4.1541   13.2266    7.8092 H         1 RES1    0.0000
     30 H7         7.1726   10.7003    9.2536 H         1 RES1    0.0000
     31 H8         5.7229   10.1936   11.0789 H         1 RES1    0.0000
     32 H9         3.7148    7.8949   13.6724 H         1 RES1    0.0000
     33 H10        2.3405    8.1509   14.6184 H         1 RES1    0.0000
     34 H11        2.2347    7.9825   11.6820 H         1 RES1    0.0000
     35 H12        0.2188    7.5542   13.6819 H         1 RES1    0.0000
     36 H13        0.1200    7.3434   10.7773 H         1 RES1    0.0000
     37 H14       -1.0668    7.8855   11.6503 H         1 RES1    0.0000
     38 H15       -0.1632    5.1731   11.8455 H         1 RES1    0.0000
     39 H16       -1.5399    5.6229   11.1662 H         1 RES1    0.0000
     40 H17       -1.3519    5.7472   12.7502 H         1 RES1    0.0000
     41 O7         4.5530   14.1850   12.7178 O.2       2 RES2    0.0000
     42 O8         6.5723   14.9259   13.4916 O.3       2 RES2    0.0000
     43 O9         7.5538   16.9944   11.6055 O.3       2 RES2    0.0000
     44 O10        8.9987   17.1964    9.8762 O.2       2 RES2    0.0000
     45 O11        3.2863   21.5425    8.8821 O.2       2 RES2    0.0000
     46 O12        4.7073   21.9870    7.3014 O.2       2 RES2    0.0000
     47 N2         4.3599   21.3784    8.3128 N.pl3     2 RES2    0.0000
     48 C17        5.7204   14.3969   12.5613 C.2       2 RES2    0.0000
     49 C18        6.7426   14.2300   11.4963 C.3       2 RES2    0.0000
     50 C19        7.7147   14.7784   12.5326 C.3       2 RES2    0.0000
     51 C20        8.4446   16.0714   12.3042 C.3       2 RES2    0.0000
     52 C21        7.9692   17.4986   10.4314 C.2       2 RES2    0.0000
     53 C22        6.9982   18.5077    9.8984 C.ar      2 RES2    0.0000
     54 C23        7.4031   19.2808    8.8114 C.ar      2 RES2    0.0000
     55 C24        6.5451   20.2446    8.2899 C.ar      2 RES2    0.0000
     56 C25        5.2988   20.3826    8.8729 C.ar      2 RES2    0.0000
     57 C26        4.8680   19.6250    9.9413 C.ar      2 RES2    0.0000
     58 C27        5.7461   18.6719   10.4691 C.ar      2 RES2    0.0000
     59 C28        8.8547   16.7344   13.6089 C.3       2 RES2    0.0000
     60 C29        9.6761   17.9731   13.4692 C.2       2 RES2    0.0000
     61 C30       10.8739   18.1430   13.9978 C.2       2 RES2    0.0000
     62 C31       11.7193   19.3759   13.9391 C.3       2 RES2    0.0000
     63 C32       11.8326   20.0723   15.2501 C.3       2 RES2    0.0000
     64 H18        6.5704   14.8530   10.6821 H         2 RES2    0.0000
     65 H19        6.9112   13.2813   11.1265 H         2 RES2    0.0000
     66 H20        8.3486   14.0753   12.8566 H         2 RES2    0.0000
     67 H21        9.1374   15.9040   11.7138 H         2 RES2    0.0000
     68 H22        8.2764   19.1438    8.3964 H         2 RES2    0.0000
     69 H23        6.8327   20.8192    7.5235 H         2 RES2    0.0000
     70 H24        3.9688   19.7603   10.3487 H         2 RES2    0.0000
     71 H25        5.4098   18.1517   11.2074 H         2 RES2    0.0000
     72 H26        7.9574   16.9371   14.1581 H         2 RES2    0.0000
     73 H27        9.4430   16.0678   14.0629 H         2 RES2    0.0000
     74 H28        9.2505   18.7073   13.0312 H         2 RES2    0.0000
     75 H29       11.2442   17.2511   14.5549 H         2 RES2    0.0000
     76 H30       12.3948   20.8679   15.1501 H         2 RES2    0.0000
     77 H31       12.2359   19.4667   15.9072 H         2 RES2    0.0000
     78 H32       10.9400   20.3375   15.5564 H         2 RES2    0.0000
     79 C33       11.1227   20.3797   13.8264 Du        3 SUP3    0.0000
     80 H33       11.7510   21.1322   13.7962 Du        3 SUP3    0.0000
     81 H34       10.5203   20.4879   14.5930 Du        3 SUP3    0.0000
     82 H35       10.5983   20.3573   12.9994 Du        3 SUP3    0.0000
@<TRIPOS>BOND
     1    1    8 2
     2    2    8 1
     3    3   11 1
     4    4   12 2
     5    5    7 2
     6    6    7 2
     7    7   16 1
     8    8    9 1
     9    9   10 1
    10   10    2 1
    11   11   10 1
    12   12    3 1
    13   13   12 1
    14   14   13 ar
    15   15   14 ar
    16   16   15 ar
    17   17   16 ar
    18   18   13 ar
    19   19   11 1
    20   20   19 1
    21   21   20 2
    22   22   21 1
    23   23   22 1
    24   24    9 1
    25   25    9 1
    26   26   10 1
    27   27   11 1
    28   28   14 1
    29   29   15 1
    30   30   17 1
    31   31   18 1
    32   32   19 1
    33   33   19 1
    34   34   20 1
    35   35   21 1
    36   36   22 1
    37   37   22 1
    38   38   23 1
    39   39   23 1
    40   40   23 1
    41   41   48 2
    42   42   48 1
    43   43   51 1
    44   44   52 2
    45   45   47 2
    46   46   47 2
    47   47   56 1
    48   48   49 1
    49   49   50 1
    50   50   42 1
    51   51   50 1
    52   52   43 1
    53   53   52 1
    54   54   53 ar
    55   55   54 ar
    56   56   55 ar
    57   57   56 ar
    58   58   53 ar
    59   59   51 1
    60   60   59 1
    61   61   60 2
    62   62   61 1
    63   63   62 1
    64   64   49 1
    65   65   49 1
    66   66   50 1
    67   67   51 1
    68   68   54 1
    69   69   55 1
    70   70   57 1
    71   71   58 1
    72   72   59 1
    73   73   59 1
    74   74   60 1
    75   75   61 1
    76   76   63 1
    77   77   63 1
    78   78   63 1
    79   17   18 ar
    80   57   58 ar
@<TRIPOS>SUBSTRUCTURE
     1 RES1 1
     2 RES2 41
     3 SUP3 79

@<TRIPOS>CRYSIN
   6.3312   16.0227   16.6694  72.2650  86.0220  81.3140   2 1

