# MOL2 file generated by ConQuest
# Please check atom types

@<TRIPOS>MOLECULE
HIFPUJ
    66    70     1
SMALL
NO_CHARGES
****
Generated from CSD

@<TRIPOS>ATOM
      1 N1         1.8617    1.7055    6.6962 N.pl3     1 RES1    0.0000
      2 N2         1.9945   -1.3868   11.3970 N.pl3     1 RES1    0.0000
      3 O1        -1.2375    4.1840    4.0785 O.2       1 RES1    0.0000
      4 O2         2.5451   -2.4522   11.3700 O.2       1 RES1    0.0000
      5 O3         1.4963   -0.9205   12.4005 O.2       1 RES1    0.0000
      6 C1         0.7420    2.4494    6.4338 C.2       1 RES1    0.0000
      7 H1         0.0722    2.4424    7.0780 H         1 RES1    0.0000
      8 C2         0.5168    3.1944    5.3275 C.2       1 RES1    0.0000
      9 C3         1.5935    3.3134    4.3139 C.2       1 RES1    0.0000
     10 C4         2.9440    3.0611    4.9784 C.3       1 RES1    0.0000
     11 H2         3.1281    3.7899    5.5923 H         1 RES1    0.0000
     12 H3         3.6317    3.0741    4.2954 H         1 RES1    0.0000
     13 C5         3.0375    1.7413    5.7424 C.3       1 RES1    0.0000
     14 C6         4.3192    1.7943    6.5805 C.3       1 RES1    0.0000
     15 H4         4.2327    2.4740    7.2534 H         1 RES1    0.0000
     16 H5         5.0648    2.0002    6.0105 H         1 RES1    0.0000
     17 H6         4.4620    0.9440    7.0005 H         1 RES1    0.0000
     18 C7        -0.8175    3.7903    5.1757 C.2       1 RES1    0.0000
     19 C8        -1.7212    3.9815    6.3343 C.ar      1 RES1    0.0000
     20 C9        -3.0802    3.6934    6.1943 C.ar      1 RES1    0.0000
     21 H7        -3.3790    3.2741    5.4203 H         1 RES1    0.0000
     22 C10       -3.9724    4.0142    7.1640 C.ar      1 RES1    0.0000
     23 H8        -4.8717    3.8040    7.0612 H         1 RES1    0.0000
     24 C11       -3.5396    4.6536    8.3058 C.ar      1 RES1    0.0000
     25 H9        -4.1533    4.8918    8.9635 H         1 RES1    0.0000
     26 C12       -2.2220    4.9381    8.4744 C.ar      1 RES1    0.0000
     27 H10       -1.9368    5.3656    9.2502 H         1 RES1    0.0000
     28 C13       -1.3081    4.5967    7.5064 C.ar      1 RES1    0.0000
     29 H11       -0.4061    4.7795    7.6379 H         1 RES1    0.0000
     30 C14        2.9873    0.5611    4.7861 C.ar      1 RES1    0.0000
     31 C15        4.1575   -0.0084    4.3123 C.ar      1 RES1    0.0000
     32 H12        4.9782    0.2913    4.6293 H         1 RES1    0.0000
     33 C16        4.1136   -1.0191    3.3729 C.ar      1 RES1    0.0000
     34 H13        4.9078   -1.3791    3.0474 H         1 RES1    0.0000
     35 C17        2.9241   -1.4970    2.9192 C.ar      1 RES1    0.0000
     36 H14        2.9042   -2.2003    2.3104 H         1 RES1    0.0000
     37 C18        1.7436   -0.9324    3.3695 C.ar      1 RES1    0.0000
     38 H15        0.9242   -1.2352    3.0491 H         1 RES1    0.0000
     39 C19        1.7949    0.0919    4.3055 C.ar      1 RES1    0.0000
     40 H16        1.0018    0.4667    4.6141 H         1 RES1    0.0000
     41 C20        1.9122    0.9356    7.8842 C.ar      1 RES1    0.0000
     42 C21        1.4971    1.4883    9.0798 C.ar      1 RES1    0.0000
     43 H17        1.2021    2.3687    9.1035 H         1 RES1    0.0000
     44 C22        1.5162    0.7380   10.2469 C.ar      1 RES1    0.0000
     45 H18        1.2346    1.1019   11.0530 H         1 RES1    0.0000
     46 C23        1.9638   -0.5625   10.1760 C.ar      1 RES1    0.0000
     47 C24        2.3970   -1.1201    9.0073 C.ar      1 RES1    0.0000
     48 H19        2.7147   -1.9932    8.9989 H         1 RES1    0.0000
     49 C25        2.3665   -0.3895    7.8420 C.ar      1 RES1    0.0000
     50 H20        2.6425   -0.7685    7.0392 H         1 RES1    0.0000
     51 C26        1.4115    3.6113    3.0373 C.2       1 RES1    0.0000
     52 H21        0.5325    3.7724    2.7793 H         1 RES1    0.0000
     53 C27        2.4386    3.7201    1.9613 C.3       1 RES1    0.0000
     54 H22        2.4277    4.6216    1.5988 H         1 RES1    0.0000
     55 H23        3.3176    3.5618    2.3391 H         1 RES1    0.0000
     56 C28        2.1967    2.7575    0.8753 C.ar      1 RES1    0.0000
     57 C29        2.7635    1.5290    0.9208 C.ar      1 RES1    0.0000
     58 H24        3.3374    1.3124    1.6207 H         1 RES1    0.0000
     59 C30        2.5090    0.6387   -0.0186 C.ar      1 RES1    0.0000
     60 H25        2.9097   -0.1965    0.0641 H         1 RES1    0.0000
     61 C31        1.7166    0.8422   -1.0911 C.ar      1 RES1    0.0000
     62 H26        1.6028    0.2000   -1.7522 H         1 RES1    0.0000
     63 C32        1.0848    2.0599   -1.1400 C.ar      1 RES1    0.0000
     64 H27        0.4855    2.2424   -1.8264 H         1 RES1    0.0000
     65 C33        1.3411    3.0316   -0.1619 C.ar      1 RES1    0.0000
     66 H28        0.9296    3.8636   -0.2159 H         1 RES1    0.0000
@<TRIPOS>BOND
     1    1    6 1
     2    2    4 2
     3    3   18 2
     4    5    2 2
     5    6    7 1
     6    8    6 2
     7    9    8 1
     8   10    9 1
     9   11   10 1
    10   12   10 1
    11   13    1 1
    12   14   13 1
    13   15   14 1
    14   16   14 1
    15   17   14 1
    16   18    8 1
    17   19   18 1
    18   20   19 ar
    19   21   20 1
    20   22   20 ar
    21   23   22 1
    22   24   22 ar
    23   25   24 1
    24   26   24 ar
    25   27   26 1
    26   28   19 ar
    27   29   28 1
    28   30   13 1
    29   31   30 ar
    30   32   31 1
    31   33   31 ar
    32   34   33 1
    33   35   33 ar
    34   36   35 1
    35   37   35 ar
    36   38   37 1
    37   39   30 ar
    38   40   39 1
    39   41    1 1
    40   42   41 ar
    41   43   42 1
    42   44   42 ar
    43   45   44 1
    44   46    2 1
    45   47   46 ar
    46   48   47 1
    47   49   41 ar
    48   50   49 1
    49   51    9 2
    50   52   51 1
    51   53   51 1
    52   54   53 1
    53   55   53 1
    54   56   53 1
    55   57   56 ar
    56   58   57 1
    57   59   57 ar
    58   60   59 1
    59   61   59 ar
    60   62   61 1
    61   63   61 ar
    62   64   63 1
    63   65   56 ar
    64   66   65 1
    65   10   13 1
    66   26   28 ar
    67   37   39 ar
    68   44   46 ar
    69   47   49 ar
    70   63   65 ar
@<TRIPOS>SUBSTRUCTURE
     1 RES1 1

@<TRIPOS>CRYSIN
  18.0500   35.0920   16.8645  90.0000  90.0000  90.0000  43 1

