# MOL2 file generated by ConQuest
# Please check atom types

@<TRIPOS>MOLECULE
HIFRAP
    72    70     2
SMALL
NO_CHARGES
****
Generated from CSD

@<TRIPOS>ATOM
      1 C1         1.6308    7.9799    1.9815 C.3       1 RES1    0.0000
      2 H1         1.4694    8.8070    2.4814 H         1 RES1    0.0000
      3 H2         2.5533    7.9678    1.6509 H         1 RES1    0.0000
      4 H3         1.4871    7.2089    2.5701 H         1 RES1    0.0000
      5 C2         0.6814    7.9043    0.8164 C.2       1 RES1    0.0000
      6 O1        -0.1338    7.0001    0.6954 O.2       1 RES1    0.0000
      7 N1         0.8055    8.8911   -0.1290 N.am      1 RES1    0.0000
      8 O2         1.7361    9.8798    0.1411 O.3       1 RES1    0.0000
      9 C3         1.1593   10.9507    0.8567 C.2       1 RES1    0.0000
     10 O3        -0.0326   11.0145    1.0764 O.2       1 RES1    0.0000
     11 N2         2.1225   11.7846    1.2135 N.am      1 RES1    0.0000
     12 H4         2.9919   11.5355    1.0684 H         1 RES1    0.0000
     13 C4         1.8377   13.0008    1.9835 C.3       1 RES1    0.0000
     14 H5         1.0594   13.4620    1.5824 H         1 RES1    0.0000
     15 H6         2.6154   13.6105    1.9231 H         1 RES1    0.0000
     16 C5         1.5510   12.7259    3.4269 C.3       1 RES1    0.0000
     17 H7         1.5056   13.5985    3.8905 H         1 RES1    0.0000
     18 H8         0.6454   12.3263    3.4772 H         1 RES1    0.0000
     19 C6         2.4298   11.8880    4.1727 C.3       1 RES1    0.0000
     20 H9         2.1154   11.8213    5.0979 H         1 RES1    0.0000
     21 H10        3.3330   12.2780    4.1727 H         1 RES1    0.0000
     22 H11        2.4500   10.9900    3.7695 H         1 RES1    0.0000
     23 C7         0.0345    9.1423   -1.3304 C.2       1 RES1    0.0000
     24 O4         0.2877   10.1196   -2.0017 O.2       1 RES1    0.0000
     25 N3        -0.8805    8.2054   -1.6066 N.am      1 RES1    0.0000
     26 H12       -1.0047    7.6278   -1.0885 H         1 RES1    0.0000
     27 C8        -1.7269    8.3321   -2.7838 C.3       1 RES1    0.0000
     28 H13       -1.9229    9.2903   -2.9390 H         1 RES1    0.0000
     29 H14       -2.5863    7.8712   -2.6145 H         1 RES1    0.0000
     30 C9        -1.0893    7.7495   -4.0316 C.3       1 RES1    0.0000
     31 H15       -0.8841    6.7925   -3.8764 H         1 RES1    0.0000
     32 H16       -0.2372    8.2183   -4.2130 H         1 RES1    0.0000
     33 C10       -2.0024    7.8768   -5.2451 C.3       1 RES1    0.0000
     34 H17       -1.5585    7.4928   -6.0313 H         1 RES1    0.0000
     35 H18       -2.1977    8.8228   -5.4084 H         1 RES1    0.0000
     36 H19       -2.8378    7.3965   -5.0778 H         1 RES1    0.0000
     37 C11        1.7027    5.7418    8.0712 C.3       2 RES2    0.0000
     38 H20        1.5331    4.9371    7.5350 H         2 RES2    0.0000
     39 H21        2.6226    5.7158    8.4059 H         2 RES2    0.0000
     40 H22        1.5747    6.5400    7.5169 H         2 RES2    0.0000
     41 C12        0.7479    5.7815    9.2364 C.2       2 RES2    0.0000
     42 O5        -0.0844    6.6615    9.3734 O.2       2 RES2    0.0000
     43 N4         0.8801    4.7649   10.1616 N.am      2 RES2    0.0000
     44 O6         1.8400    3.8018    9.8774 O.3       2 RES2    0.0000
     45 C13        1.3006    2.7226    9.1396 C.2       2 RES2    0.0000
     46 O7         0.1221    2.6646    8.8695 O.2       2 RES2    0.0000
     47 N5         2.2812    1.9013    8.8393 N.am      2 RES2    0.0000
     48 H23        3.0543    2.1211    8.9703 H         2 RES2    0.0000
     49 C14        2.0747    0.6866    8.0430 C.3       2 RES2    0.0000
     50 H24        1.1093    0.4666    8.0269 H         2 RES2    0.0000
     51 H25        2.5512   -0.0690    8.4704 H         2 RES2    0.0000
     52 C15        2.5763    0.8499    6.6098 C.3       2 RES2    0.0000
     53 H26        3.5452    1.0498    6.6299 H         2 RES2    0.0000
     54 H27        2.4545   -0.0051    6.1280 H         2 RES2    0.0000
     55 C16        1.8619    1.9488    5.8519 C.3       2 RES2    0.0000
     56 H28        2.1746    1.9615    4.9226 H         2 RES2    0.0000
     57 H29        2.0512    2.8126    6.2732 H         2 RES2    0.0000
     58 H30        0.8958    1.7877    5.8660 H         2 RES2    0.0000
     59 C17        0.1089    4.4886   11.3530 C.2       2 RES2    0.0000
     60 O8         0.3563    3.4840   11.9899 O.2       2 RES2    0.0000
     61 N6        -0.8089    5.4151   11.6432 N.am      2 RES2    0.0000
     62 H31       -0.9539    6.0491   11.0667 H         2 RES2    0.0000
     63 C18       -1.6827    5.2524   12.8023 C.3       2 RES2    0.0000
     64 H32       -1.9017    4.2925   12.9091 H         2 RES2    0.0000
     65 H33       -2.5285    5.7394   12.6390 H         2 RES2    0.0000
     66 C19       -1.0585    5.7629   14.0884 C.3       2 RES2    0.0000
     67 H34       -0.7898    6.7076   13.9695 H         2 RES2    0.0000
     68 H35       -0.2436    5.2368   14.2880 H         2 RES2    0.0000
     69 C20       -2.0245    5.6579   15.2656 C.3       2 RES2    0.0000
     70 H36       -1.5647    5.9352   16.0881 H         2 RES2    0.0000
     71 H37       -2.3344    4.7323   15.3543 H         2 RES2    0.0000
     72 H38       -2.7912    6.2467   15.1104 H         2 RES2    0.0000
@<TRIPOS>BOND
     1    1    2 1
     2    3    1 1
     3    4    1 1
     4    5    1 1
     5    6    5 2
     6    7    5 1
     7    8    7 1
     8    9    8 1
     9   10    9 2
    10   11    9 1
    11   12   11 1
    12   13   11 1
    13   14   13 1
    14   15   13 1
    15   16   13 1
    16   17   16 1
    17   18   16 1
    18   19   16 1
    19   20   19 1
    20   21   19 1
    21   22   19 1
    22   23    7 1
    23   24   23 2
    24   25   23 1
    25   26   25 1
    26   27   25 1
    27   28   27 1
    28   29   27 1
    29   30   27 1
    30   31   30 1
    31   32   30 1
    32   33   30 1
    33   34   33 1
    34   35   33 1
    35   36   33 1
    36   37   38 1
    37   39   37 1
    38   40   37 1
    39   41   37 1
    40   42   41 2
    41   43   41 1
    42   44   43 1
    43   45   44 1
    44   46   45 2
    45   47   45 1
    46   48   47 1
    47   49   47 1
    48   50   49 1
    49   51   49 1
    50   52   49 1
    51   53   52 1
    52   54   52 1
    53   55   52 1
    54   56   55 1
    55   57   55 1
    56   58   55 1
    57   59   43 1
    58   60   59 2
    59   61   59 1
    60   62   61 1
    61   63   61 1
    62   64   63 1
    63   65   63 1
    64   66   63 1
    65   67   66 1
    66   68   66 1
    67   69   66 1
    68   70   69 1
    69   71   69 1
    70   72   69 1
@<TRIPOS>SUBSTRUCTURE
     1 RES1 1
     2 RES2 37

@<TRIPOS>CRYSIN
   4.9440   13.0050   20.2340  85.0700  89.7100  79.4500   2 1

