# MOL2 file generated by ConQuest
# Please check atom types

@<TRIPOS>MOLECULE
HIFSIZ
    34    35     1
SMALL
NO_CHARGES
****
Generated from CSD

@<TRIPOS>ATOM
      1 C1         1.4709   23.6183    1.9774 C.3       1 RES1    0.0000
      2 C2         0.4615   24.7324    2.1061 C.3       1 RES1    0.0000
      3 H1         0.3029   25.1227    1.2433 H         1 RES1    0.0000
      4 H2         0.8007   25.4035    2.7029 H         1 RES1    0.0000
      5 H3        -0.3611   24.3811    2.4544 H         1 RES1    0.0000
      6 C3         2.8075   24.0828    1.4415 C.3       1 RES1    0.0000
      7 H4         2.6797   24.5128    0.5918 H         1 RES1    0.0000
      8 H5         3.3888   23.3259    1.3344 H         1 RES1    0.0000
      9 H6         3.2008   24.7037    2.0580 H         1 RES1    0.0000
     10 O1         0.8882   22.6547    1.0861 O.3       1 RES1    0.0000
     11 C4         1.3211   21.3399    1.3413 C.3       1 RES1    0.0000
     12 H7         2.2894   21.3096    1.3865 H         1 RES1    0.0000
     13 H8         1.0288   20.7480    0.6307 H         1 RES1    0.0000
     14 C5         0.7158   20.8987    2.6799 C.3       1 RES1    0.0000
     15 C6         0.7486   22.0755    3.6484 C.3       1 RES1    0.0000
     16 H9        -0.1164   22.5141    3.6627 H         1 RES1    0.0000
     17 H10        0.9438   21.7594    4.5447 H         1 RES1    0.0000
     18 O2         1.7507   22.9970    3.2329 O.3       1 RES1    0.0000
     19 N1        -0.6540   20.3465    2.3507 N.2       1 RES1    0.0000
     20 O3        -1.5140   21.1692    2.3551 O.2       1 RES1    0.0000
     21 O4         1.4875   19.7612    3.0829 O.3       1 RES1    0.0000
     22 C7         1.0226   19.0753    4.1566 C.2       1 RES1    0.0000
     23 O5         0.0131   19.3748    4.7322 O.2       1 RES1    0.0000
     24 C8         1.8955   17.9253    4.5062 C.ar      1 RES1    0.0000
     25 C9         1.4191   17.0120    5.4440 C.ar      1 RES1    0.0000
     26 H11        0.5706   17.1192    5.8098 H         1 RES1    0.0000
     27 C10        2.2125   15.9444    5.8299 C.ar      1 RES1    0.0000
     28 H12        1.8948   15.3312    6.4528 H         1 RES1    0.0000
     29 C11        3.4661   15.7897    5.2943 C.ar      1 RES1    0.0000
     30 H13        3.9979   15.0745    5.5632 H         1 RES1    0.0000
     31 C12        3.9468   16.6877    4.3574 C.ar      1 RES1    0.0000
     32 H14        4.7958   16.5751    3.9955 H         1 RES1    0.0000
     33 C13        3.1589   17.7588    3.9587 C.ar      1 RES1    0.0000
     34 H15        3.4763   18.3632    3.3269 H         1 RES1    0.0000
@<TRIPOS>BOND
     1    1    2 1
     2    2    3 1
     3    4    2 1
     4    5    2 1
     5    6    1 1
     6    7    6 1
     7    8    6 1
     8    9    6 1
     9   10    1 1
    10   11   10 1
    11   12   11 1
    12   13   11 1
    13   14   11 1
    14   15   14 1
    15   16   15 1
    16   17   15 1
    17   18    1 1
    18   19   14 1
    19   20   19 2
    20   21   14 1
    21   22   21 1
    22   23   22 2
    23   24   22 1
    24   25   24 ar
    25   26   25 1
    26   27   25 ar
    27   28   27 1
    28   29   27 ar
    29   30   29 1
    30   31   29 ar
    31   32   31 1
    32   33   24 ar
    33   34   33 1
    34   15   18 1
    35   31   33 ar
@<TRIPOS>SUBSTRUCTURE
     1 RES1 1

@<TRIPOS>CRYSIN
   6.2809   21.9393    9.6452  90.0000 100.4950  90.0000 231 1

