# MOL2 file generated by ConQuest
# Please check atom types

@<TRIPOS>MOLECULE
HIFWOK
   184   192     4
SMALL
NO_CHARGES
****
Generated from CSD

@<TRIPOS>ATOM
      1 O1        13.2362    3.0883   23.9013 O.3       1 RES1    0.0000
      2 O2        12.5388    3.4102   21.8195 O.2       1 RES1    0.0000
      3 O3         7.4478   -1.7084   26.0180 O.2       1 RES1    0.0000
      4 O4         6.8369    0.3474   25.5753 O.2       1 RES1    0.0000
      5 N1         7.6586   -0.4891   25.6256 N.pl3     1 RES1    0.0000
      6 C1        12.9850    2.6788   22.6354 C.2       1 RES1    0.0000
      7 C2        13.3342    1.1761   22.5285 C.3       1 RES1    0.0000
      8 C3        13.0660    0.7229   24.0315 C.3       1 RES1    0.0000
      9 H1        13.6237   -0.0777   24.2484 H         1 RES1    0.0000
     10 C4        13.6247    1.9572   24.7609 C.3       1 RES1    0.0000
     11 H2        13.2244    2.0454   25.6633 H         1 RES1    0.0000
     12 H3        14.6091    1.9010   24.8521 H         1 RES1    0.0000
     13 C5        11.5966    0.4506   24.4119 C.ar      1 RES1    0.0000
     14 C6        11.3198   -0.8490   24.8238 C.ar      1 RES1    0.0000
     15 H4        12.0029   -1.5099   24.8427 H         1 RES1    0.0000
     16 C7         9.9884   -1.1663   25.2200 C.ar      1 RES1    0.0000
     17 H5         9.7768   -2.0467   25.5093 H         1 RES1    0.0000
     18 C8         9.0211   -0.2175   25.1885 C.ar      1 RES1    0.0000
     19 C9         9.3752    1.1337   24.7861 C.ar      1 RES1    0.0000
     20 H6         8.7161    1.8174   24.8018 H         1 RES1    0.0000
     21 C10       10.5984    1.4204   24.3962 C.ar      1 RES1    0.0000
     22 H7        10.8038    2.3000   24.1006 H         1 RES1    0.0000
     23 C11       12.3429    0.4166   21.5727 C.3       1 RES1    0.0000
     24 H8        12.1886   -0.4885   21.9405 H         1 RES1    0.0000
     25 H9        11.4754    0.8934   21.5821 H         1 RES1    0.0000
     26 C12       12.8002    0.2684   20.0886 C.3       1 RES1    0.0000
     27 H10       13.7193   -0.1273   20.0760 H         1 RES1    0.0000
     28 C13       11.8124   -0.7288   19.3811 C.3       1 RES1    0.0000
     29 H11       12.1412   -0.9319   18.4819 H         1 RES1    0.0000
     30 H12       10.9235   -0.3193   19.3214 H         1 RES1    0.0000
     31 H13       11.7547   -1.5569   19.9031 H         1 RES1    0.0000
     32 C14       12.8321    1.6032   19.3528 C.3       1 RES1    0.0000
     33 H14       11.9343    1.9944   19.3465 H         1 RES1    0.0000
     34 H15       13.1328    1.4609   18.4284 H         1 RES1    0.0000
     35 H16       13.4506    2.2125   19.8056 H         1 RES1    0.0000
     36 C15       14.7944    1.0292   22.2298 C.ar      1 RES1    0.0000
     37 C16       15.3453   -0.3461   22.2895 C.ar      1 RES1    0.0000
     38 H17       14.7875   -1.0899   22.4845 H         1 RES1    0.0000
     39 C17       16.6882   -0.5068   22.0537 C.ar      1 RES1    0.0000
     40 H18       17.0615   -1.3786   22.1166 H         1 RES1    0.0000
     41 C18       17.5302    0.5616   21.7330 C.ar      1 RES1    0.0000
     42 H19       18.4502    0.4147   21.5475 H         1 RES1    0.0000
     43 C19       17.0033    1.8207   21.6859 C.ar      1 RES1    0.0000
     44 H20       17.5855    2.5521   21.5192 H         1 RES1    0.0000
     45 C20       15.6072    2.0852   21.8777 C.ar      1 RES1    0.0000
     46 H21       15.2522    2.9596   21.7676 H         1 RES1    0.0000
     47 O5         4.4110    1.4380   21.8006 O.2       2 RES2    0.0000
     48 O6         4.9437    1.7077   23.9151 O.3       2 RES2    0.0000
     49 O7        -0.8855    6.4965   26.0909 O.2       2 RES2    0.0000
     50 O8        -1.4933    4.4460   25.6287 O.2       2 RES2    0.0000
     51 N2        -0.6576    5.3596   25.6916 N.pl3     2 RES2    0.0000
     52 C21        4.7668    2.2831   22.6763 C.2       2 RES2    0.0000
     53 C22        4.9450    3.6963   22.6417 C.3       2 RES2    0.0000
     54 C23        4.7577    4.1227   24.1258 C.3       2 RES2    0.0000
     55 H22        5.3431    4.9031   24.3490 H         2 RES2    0.0000
     56 C24        5.2581    2.8421   24.8364 C.3       2 RES2    0.0000
     57 H23        6.2340    2.8950   24.9999 H         2 RES2    0.0000
     58 H24        4.7976    2.7219   25.7011 H         2 RES2    0.0000
     59 C25        3.3157    4.4094   24.4937 C.ar      2 RES2    0.0000
     60 C26        2.2771    3.4403   24.4402 C.ar      2 RES2    0.0000
     61 H25        2.4903    2.5671   24.1289 H         2 RES2    0.0000
     62 C27        1.0096    3.6976   24.8018 C.ar      2 RES2    0.0000
     63 H26        0.3330    3.0321   24.7609 H         2 RES2    0.0000
     64 C28        0.7291    5.0572   25.2640 C.ar      2 RES2    0.0000
     65 C29        1.6618    6.0185   25.2923 C.ar      2 RES2    0.0000
     66 H27        1.4625    6.8969   25.5941 H         2 RES2    0.0000
     67 C30        2.9445    5.6652   24.8584 C.ar      2 RES2    0.0000
     68 H28        3.6007    6.3509   24.8144 H         2 RES2    0.0000
     69 C31        4.0186    4.4590   21.6355 C.3       2 RES2    0.0000
     70 H29        4.1033    5.4327   21.7928 H         2 RES2    0.0000
     71 H30        3.0765    4.2056   21.8053 H         2 RES2    0.0000
     72 C32        4.3705    4.1462   20.0980 C.3       2 RES2    0.0000
     73 H31        5.2326    3.6427   20.0257 H         2 RES2    0.0000
     74 C33        4.4596    5.4706   19.3717 C.3       2 RES2    0.0000
     75 H32        3.6183    5.9597   19.4786 H         2 RES2    0.0000
     76 H33        4.6249    5.3106   18.4190 H         2 RES2    0.0000
     77 H34        5.1949    6.0002   19.7459 H         2 RES2    0.0000
     78 C34        3.1686    3.3149   19.4409 C.3       2 RES2    0.0000
     79 H35        2.3593    3.8674   19.4251 H         2 RES2    0.0000
     80 H36        3.0026    2.5071   19.9691 H         2 RES2    0.0000
     81 H37        3.4090    3.0615   18.5259 H         2 RES2    0.0000
     82 C35        6.4363    3.9745   22.3021 C.ar      2 RES2    0.0000
     83 C36        6.8700    5.3250   22.1952 C.ar      2 RES2    0.0000
     84 H38        6.2588    6.0440   22.3053 H         2 RES2    0.0000
     85 C37        8.2354    5.5666   21.9248 C.ar      2 RES2    0.0000
     86 H39        8.5313    6.4652   21.8431 H         2 RES2    0.0000
     87 C38        9.1297    4.5785   21.7739 C.ar      2 RES2    0.0000
     88 H40       10.0445    4.7797   21.6135 H         2 RES2    0.0000
     89 C39        8.6876    3.2006   21.8588 C.ar      2 RES2    0.0000
     90 H41        9.2886    2.4764   21.7299 H         2 RES2    0.0000
     91 C40        7.3465    2.9890   22.1386 C.ar      2 RES2    0.0000
     92 H42        7.0469    2.0911   22.2235 H         2 RES2    0.0000
     93 O9         5.9112    4.7131   31.6185 O.2       3 RES3    0.0000
     94 O10        5.4309    5.0128   29.4436 O.3       3 RES3    0.0000
     95 O11       11.8524    7.7687   27.7385 O.2       3 RES3    0.0000
     96 O12       11.2022    9.7598   27.2889 O.2       3 RES3    0.0000
     97 N3        10.9609    8.6098   27.6914 N.pl3     3 RES3    0.0000
     98 C41        5.6407    5.3622   30.7098 C.2       3 RES3    0.0000
     99 C42        5.3689    6.9746   30.8010 C.3       3 RES3    0.0000
    100 C43        5.6633    7.3279   29.3012 C.3       3 RES3    0.0000
    101 H43        5.0977    8.1161   29.0560 H         3 RES3    0.0000
    102 C44        5.0974    6.1001   28.5812 C.3       3 RES3    0.0000
    103 H44        4.1162    6.1746   28.4680 H         3 RES3    0.0000
    104 H45        5.5166    5.9878   27.6914 H         3 RES3    0.0000
    105 C45        7.0748    7.6394   28.9208 C.ar      3 RES3    0.0000
    106 C46        8.0635    6.6709   28.9302 C.ar      3 RES3    0.0000
    107 H46        7.8680    5.7828   29.2037 H         3 RES3    0.0000
    108 C47        9.3842    7.0301   28.5214 C.ar      3 RES3    0.0000
    109 H47       10.0779    6.3810   28.5309 H         3 RES3    0.0000
    110 C48        9.6395    8.2454   28.1316 C.ar      3 RES3    0.0000
    111 C49        8.6330    9.2472   28.0938 C.ar      3 RES3    0.0000
    112 H48        8.8498   10.1314   27.8234 H         3 RES3    0.0000
    113 C50        7.3493    8.9363   28.4491 C.ar      3 RES3    0.0000
    114 H49        6.6568    9.5829   28.3768 H         3 RES3    0.0000
    115 C51        6.2857    7.6289   31.7789 C.3       3 RES3    0.0000
    116 H50        6.2518    8.6026   31.6059 H         3 RES3    0.0000
    117 H51        7.2047    7.3305   31.5619 H         3 RES3    0.0000
    118 C52        6.0954    7.4376   33.2598 C.3       3 RES3    0.0000
    119 H52        5.2328    6.9380   33.3384 H         3 RES3    0.0000
    120 C53        7.0340    6.6258   33.9138 C.3       3 RES3    0.0000
    121 H53        6.8662    6.6448   34.8791 H         3 RES3    0.0000
    122 H54        7.9370    6.9602   33.7346 H         3 RES3    0.0000
    123 H55        6.9550    5.7050   33.5868 H         3 RES3    0.0000
    124 C54        5.8434    8.7757   34.0144 C.3       3 RES3    0.0000
    125 H56        5.1000    9.2544   33.5931 H         3 RES3    0.0000
    126 H57        6.6516    9.3282   33.9767 H         3 RES3    0.0000
    127 H58        5.6198    8.5856   34.9483 H         3 RES3    0.0000
    128 C55        3.8855    7.2012   31.0997 C.ar      3 RES3    0.0000
    129 C56        2.9612    6.1302   31.2758 C.ar      3 RES3    0.0000
    130 H59        3.2400    5.2224   31.2475 H         3 RES3    0.0000
    131 C57        1.6264    6.4828   31.4896 C.ar      3 RES3    0.0000
    132 H60        0.9957    5.7775   31.5714 H         3 RES3    0.0000
    133 C58        1.1771    7.7073   31.5839 C.ar      3 RES3    0.0000
    134 H61        0.2568    7.8758   31.7506 H         3 RES3    0.0000
    135 C59        2.1017    8.7868   31.4267 C.ar      3 RES3    0.0000
    136 H62        1.8085    9.6886   31.4927 H         3 RES3    0.0000
    137 C60        3.4171    8.4929   31.1815 C.ar      3 RES3    0.0000
    138 H63        4.0307    9.2093   31.0620 H         3 RES3    0.0000
    139 O13       -2.1977   13.1524   31.5682 O.2       4 RES4    0.0000
    140 O14       -2.9153   12.8775   29.4892 O.3       4 RES4    0.0000
    141 O15        3.5291   10.1334   27.8108 O.2       4 RES4    0.0000
    142 O16        2.8626    8.1363   27.3801 O.2       4 RES4    0.0000
    143 N4         2.6348    9.2302   27.7794 N.pl3     4 RES4    0.0000
    144 C61       -2.6466   12.4086   30.7193 C.2       4 RES4    0.0000
    145 C62       -2.8923   10.9066   30.8167 C.3       4 RES4    0.0000
    146 C63       -2.7259   10.5624   29.3232 C.3       4 RES4    0.0000
    147 H64       -3.3116    9.7820   29.1031 H         4 RES4    0.0000
    148 C64       -3.2674   11.7862   28.6315 C.3       4 RES4    0.0000
    149 H65       -2.8579   11.8953   27.7385 H         4 RES4    0.0000
    150 H66       -4.2509   11.7249   28.5277 H         4 RES4    0.0000
    151 C65       -1.3146   10.2183   28.9679 C.ar      4 RES4    0.0000
    152 C66       -0.9528    8.9318   28.5497 C.ar      4 RES4    0.0000
    153 H67       -1.6224    8.2591   28.5277 H         4 RES4    0.0000
    154 C67        0.3019    8.6039   28.1819 C.ar      4 RES4    0.0000
    155 H68        0.5226    7.7158   27.9272 H         4 RES4    0.0000
    156 C68        1.2613    9.6109   28.1850 C.ar      4 RES4    0.0000
    157 C69        1.0460   10.8459   28.5938 C.ar      4 RES4    0.0000
    158 H69        1.7457   11.4878   28.6346 H         4 RES4    0.0000
    159 C70       -0.2937   11.1639   28.9679 C.ar      4 RES4    0.0000
    160 H70       -0.4962   12.0553   29.2226 H         4 RES4    0.0000
    161 C71       -2.0428   10.1171   31.8543 C.3       4 RES4    0.0000
    162 H71       -2.0197    9.1727   31.5588 H         4 RES4    0.0000
    163 H72       -1.1156   10.4592   31.7977 H         4 RES4    0.0000
    164 C72       -2.4333   10.1210   33.3070 C.3       4 RES4    0.0000
    165 H73       -3.3733    9.7833   33.3573 H         4 RES4    0.0000
    166 C73       -1.5638    9.1140   34.0239 C.3       4 RES4    0.0000
    167 H74       -0.6197    9.3478   33.8950 H         4 RES4    0.0000
    168 H75       -1.7315    8.2199   33.6623 H         4 RES4    0.0000
    169 H76       -1.7743    9.1231   34.9829 H         4 RES4    0.0000
    170 C74       -2.3948   11.4401   34.0553 C.3       4 RES4    0.0000
    171 H77       -3.0670   12.0475   33.6811 H         4 RES4    0.0000
    172 H78       -1.5064   11.8418   33.9641 H         4 RES4    0.0000
    173 H79       -2.5877   11.2841   35.0017 H         4 RES4    0.0000
    174 C75       -4.4145   10.6859   31.1469 C.ar      4 RES4    0.0000
    175 C76       -4.9929    9.5045   31.0557 C.ar      4 RES4    0.0000
    176 H80       -4.4490    8.7692   30.8010 H         4 RES4    0.0000
    177 C77       -6.3216    9.2524   31.3010 C.ar      4 RES4    0.0000
    178 H81       -6.6647    8.3662   31.2789 H         4 RES4    0.0000
    179 C78       -7.1376   10.3143   31.5839 C.ar      4 RES4    0.0000
    180 H82       -8.0740   10.1830   31.6751 H         4 RES4    0.0000
    181 C79       -6.5899   11.5982   31.7317 C.ar      4 RES4    0.0000
    182 H83       -7.1256   12.3322   32.0115 H         4 RES4    0.0000
    183 C80       -5.2678   11.7536   31.4645 C.ar      4 RES4    0.0000
    184 H84       -4.9036   12.6300   31.4927 H         4 RES4    0.0000
@<TRIPOS>BOND
     1    1    6 1
     2    2    6 2
     3    3    5 2
     4    4    5 2
     5    5   18 1
     6    6    7 1
     7    7    8 1
     8    8    9 1
     9   10    1 1
    10   11   10 1
    11   12   10 1
    12   13    8 1
    13   14   13 ar
    14   15   14 1
    15   16   14 ar
    16   17   16 1
    17   18   16 ar
    18   19   18 ar
    19   20   19 1
    20   21   13 ar
    21   22   21 1
    22   23    7 1
    23   24   23 1
    24   25   23 1
    25   26   23 1
    26   27   26 1
    27   28   26 1
    28   29   28 1
    29   30   28 1
    30   31   28 1
    31   32   26 1
    32   33   32 1
    33   34   32 1
    34   35   32 1
    35   36    7 1
    36   37   36 ar
    37   38   37 1
    38   39   37 ar
    39   40   39 1
    40   41   39 ar
    41   42   41 1
    42   43   41 ar
    43   44   43 1
    44   45   36 ar
    45   46   45 1
    46   47   52 2
    47   48   52 1
    48   49   51 2
    49   50   51 2
    50   51   64 1
    51   52   53 1
    52   53   54 1
    53   54   55 1
    54   56   48 1
    55   57   56 1
    56   58   56 1
    57   59   54 1
    58   60   59 ar
    59   61   60 1
    60   62   60 ar
    61   63   62 1
    62   64   62 ar
    63   65   64 ar
    64   66   65 1
    65   67   59 ar
    66   68   67 1
    67   69   53 1
    68   70   69 1
    69   71   69 1
    70   72   69 1
    71   73   72 1
    72   74   72 1
    73   75   74 1
    74   76   74 1
    75   77   74 1
    76   78   72 1
    77   79   78 1
    78   80   78 1
    79   81   78 1
    80   82   53 1
    81   83   82 ar
    82   84   83 1
    83   85   83 ar
    84   86   85 1
    85   87   85 ar
    86   88   87 1
    87   89   87 ar
    88   90   89 1
    89   91   82 ar
    90   92   91 1
    91   93   98 2
    92   94   98 1
    93   95   97 2
    94   96   97 2
    95   97  110 1
    96   98   99 1
    97   99  100 1
    98  100  101 1
    99  102   94 1
   100  103  102 1
   101  104  102 1
   102  105  100 1
   103  106  105 ar
   104  107  106 1
   105  108  106 ar
   106  109  108 1
   107  110  108 ar
   108  111  110 ar
   109  112  111 1
   110  113  105 ar
   111  114  113 1
   112  115   99 1
   113  116  115 1
   114  117  115 1
   115  118  115 1
   116  119  118 1
   117  120  118 1
   118  121  120 1
   119  122  120 1
   120  123  120 1
   121  124  118 1
   122  125  124 1
   123  126  124 1
   124  127  124 1
   125  128   99 1
   126  129  128 ar
   127  130  129 1
   128  131  129 ar
   129  132  131 1
   130  133  131 ar
   131  134  133 1
   132  135  133 ar
   133  136  135 1
   134  137  128 ar
   135  138  137 1
   136  139  144 2
   137  140  144 1
   138  141  143 2
   139  142  143 2
   140  143  156 1
   141  144  145 1
   142  145  146 1
   143  146  147 1
   144  148  140 1
   145  149  148 1
   146  150  148 1
   147  151  146 1
   148  152  151 ar
   149  153  152 1
   150  154  152 ar
   151  155  154 1
   152  156  154 ar
   153  157  156 ar
   154  158  157 1
   155  159  151 ar
   156  160  159 1
   157  161  145 1
   158  162  161 1
   159  163  161 1
   160  164  161 1
   161  165  164 1
   162  166  164 1
   163  167  166 1
   164  168  166 1
   165  169  166 1
   166  170  164 1
   167  171  170 1
   168  172  170 1
   169  173  170 1
   170  174  145 1
   171  175  174 ar
   172  176  175 1
   173  177  175 ar
   174  178  177 1
   175  179  177 ar
   176  180  179 1
   177  181  179 ar
   178  182  181 1
   179  183  174 ar
   180  184  183 1
   181    8   10 1
   182   19   21 ar
   183   43   45 ar
   184   54   56 1
   185   65   67 ar
   186   89   91 ar
   187  100  102 1
   188  111  113 ar
   189  135  137 ar
   190  146  148 1
   191  157  159 ar
   192  181  183 ar
@<TRIPOS>SUBSTRUCTURE
     1 RES1 1
     2 RES2 47
     3 RES3 93
     4 RES4 139

