# MOL2 file generated by ConQuest
# Please check atom types

@<TRIPOS>MOLECULE
HIFXAX
    33    34     1
SMALL
NO_CHARGES
****
Generated from CSD

@<TRIPOS>ATOM
      1 O1         5.8912    6.0268   14.1645 O.3       1 RES1    0.0000
      2 O2         4.3756    9.6697    7.5770 O.3       1 RES1    0.0000
      3 N1         5.8333    6.5804   12.8718 N.2       1 RES1    0.0000
      4 C1         4.8609    7.4245   12.7348 C.2       1 RES1    0.0000
      5 C2         4.6992    7.9720   11.3693 C.ar      1 RES1    0.0000
      6 C3         4.1146    9.2287   11.1586 C.ar      1 RES1    0.0000
      7 H1         3.7724    9.7161   11.8989 H         1 RES1    0.0000
      8 C4         4.0297    9.7695    9.8840 C.ar      1 RES1    0.0000
      9 H2         3.6397   10.6263    9.7578 H         1 RES1    0.0000
     10 C5         4.5160    9.0561    8.7866 C.ar      1 RES1    0.0000
     11 C6         5.0801    7.7911    8.9717 C.ar      1 RES1    0.0000
     12 H3         5.4037    7.2962    8.2281 H         1 RES1    0.0000
     13 C7         5.1636    7.2635   10.2573 C.ar      1 RES1    0.0000
     14 H4         5.5451    6.4022   10.3809 H         1 RES1    0.0000
     15 C8         3.9439    7.8567   13.8224 C.ar      1 RES1    0.0000
     16 C9         2.5604    7.8587   13.6083 C.ar      1 RES1    0.0000
     17 H5         2.2118    7.5776   12.7701 H         1 RES1    0.0000
     18 C10        1.6934    8.2687   14.6141 C.ar      1 RES1    0.0000
     19 H6         0.7551    8.2562   14.4671 H         1 RES1    0.0000
     20 C11        2.1991    8.6968   15.8380 C.ar      1 RES1    0.0000
     21 H7         1.6075    8.9816   16.5253 H         1 RES1    0.0000
     22 C12        3.5719    8.7066   16.0529 C.ar      1 RES1    0.0000
     23 H8         3.9181    9.0029   16.8867 H         1 RES1    0.0000
     24 C13        4.4410    8.2843   15.0547 C.ar      1 RES1    0.0000
     25 H9         5.3778    8.2867   15.2117 H         1 RES1    0.0000
     26 C14        6.9141    5.0334   14.1569 C.3       1 RES1    0.0000
     27 H10        7.7807    5.4584   13.9875 H         1 RES1    0.0000
     28 H11        6.7285    4.3785   13.4523 H         1 RES1    0.0000
     29 H12        6.9362    4.5807   15.0260 H         1 RES1    0.0000
     30 C15        4.9195    9.0006    6.4404 C.3       1 RES1    0.0000
     31 H13        4.4590    8.1445    6.3133 H         1 RES1    0.0000
     32 H14        5.8754    8.8393    6.5835 H         1 RES1    0.0000
     33 H15        4.7979    9.5586    5.6447 H         1 RES1    0.0000
@<TRIPOS>BOND
     1    1    3 1
     2    2   10 1
     3    3    4 2
     4    4    5 1
     5    5    6 ar
     6    6    7 1
     7    8    6 ar
     8    9    8 1
     9   10    8 ar
    10   11   10 ar
    11   12   11 1
    12   13    5 ar
    13   14   13 1
    14   15    4 1
    15   16   15 ar
    16   17   16 1
    17   18   16 ar
    18   19   18 1
    19   20   18 ar
    20   21   20 1
    21   22   20 ar
    22   23   22 1
    23   24   15 ar
    24   25   24 1
    25   26    1 1
    26   27   26 1
    27   28   26 1
    28   29   26 1
    29   30    2 1
    30   31   30 1
    31   32   30 1
    32   33   30 1
    33   11   13 ar
    34   22   24 ar
@<TRIPOS>SUBSTRUCTURE
     1 RES1 1

@<TRIPOS>CRYSIN
   7.2117   10.1590   16.8850  90.0000  90.0000  90.0000  19 1

