# MOL2 file generated by ConQuest
# Please check atom types

@<TRIPOS>MOLECULE
HIFXUR
    31    32     1
SMALL
NO_CHARGES
****
Generated from CSD

@<TRIPOS>ATOM
      1 O1         2.3151    5.1268    2.7127 O.3       1 RES1    0.0000
      2 O2         7.8490    2.7751    1.7810 O.2       1 RES1    0.0000
      3 O3         5.8625    2.2772    1.0796 O.2       1 RES1    0.0000
      4 N1         1.7561    4.4846    3.8297 N.2       1 RES1    0.0000
      5 N2         6.6238    2.8114    1.8788 N.pl3     1 RES1    0.0000
      6 C1         2.6598    3.9847    4.6047 C.2       1 RES1    0.0000
      7 C2         2.1715    3.2982    5.8200 C.ar      1 RES1    0.0000
      8 C3         0.9482    3.6583    6.4016 C.ar      1 RES1    0.0000
      9 H1         0.4472    4.3800    6.0398 H         1 RES1    0.0000
     10 C4         0.4652    2.9655    7.5020 C.ar      1 RES1    0.0000
     11 H2        -0.3688    3.2101    7.8862 H         1 RES1    0.0000
     12 C5         1.1978    1.9130    8.0452 C.ar      1 RES1    0.0000
     13 H3         0.8637    1.4367    8.7967 H         1 RES1    0.0000
     14 C6         2.4192    1.5637    7.4841 C.ar      1 RES1    0.0000
     15 H4         2.9239    0.8508    7.8575 H         1 RES1    0.0000
     16 C7         2.9101    2.2519    6.3761 C.ar      1 RES1    0.0000
     17 H5         3.7480    2.0092    5.9984 H         1 RES1    0.0000
     18 C8         4.1263    4.0564    4.3406 C.ar      1 RES1    0.0000
     19 C9         4.6719    3.4544    3.2101 C.ar      1 RES1    0.0000
     20 H6         4.1174    3.0116    2.5782 H         1 RES1    0.0000
     21 C10        6.0453    3.5177    3.0293 C.ar      1 RES1    0.0000
     22 C11        6.8964    4.2062    3.8812 C.ar      1 RES1    0.0000
     23 H7         7.8299    4.2542    3.7119 H         1 RES1    0.0000
     24 C12        6.3322    4.8222    4.9908 C.ar      1 RES1    0.0000
     25 H8         6.8836    5.3186    5.5838 H         1 RES1    0.0000
     26 C13        4.9646    4.7185    5.2421 C.ar      1 RES1    0.0000
     27 H9         4.5998    5.1006    6.0319 H         1 RES1    0.0000
     28 C14        1.2473    5.7200    1.9636 C.3       1 RES1    0.0000
     29 H10        0.6616    5.0155    1.6152 H         1 RES1    0.0000
     30 H11        1.6191    6.2351    1.2166 H         1 RES1    0.0000
     31 H12        0.7307    6.3157    2.5464 H         1 RES1    0.0000
@<TRIPOS>BOND
     1    1    4 1
     2    2    5 2
     3    3    5 2
     4    4    6 2
     5    5   21 1
     6    6    7 1
     7    7    8 ar
     8    8    9 1
     9   10    8 ar
    10   11   10 1
    11   12   10 ar
    12   13   12 1
    13   14   12 ar
    14   15   14 1
    15   16    7 ar
    16   17   16 1
    17   18    6 1
    18   19   18 ar
    19   20   19 1
    20   21   19 ar
    21   22   21 ar
    22   23   22 1
    23   24   22 ar
    24   25   24 1
    25   26   18 ar
    26   27   26 1
    27   28    1 1
    28   29   28 1
    29   30   28 1
    30   31   28 1
    31   14   16 ar
    32   24   26 ar
@<TRIPOS>SUBSTRUCTURE
     1 RES1 1

@<TRIPOS>CRYSIN
   8.7740    8.8629   16.0010  90.0000  94.8100  90.0000  14 1

