# MOL2 file generated by ConQuest
# Please check atom types

@<TRIPOS>MOLECULE
HIFXIF
    31    32     1
SMALL
NO_CHARGES
****
Generated from CSD

@<TRIPOS>ATOM
      1 O1         1.7873    5.0695   10.8523 O.3       1 RES1    0.0000
      2 O2         6.9165    6.8383    6.7983 O.2       1 RES1    0.0000
      3 O3         7.5199    7.3632    8.8091 O.2       1 RES1    0.0000
      4 N1         1.7942    3.6701   10.7361 N.2       1 RES1    0.0000
      5 N2         6.8316    6.7305    8.0178 N.pl3     1 RES1    0.0000
      6 C1         2.8061    3.2422   10.0621 C.2       1 RES1    0.0000
      7 C2         2.8512    1.7861    9.8079 C.ar      1 RES1    0.0000
      8 C3         1.6809    1.0175    9.8043 C.ar      1 RES1    0.0000
      9 H1         0.8375    1.4377    9.9212 H         1 RES1    0.0000
     10 C4         1.7516   -0.3580    9.6291 C.ar      1 RES1    0.0000
     11 H2         0.9557   -0.8767    9.6279 H         1 RES1    0.0000
     12 C5         2.9844   -0.9801    9.4553 C.ar      1 RES1    0.0000
     13 H3         3.0314   -1.9233    9.3563 H         1 RES1    0.0000
     14 C6         4.1456   -0.2190    9.4273 C.ar      1 RES1    0.0000
     15 H4         4.9857   -0.6417    9.2924 H         1 RES1    0.0000
     16 C7         4.0826    1.1597    9.5965 C.ar      1 RES1    0.0000
     17 H5         4.8785    1.6773    9.5686 H         1 RES1    0.0000
     18 C8         3.8944    4.1124    9.5380 C.ar      1 RES1    0.0000
     19 C9         4.1709    4.1384    8.1685 C.ar      1 RES1    0.0000
     20 H6         3.6959    3.5648    7.5790 H         1 RES1    0.0000
     21 C10        5.1364    4.9984    7.6651 C.ar      1 RES1    0.0000
     22 H7         5.3087    5.0438    6.7317 H         1 RES1    0.0000
     23 C11        5.8432    5.7902    8.5571 C.ar      1 RES1    0.0000
     24 C12        5.6348    5.7477    9.9279 C.ar      1 RES1    0.0000
     25 H8         6.1552    6.2795   10.5189 H         1 RES1    0.0000
     26 C13        4.6433    4.9047   10.4123 C.ar      1 RES1    0.0000
     27 H9         4.4722    4.8666   11.3459 H         1 RES1    0.0000
     28 C14        0.6704    5.4383   11.6694 C.3       1 RES1    0.0000
     29 H10       -0.1604    5.1475   11.2382 H         1 RES1    0.0000
     30 H11        0.6559    6.4117   11.7828 H         1 RES1    0.0000
     31 H12        0.7509    5.0089   12.5459 H         1 RES1    0.0000
@<TRIPOS>BOND
     1    1    4 1
     2    2    5 2
     3    3    5 2
     4    4    6 2
     5    5   23 1
     6    6    7 1
     7    7    8 ar
     8    8    9 1
     9   10    8 ar
    10   11   10 1
    11   12   10 ar
    12   13   12 1
    13   14   12 ar
    14   15   14 1
    15   16    7 ar
    16   17   16 1
    17   18    6 1
    18   19   18 ar
    19   20   19 1
    20   21   19 ar
    21   22   21 1
    22   23   21 ar
    23   24   23 ar
    24   25   24 1
    25   26   18 ar
    26   27   26 1
    27   28    1 1
    28   29   28 1
    29   30   28 1
    30   31   28 1
    31   14   16 ar
    32   24   26 ar
@<TRIPOS>SUBSTRUCTURE
     1 RES1 1

@<TRIPOS>CRYSIN
   8.8087    9.1805   16.0070  90.0000 102.8790  90.0000 231 1

