# MOL2 file generated by ConQuest
# Please check atom types

@<TRIPOS>MOLECULE
HIFYIG
    64    66     2
SMALL
NO_CHARGES
****
Generated from CSD

@<TRIPOS>ATOM
      1 O1        10.3285    4.9401   10.9344 O.3       1 RES1    0.0000
      2 N1         9.1565    5.5767   10.4879 N.2       1 RES1    0.0000
      3 C1         8.1107    4.8832   10.7686 C.2       1 RES1    0.0000
      4 C2         6.8219    5.4519   10.3107 C.ar      1 RES1    0.0000
      5 C3         6.7434    6.2190    9.1443 C.ar      1 RES1    0.0000
      6 H1         7.5178    6.3423    8.6079 H         1 RES1    0.0000
      7 C4         5.5423    6.8010    8.7663 C.ar      1 RES1    0.0000
      8 H2         5.4936    7.3157    7.9704 H         1 RES1    0.0000
      9 C5         4.4109    6.6318    9.5513 C.ar      1 RES1    0.0000
     10 H3         3.5919    7.0425    9.2991 H         1 RES1    0.0000
     11 C6         4.4752    5.8637   10.7024 C.ar      1 RES1    0.0000
     12 H4         3.6985    5.7447   11.2364 H         1 RES1    0.0000
     13 C7         5.6732    5.2664   11.0798 C.ar      1 RES1    0.0000
     14 H5         5.7097    4.7309   11.8627 H         1 RES1    0.0000
     15 C8         8.1423    3.5853   11.5068 C.ar      1 RES1    0.0000
     16 C9         8.3743    3.5383   12.8734 C.ar      1 RES1    0.0000
     17 H6         8.4845    4.3459   13.3615 H         1 RES1    0.0000
     18 C10        8.4456    2.3133   13.5358 C.ar      1 RES1    0.0000
     19 H7         8.5889    2.2976   14.4755 H         1 RES1    0.0000
     20 C11        8.3092    1.1130   12.8441 C.ar      1 RES1    0.0000
     21 C12        8.0557    1.1701   11.4755 C.ar      1 RES1    0.0000
     22 H8         7.9443    0.3633   10.9881 H         1 RES1    0.0000
     23 C13        7.9621    2.3868   10.8134 C.ar      1 RES1    0.0000
     24 H9         7.7739    2.4039    9.8830 H         1 RES1    0.0000
     25 C14        8.4335   -0.2203   13.5389 C.3       1 RES1    0.0000
     26 H10        7.5746   -0.6900   13.5002 H         1 RES1    0.0000
     27 H11        8.6868   -0.0784   14.4755 H         1 RES1    0.0000
     28 H12        9.1203   -0.7583   13.0931 H         1 RES1    0.0000
     29 C15       11.4418    5.7846   10.6409 C.3       1 RES1    0.0000
     30 H13       11.4719    5.9628    9.6772 H         1 RES1    0.0000
     31 H14       12.2714    5.3403   10.9165 H         1 RES1    0.0000
     32 H15       11.3473    6.6303   11.1268 H         1 RES1    0.0000
     33 O2        11.5690    6.0182    5.5043 O.3       2 RES2    0.0000
     34 N2        10.3161    6.4360    5.0185 N.2       2 RES2    0.0000
     35 C16        9.3919    5.5770    5.2732 C.2       2 RES2    0.0000
     36 C17        8.0362    5.9049    4.7704 C.ar      2 RES2    0.0000
     37 C18        7.8459    6.7406    3.6678 C.ar      2 RES2    0.0000
     38 H16        8.5961    7.1154    3.2213 H         2 RES2    0.0000
     39 C19        6.5583    7.0256    3.2199 C.ar      2 RES2    0.0000
     40 H17        6.4337    7.5936    2.4674 H         2 RES2    0.0000
     41 C20        5.4565    6.4824    3.8686 C.ar      2 RES2    0.0000
     42 H18        4.5797    6.6699    3.5546 H         2 RES2    0.0000
     43 C21        5.6388    5.6662    4.9742 C.ar      2 RES2    0.0000
     44 H19        4.8862    5.3046    5.4269 H         2 RES2    0.0000
     45 C22        6.9208    5.3784    5.4178 C.ar      2 RES2    0.0000
     46 H20        7.0402    4.8148    6.1741 H         2 RES2    0.0000
     47 C23        9.5967    4.3029    6.0220 C.ar      2 RES2    0.0000
     48 C24       10.0492    4.3094    7.3411 C.ar      2 RES2    0.0000
     49 H21       10.2365    5.1346    7.7735 H         2 RES2    0.0000
     50 C25       10.2272    3.1135    8.0276 C.ar      2 RES2    0.0000
     51 H22       10.5190    3.1312    8.9323 H         2 RES2    0.0000
     52 C26        9.9815    1.8875    7.4064 C.ar      2 RES2    0.0000
     53 C27        9.5228    1.8886    6.0947 C.ar      2 RES2    0.0000
     54 H23        9.3478    1.0626    5.6596 H         2 RES2    0.0000
     55 C28        9.3155    3.0842    5.4099 C.ar      2 RES2    0.0000
     56 H24        8.9811    3.0683    4.5209 H         2 RES2    0.0000
     57 C29       10.2158    0.5967    8.1464 C.3       2 RES2    0.0000
     58 H25        9.8859   -0.1529    7.6080 H         2 RES2    0.0000
     59 H26        9.7391    0.6194    9.0016 H         2 RES2    0.0000
     60 H27       11.1753    0.4836    8.3104 H         2 RES2    0.0000
     61 C30       12.5116    7.0611    5.2442 C.3       2 RES2    0.0000
     62 H28       12.5614    7.2233    4.2794 H         2 RES2    0.0000
     63 H29       13.3938    6.7941    5.5768 H         2 RES2    0.0000
     64 H30       12.2253    7.8808    5.6998 H         2 RES2    0.0000
@<TRIPOS>BOND
     1    1    2 1
     2    2    3 2
     3    3    4 1
     4    4    5 ar
     5    5    6 1
     6    7    5 ar
     7    8    7 1
     8    9    7 ar
     9   10    9 1
    10   11    9 ar
    11   12   11 1
    12   13    4 ar
    13   14   13 1
    14   15    3 1
    15   16   15 ar
    16   17   16 1
    17   18   16 ar
    18   19   18 1
    19   20   18 ar
    20   21   20 ar
    21   22   21 1
    22   23   15 ar
    23   24   23 1
    24   25   20 1
    25   26   25 1
    26   27   25 1
    27   28   25 1
    28   29    1 1
    29   30   29 1
    30   31   29 1
    31   32   29 1
    32   33   34 1
    33   34   35 2
    34   35   36 1
    35   36   37 ar
    36   37   38 1
    37   39   37 ar
    38   40   39 1
    39   41   39 ar
    40   42   41 1
    41   43   41 ar
    42   44   43 1
    43   45   36 ar
    44   46   45 1
    45   47   35 1
    46   48   47 ar
    47   49   48 1
    48   50   48 ar
    49   51   50 1
    50   52   50 ar
    51   53   52 ar
    52   54   53 1
    53   55   47 ar
    54   56   55 1
    55   57   52 1
    56   58   57 1
    57   59   57 1
    58   60   57 1
    59   61   33 1
    60   62   61 1
    61   63   61 1
    62   64   61 1
    63   11   13 ar
    64   21   23 ar
    65   43   45 ar
    66   53   55 ar
@<TRIPOS>SUBSTRUCTURE
     1 RES1 1
     2 RES2 33

@<TRIPOS>CRYSIN
  14.1870    7.7620   22.9980  90.0000 103.4220  90.0000  14 1

