# MOL2 file generated by ConQuest
# Please check atom types

@<TRIPOS>MOLECULE
HIFYOM
    62    64     2
SMALL
NO_CHARGES
****
Generated from CSD

@<TRIPOS>ATOM
      1 O1         4.4693    1.7912   13.0188 O.3       1 RES1    0.0000
      2 O2         0.5848   -1.8096   18.5496 O.2       1 RES1    0.0000
      3 O3         1.9208   -2.2836   16.9159 O.2       1 RES1    0.0000
      4 N1         3.7574    1.2440   14.1046 N.2       1 RES1    0.0000
      5 N2         1.2913   -1.4806   17.6023 N.pl3     1 RES1    0.0000
      6 C1         3.0215    2.1369   14.6709 C.2       1 RES1    0.0000
      7 C2         2.2022    1.6790   15.8304 C.ar      1 RES1    0.0000
      8 C3         2.1495    0.3256   16.1904 C.ar      1 RES1    0.0000
      9 H1         2.6425   -0.3239   15.7018 H         1 RES1    0.0000
     10 C4         1.3695   -0.0483   17.2637 C.ar      1 RES1    0.0000
     11 C5         0.6497    0.8514   18.0133 C.ar      1 RES1    0.0000
     12 H2         0.1311    0.5656   18.7552 H         1 RES1    0.0000
     13 C6         0.7060    2.1861   17.6533 C.ar      1 RES1    0.0000
     14 H3         0.2146    2.8288   18.1531 H         1 RES1    0.0000
     15 C7         1.4702    2.5973   16.5717 C.ar      1 RES1    0.0000
     16 H4         1.4928    3.5165   16.3368 H         1 RES1    0.0000
     17 C8         2.9494    3.5623   14.2395 C.ar      1 RES1    0.0000
     18 C9         3.9795    4.4451   14.5732 C.ar      1 RES1    0.0000
     19 H5         4.7283    4.1415   15.0733 H         1 RES1    0.0000
     20 C10        3.9009    5.7637   14.1698 C.ar      1 RES1    0.0000
     21 H6         4.5957    6.3691   14.4021 H         1 RES1    0.0000
     22 C11        2.8231    6.2071   13.4340 C.ar      1 RES1    0.0000
     23 H7         2.7799    7.1162   13.1616 H         1 RES1    0.0000
     24 C12        1.8055    5.3414   13.0918 C.ar      1 RES1    0.0000
     25 H8         1.0703    5.6466   12.5726 H         1 RES1    0.0000
     26 C13        1.8654    4.0202   13.5097 C.ar      1 RES1    0.0000
     27 H9         1.1570    3.4250   13.2932 H         1 RES1    0.0000
     28 C14        5.1930    0.7403   12.3712 C.3       1 RES1    0.0000
     29 H10        5.8524    0.3672   12.9938 H         1 RES1    0.0000
     30 H11        5.6520    1.0981   11.5822 H         1 RES1    0.0000
     31 H12        4.5687    0.0365   12.0955 H         1 RES1    0.0000
     32 O4        -0.3216    3.8026    4.9991 O.3       2 RES2    0.0000
     33 O5         3.8506    6.9712   10.4516 O.2       2 RES2    0.0000
     34 O6         2.4904    7.5105    8.8614 O.2       2 RES2    0.0000
     35 N3         0.4652    4.2085    6.0895 N.2       2 RES2    0.0000
     36 N4         3.1149    6.6905    9.5125 N.pl3     2 RES2    0.0000
     37 C15        1.1969    3.2494    6.5400 C.2       2 RES2    0.0000
     38 C16        2.0545    3.6073    7.6989 C.ar      2 RES2    0.0000
     39 C17        2.2564    4.9488    8.0289 C.ar      2 RES2    0.0000
     40 H13        1.9079    5.6390    7.4758 H         2 RES2    0.0000
     41 C18        2.9699    5.2557    9.1660 C.ar      2 RES2    0.0000
     42 C19        3.5344    4.3094    9.9929 C.ar      2 RES2    0.0000
     43 H14        4.0279    4.5561   10.7662 H         2 RES2    0.0000
     44 C20        3.3505    2.9823    9.6451 C.ar      2 RES2    0.0000
     45 H15        3.7240    2.2997   10.1903 H         2 RES2    0.0000
     46 C21        2.6307    2.6355    8.5169 C.ar      2 RES2    0.0000
     47 H16        2.5274    1.7180    8.2951 H         2 RES2    0.0000
     48 C22        1.1749    1.8511    6.0162 C.ar      2 RES2    0.0000
     49 C23        1.8296    1.5102    4.8398 C.ar      2 RES2    0.0000
     50 H17        2.3083    2.1742    4.3565 H         2 RES2    0.0000
     51 C24        1.7909    0.2128    4.3683 C.ar      2 RES2    0.0000
     52 H18        2.2439   -0.0127    3.5635 H         2 RES2    0.0000
     53 C25        1.0967   -0.7547    5.0593 C.ar      2 RES2    0.0000
     54 H19        1.0737   -1.6468    4.7349 H         2 RES2    0.0000
     55 C26        0.4377   -0.4291    6.2208 C.ar      2 RES2    0.0000
     56 H20       -0.0515   -1.0939    6.6927 H         2 RES2    0.0000
     57 C27        0.4860    0.8700    6.7075 C.ar      2 RES2    0.0000
     58 H21        0.0444    1.0862    7.5185 H         2 RES2    0.0000
     59 C28       -1.3005    4.8207    4.7444 C.3       2 RES2    0.0000
     60 H22       -2.0269    4.7469    5.3995 H         2 RES2    0.0000
     61 H23       -1.6619    4.7088    3.8399 H         2 RES2    0.0000
     62 H24       -0.8816    5.7034    4.8204 H         2 RES2    0.0000
@<TRIPOS>BOND
     1    1    4 1
     2    2    5 2
     3    3    5 2
     4    4    6 2
     5    5   10 1
     6    6    7 1
     7    7    8 ar
     8    8    9 1
     9   10    8 ar
    10   11   10 ar
    11   12   11 1
    12   13   11 ar
    13   14   13 1
    14   15    7 ar
    15   16   15 1
    16   17    6 1
    17   18   17 ar
    18   19   18 1
    19   20   18 ar
    20   21   20 1
    21   22   20 ar
    22   23   22 1
    23   24   22 ar
    24   25   24 1
    25   26   17 ar
    26   27   26 1
    27   28    1 1
    28   29   28 1
    29   30   28 1
    30   31   28 1
    31   32   35 1
    32   33   36 2
    33   34   36 2
    34   35   37 2
    35   36   41 1
    36   37   38 1
    37   38   39 ar
    38   39   40 1
    39   41   39 ar
    40   42   41 ar
    41   43   42 1
    42   44   42 ar
    43   45   44 1
    44   46   38 ar
    45   47   46 1
    46   48   37 1
    47   49   48 ar
    48   50   49 1
    49   51   49 ar
    50   52   51 1
    51   53   51 ar
    52   54   53 1
    53   55   53 ar
    54   56   55 1
    55   57   48 ar
    56   58   57 1
    57   59   32 1
    58   60   59 1
    59   61   59 1
    60   62   59 1
    61   13   15 ar
    62   24   26 ar
    63   44   46 ar
    64   55   57 ar
@<TRIPOS>SUBSTRUCTURE
     1 RES1 1
     2 RES2 32

@<TRIPOS>CRYSIN
   8.8582    8.4797   32.9070  90.0000  90.7820  90.0000  14 1

