# MOL2 file generated by ConQuest
# Please check atom types

@<TRIPOS>MOLECULE
HIFYOK
   168   176     4
SMALL
NO_CHARGES
****
Generated from CSD

@<TRIPOS>ATOM
      1 O1        -0.1358    5.3115    1.2345 O.2       1 RES1    0.0000
      2 O2        -0.9089    3.3809    0.7945 O.2       1 RES1    0.0000
      3 O3         2.1254    0.5864    5.7151 O.3       1 RES1    0.0000
      4 O4        12.7868   -8.9136    4.1349 O.2       2 RES2    0.0000
      5 O5        13.6479  -10.4267    5.3869 O.2       2 RES2    0.0000
      6 O6        17.8249   -6.1466   10.7231 O.3       2 RES2    0.0000
      7 O7        14.6973   -2.3063    4.7390 O.2       3 RES3    0.0000
      8 O8        13.7580   -3.8220    3.5307 O.2       3 RES3    0.0000
      9 O9        11.8837    0.7474   -1.0686 O.3       3 RES3    0.0000
     10 O10       14.3509   -2.7264    8.4007 O.2       4 RES4    0.0000
     11 O11       14.1940   -4.8207    8.9019 O.2       4 RES4    0.0000
     12 O12       10.8369   -5.7801    3.1501 O.3       4 RES4    0.0000
     13 N1         4.0848    1.7919    4.1943 N.3       1 RES1    0.0000
     14 N2        -0.0736    4.0903    1.3026 N.pl3     1 RES1    0.0000
     15 N3         5.1721    0.3861    1.1420 N.1       1 RES1    0.0000
     16 N4         3.9890   -2.9228    3.5255 N.1       1 RES1    0.0000
     17 N5        17.0584   -5.5380    7.2133 N.3       2 RES2    0.0000
     18 N6        13.5833   -9.2736    4.9975 N.pl3     2 RES2    0.0000
     19 N7        19.5844   -7.3560    5.7885 N.1       2 RES2    0.0000
     20 N8        20.2364   -8.0497    9.8902 N.1       2 RES2    0.0000
     21 N9        10.7092    1.1963    1.4249 N.3       3 RES3    0.0000
     22 N10       13.9090   -2.6571    3.8677 N.pl3     3 RES3    0.0000
     23 N11        8.0426   -0.8927    2.4568 N.1       3 RES3    0.0000
     24 N12        7.9280   -1.0681   -1.7811 N.1       3 RES3    0.0000
     25 N13        9.4169   -4.3848    4.9835 N.3       4 RES4    0.0000
     26 N14       13.8296   -3.8037    8.2733 N.pl3     4 RES4    0.0000
     27 N15        7.9711   -6.0157    7.8577 N.1       4 RES4    0.0000
     28 N16        8.3105   -9.0445    4.8403 N.1       4 RES4    0.0000
     29 C1         1.0139    3.4921    2.0517 C.ar      1 RES1    0.0000
     30 C2         1.9357    4.3010    2.6716 C.ar      1 RES1    0.0000
     31 C3         2.9692    3.7173    3.3561 C.ar      1 RES1    0.0000
     32 C4         3.0698    2.3312    3.4713 C.ar      1 RES1    0.0000
     33 C5         2.1372    1.5131    2.8026 C.ar      1 RES1    0.0000
     34 C6         1.1052    2.1086    2.0901 C.ar      1 RES1    0.0000
     35 C7         2.2360   -0.0013    2.8392 C.3       1 RES1    0.0000
     36 C8         3.7003   -0.3704    3.1658 C.3       1 RES1    0.0000
     37 C9         4.1831    0.3586    4.4544 C.3       1 RES1    0.0000
     38 C10        5.2994    2.4935    4.5452 C.3       1 RES1    0.0000
     39 C11        6.0850    1.4764    5.3467 C.3       1 RES1    0.0000
     40 C12        5.6646    0.1479    4.7548 C.3       1 RES1    0.0000
     41 C13        1.7474   -0.6793    1.5907 C.3       1 RES1    0.0000
     42 C14        4.5539    0.0445    2.0308 C.1       1 RES1    0.0000
     43 C15        3.8526   -1.8154    3.3386 C.1       1 RES1    0.0000
     44 C16        3.3754   -0.0432    5.6890 C.3       1 RES1    0.0000
     45 C17        1.3724    0.2003    6.8414 C.3       1 RES1    0.0000
     46 C18       14.4899   -8.2997    5.5562 C.ar      2 RES2    0.0000
     47 C19       14.4624   -7.0131    5.1180 C.ar      2 RES2    0.0000
     48 C20       15.3276   -6.0929    5.6575 C.ar      2 RES2    0.0000
     49 C21       16.2232   -6.4529    6.6773 C.ar      2 RES2    0.0000
     50 C22       16.2618   -7.8063    7.1068 C.ar      2 RES2    0.0000
     51 C23       15.3791   -8.7016    6.5271 C.ar      2 RES2    0.0000
     52 C24       17.2802   -8.2762    8.1405 C.3       2 RES2    0.0000
     53 C25       18.4647   -7.2670    8.1458 C.3       2 RES2    0.0000
     54 C26       17.9150   -5.8233    8.3571 C.3       2 RES2    0.0000
     55 C27       17.3136   -4.2225    6.6563 C.3       2 RES2    0.0000
     56 C28       18.3055   -3.5877    7.5853 C.3       2 RES2    0.0000
     57 C29       19.0017   -4.7435    8.2750 C.3       2 RES2    0.0000
     58 C30       17.7140   -9.7081    7.9328 C.3       2 RES2    0.0000
     59 C31       19.1272   -7.3194    6.8222 C.1       2 RES2    0.0000
     60 C32       19.4474   -7.6715    9.1620 C.1       2 RES2    0.0000
     61 C33       17.0911   -5.7003    9.6213 C.3       2 RES2    0.0000
     62 C34       17.1523   -5.8848   11.9367 C.3       2 RES2    0.0000
     63 C35       13.0921   -1.6531    3.2251 C.ar      3 RES3    0.0000
     64 C36       13.1305   -0.3508    3.6704 C.ar      3 RES3    0.0000
     65 C37       12.3536    0.6034    3.0610 C.ar      3 RES3    0.0000
     66 C38       11.5177    0.2631    1.9819 C.ar      3 RES3    0.0000
     67 C39       11.5061   -1.0864    1.5157 C.ar      3 RES3    0.0000
     68 C40       12.2777   -2.0065    2.1757 C.ar      3 RES3    0.0000
     69 C41       10.6294   -1.4804    0.3300 C.3       3 RES3    0.0000
     70 C42        9.4099   -0.5052    0.2864 C.3       3 RES3    0.0000
     71 C43        9.8854    0.9725    0.2584 C.3       3 RES3    0.0000
     72 C44       10.4567    2.5196    2.0116 C.3       3 RES3    0.0000
     73 C45        9.3997    3.1440    1.1385 C.3       3 RES3    0.0000
     74 C46        8.7436    1.9869    0.4243 C.3       3 RES3    0.0000
     75 C47       10.2043   -2.9267    0.3318 C.3       3 RES3    0.0000
     76 C48        8.6116   -0.7238    1.4999 C.1       3 RES3    0.0000
     77 C49        8.5610   -0.8272   -0.8748 C.1       3 RES3    0.0000
     78 C50       10.6528    1.3154   -1.0320 C.3       3 RES3    0.0000
     79 C51       12.8172    1.4503   -1.8509 C.3       3 RES3    0.0000
     80 C52       12.6900   -3.9594    7.3880 C.ar      4 RES4    0.0000
     81 C53       12.1274   -2.8442    6.8292 C.ar      4 RES4    0.0000
     82 C54       11.0565   -2.9974    6.0190 C.ar      4 RES4    0.0000
     83 C55       10.5301   -4.2814    5.7344 C.ar      4 RES4    0.0000
     84 C56       11.1549   -5.4005    6.2792 C.ar      4 RES4    0.0000
     85 C57       12.2152   -5.2369    7.1348 C.ar      4 RES4    0.0000
     86 C58       10.6598   -6.8024    5.9299 C.3       4 RES4    0.0000
     87 C59        9.1397   -6.7029    5.6261 C.3       4 RES4    0.0000
     88 C60        8.8754   -5.6492    4.5260 C.3       4 RES4    0.0000
     89 C61        8.5909   -3.2683    4.5924 C.3       4 RES4    0.0000
     90 C62        7.4142   -3.8730    3.8677 C.3       4 RES4    0.0000
     91 C63        7.3897   -5.3024    4.3339 C.3       4 RES4    0.0000
     92 C64       10.9627   -7.8560    6.9654 C.3       4 RES4    0.0000
     93 C65        8.4386   -6.3194    6.8763 C.1       4 RES4    0.0000
     94 C66        8.6427   -8.0209    5.1983 C.1       4 RES4    0.0000
     95 C67        9.4765   -6.0628    3.1815 C.3       4 RES4    0.0000
     96 C68       11.4906   -6.2631    2.0063 C.3       4 RES4    0.0000
     97 H1         1.8568    5.2474    2.6245 H         1 RES1    0.0000
     98 H2         3.6305    4.2683    3.7595 H         1 RES1    0.0000
     99 H3         0.4671    1.5746    1.6309 H         1 RES1    0.0000
    100 H4         1.6584   -0.3259    3.5202 H         1 RES1    0.0000
    101 H5         5.1086    3.2631    5.0673 H         1 RES1    0.0000
    102 H6         5.7790    2.7500    3.7647 H         1 RES1    0.0000
    103 H7         5.8550    1.5223    6.2687 H         1 RES1    0.0000
    104 H8         7.0204    1.6126    5.2472 H         1 RES1    0.0000
    105 H9         6.1500   -0.0366    3.9603 H         1 RES1    0.0000
    106 H10        5.7916   -0.5602    5.3746 H         1 RES1    0.0000
    107 H11        1.8432   -1.6204    1.6833 H         1 RES1    0.0000
    108 H12        0.8305   -0.4660    1.4598 H         1 RES1    0.0000
    109 H13        2.2512   -0.3822    0.8416 H         1 RES1    0.0000
    110 H14        3.2475   -0.9843    5.6820 H         1 RES1    0.0000
    111 H15        3.8584    0.2055    6.4677 H         1 RES1    0.0000
    112 H16        0.5315    0.6414    6.8257 H         1 RES1    0.0000
    113 H17        1.2367   -0.7408    6.8257 H         1 RES1    0.0000
    114 H18        1.8428    0.4398    7.6307 H         1 RES1    0.0000
    115 H19       13.8438   -6.7513    4.4457 H         2 RES2    0.0000
    116 H20       15.3224   -5.1990    5.3362 H         2 RES2    0.0000
    117 H21       15.3860   -9.6099    6.8047 H         2 RES2    0.0000
    118 H22       16.8789   -8.2814    9.0014 H         2 RES2    0.0000
    119 H23       16.5114   -3.7133    6.6301 H         2 RES2    0.0000
    120 H24       17.6733   -4.2932    5.7798 H         2 RES2    0.0000
    121 H25       17.8643   -3.0380    8.2209 H         2 RES2    0.0000
    122 H26       18.9309   -3.0668    7.0946 H         2 RES2    0.0000
    123 H27       19.7423   -5.0471    7.7616 H         2 RES2    0.0000
    124 H28       19.2993   -4.4921    9.1411 H         2 RES2    0.0000
    125 H29       18.3461   -9.9450    8.5998 H         2 RES2    0.0000
    126 H30       16.9539  -10.2749    8.0009 H         2 RES2    0.0000
    127 H31       18.1079   -9.8076    7.0737 H         2 RES2    0.0000
    128 H32       16.8517   -4.7906    9.7540 H         2 RES2    0.0000
    129 H33       16.3054   -6.2251    9.5340 H         2 RES2    0.0000
    130 H34       17.6723   -6.2003   12.6666 H         2 RES2    0.0000
    131 H35       17.0190   -4.9490   12.0222 H         2 RES2    0.0000
    132 H36       16.3115   -6.3259   11.9332 H         2 RES2    0.0000
    133 H37       13.6928   -0.1113    4.3968 H         3 RES3    0.0000
    134 H38       12.3832    1.5000    3.3701 H         3 RES3    0.0000
    135 H39       12.2473   -2.9149    1.9016 H         3 RES3    0.0000
    136 H40       11.1437   -1.3953   -0.4645 H         3 RES3    0.0000
    137 H41       11.2494    3.0445    2.0046 H         3 RES3    0.0000
    138 H42       10.1431    2.4346    2.9038 H         3 RES3    0.0000
    139 H43        8.7661    3.6165    1.6658 H         3 RES3    0.0000
    140 H44        9.7952    3.7369    0.5116 H         3 RES3    0.0000
    141 H45        8.4003    2.2579   -0.4191 H         3 RES3    0.0000
    142 H46        8.0394    1.6230    0.9499 H         3 RES3    0.0000
    143 H47        9.6614   -3.0969   -0.4278 H         3 RES3    0.0000
    144 H48       10.9779   -3.4791    0.3003 H         3 RES3    0.0000
    145 H49        9.7122   -3.1165    1.1210 H         3 RES3    0.0000
    146 H50       10.1529    0.9974   -1.7741 H         3 RES3    0.0000
    147 H51       10.7445    2.2592   -1.0931 H         3 RES3    0.0000
    148 H52       13.6545    1.0000   -1.8282 H         3 RES3    0.0000
    149 H53       12.5085    1.4961   -2.7484 H         3 RES3    0.0000
    150 H54       12.9227    2.3298   -1.5069 H         3 RES3    0.0000
    151 H55       12.4772   -1.9791    7.0073 H         4 RES4    0.0000
    152 H56       10.6522   -2.2304    5.6313 H         4 RES4    0.0000
    153 H57       12.6243   -5.9895    7.5451 H         4 RES4    0.0000
    154 H58       11.1361   -7.1073    5.1669 H         4 RES4    0.0000
    155 H59        8.3010   -2.7827    5.3554 H         4 RES4    0.0000
    156 H60        9.0671   -2.6872    4.0092 H         4 RES4    0.0000
    157 H61        6.6081   -3.4319    4.1122 H         4 RES4    0.0000
    158 H62        7.5307   -3.8207    2.9265 H         4 RES4    0.0000
    159 H63        6.9985   -5.8586    3.6704 H         4 RES4    0.0000
    160 H64        6.9081   -5.3940    5.1476 H         4 RES4    0.0000
    161 H65       10.6234   -8.6937    6.6738 H         4 RES4    0.0000
    162 H66       11.9049   -7.9175    7.0754 H         4 RES4    0.0000
    163 H67       10.5618   -7.6230    7.7948 H         4 RES4    0.0000
    164 H68        9.0440   -5.5825    2.4848 H         4 RES4    0.0000
    165 H69        9.3456   -6.9948    3.0523 H         4 RES4    0.0000
    166 H70       11.3958   -7.2068    1.9592 H         4 RES4    0.0000
    167 H71       11.1052   -5.8665    1.2328 H         4 RES4    0.0000
    168 H72       12.4122   -6.0380    2.0517 H         4 RES4    0.0000
@<TRIPOS>BOND
     1    1   14 2
     2    2   14 2
     3    3   44 1
     4    4   18 2
     5    5   18 2
     6    6   61 1
     7    7   22 2
     8    8   22 2
     9    9   78 1
    10   10   26 2
    11   11   26 2
    12   12   95 1
    13   13   32 1
    14   14   29 1
    15   15   42 3
    16   16   43 3
    17   17   49 1
    18   18   46 1
    19   19   59 3
    20   20   60 3
    21   21   66 1
    22   22   63 1
    23   23   76 3
    24   24   77 3
    25   25   83 1
    26   26   80 1
    27   27   93 3
    28   28   94 3
    29   29   30 ar
    30   30   31 ar
    31   31   32 ar
    32   32   33 ar
    33   33   34 ar
    34   34   29 ar
    35   35   33 1
    36   36   35 1
    37   37   13 1
    38   38   13 1
    39   39   38 1
    40   40   37 1
    41   41   35 1
    42   42   36 1
    43   43   36 1
    44   44   37 1
    45   45    3 1
    46   46   47 ar
    47   47   48 ar
    48   48   49 ar
    49   49   50 ar
    50   50   51 ar
    51   51   46 ar
    52   52   50 1
    53   53   52 1
    54   54   17 1
    55   55   17 1
    56   56   55 1
    57   57   54 1
    58   58   52 1
    59   59   53 1
    60   60   53 1
    61   61   54 1
    62   62    6 1
    63   63   64 ar
    64   64   65 ar
    65   65   66 ar
    66   66   67 ar
    67   67   68 ar
    68   68   63 ar
    69   69   67 1
    70   70   69 1
    71   71   21 1
    72   72   21 1
    73   73   72 1
    74   74   71 1
    75   75   69 1
    76   76   70 1
    77   77   70 1
    78   78   71 1
    79   79    9 1
    80   80   81 ar
    81   81   82 ar
    82   82   83 ar
    83   83   84 ar
    84   84   85 ar
    85   85   80 ar
    86   86   84 1
    87   87   86 1
    88   88   25 1
    89   89   25 1
    90   90   89 1
    91   91   88 1
    92   92   86 1
    93   93   87 1
    94   94   87 1
    95   95   88 1
    96   96   12 1
    97   97   30 1
    98   98   31 1
    99   99   34 1
   100  100   35 1
   101  101   38 1
   102  102   38 1
   103  103   39 1
   104  104   39 1
   105  105   40 1
   106  106   40 1
   107  107   41 1
   108  108   41 1
   109  109   41 1
   110  110   44 1
   111  111   44 1
   112  112   45 1
   113  113   45 1
   114  114   45 1
   115  115   47 1
   116  116   48 1
   117  117   51 1
   118  118   52 1
   119  119   55 1
   120  120   55 1
   121  121   56 1
   122  122   56 1
   123  123   57 1
   124  124   57 1
   125  125   58 1
   126  126   58 1
   127  127   58 1
   128  128   61 1
   129  129   61 1
   130  130   62 1
   131  131   62 1
   132  132   62 1
   133  133   64 1
   134  134   65 1
   135  135   68 1
   136  136   69 1
   137  137   72 1
   138  138   72 1
   139  139   73 1
   140  140   73 1
   141  141   74 1
   142  142   74 1
   143  143   75 1
   144  144   75 1
   145  145   75 1
   146  146   78 1
   147  147   78 1
   148  148   79 1
   149  149   79 1
   150  150   79 1
   151  151   81 1
   152  152   82 1
   153  153   85 1
   154  154   86 1
   155  155   89 1
   156  156   89 1
   157  157   90 1
   158  158   90 1
   159  159   91 1
   160  160   91 1
   161  161   92 1
   162  162   92 1
   163  163   92 1
   164  164   95 1
   165  165   95 1
   166  166   96 1
   167  167   96 1
   168  168   96 1
   169   36   37 1
   170   39   40 1
   171   53   54 1
   172   56   57 1
   173   70   71 1
   174   73   74 1
   175   87   88 1
   176   90   91 1
@<TRIPOS>SUBSTRUCTURE
     1 RES1 1
     2 RES2 4
     3 RES3 7
     4 RES4 10

@<TRIPOS>CRYSIN
  14.4520   13.0890   17.5580  90.0000  96.0100  90.0000   4 1

