# MOL2 file generated by ConQuest
# Please check atom types

@<TRIPOS>MOLECULE
HIFZAZ
    93    93     3
SMALL
NO_CHARGES
****
Generated from CSD

@<TRIPOS>ATOM
      1 O1         2.8426    8.1363   13.0701 O.3       1 RES1    0.0000
      2 O2        -0.6290    8.1715   17.5936 O.3       1 RES1    0.0000
      3 H1         0.0390    7.7638   17.9004 H         1 RES1    0.0000
      4 N1         2.3236    6.8500   12.8738 N.2       1 RES1    0.0000
      5 C1         1.3003    6.6478   13.6373 C.2       1 RES1    0.0000
      6 C2         0.6741    5.3024   13.5934 C.ar      1 RES1    0.0000
      7 C3         1.3700    4.2146   13.0750 C.ar      1 RES1    0.0000
      8 H2         2.2274    4.3466   12.6887 H         1 RES1    0.0000
      9 C4         0.8313    2.9448   13.1150 C.ar      1 RES1    0.0000
     10 H3         1.3130    2.2108   12.7508 H         1 RES1    0.0000
     11 C5        -0.4209    2.7400   13.6907 C.ar      1 RES1    0.0000
     12 H4        -0.7816    1.8639   13.7522 H         1 RES1    0.0000
     13 C6        -1.1317    3.8208   14.1698 C.ar      1 RES1    0.0000
     14 H5        -2.0001    3.6916   14.5326 H         1 RES1    0.0000
     15 C7        -0.5896    5.0935   14.1270 C.ar      1 RES1    0.0000
     16 H6        -1.0858    5.8300   14.4658 H         1 RES1    0.0000
     17 C8         0.7912    7.6064   14.5703 C.1       1 RES1    0.0000
     18 C9         0.3444    8.2924   15.4449 C.1       1 RES1    0.0000
     19 C10       -0.2062    9.0781   16.5699 C.3       1 RES1    0.0000
     20 C11       -1.4542    9.8273   16.1136 C.3       1 RES1    0.0000
     21 H7        -2.1215    9.1851   15.7941 H         1 RES1    0.0000
     22 H8        -1.2186   10.4432   15.3889 H         1 RES1    0.0000
     23 H9        -1.8241   10.3345   16.8668 H         1 RES1    0.0000
     24 C12        0.8573   10.0329   17.1205 C.3       1 RES1    0.0000
     25 H10        0.4763   10.5571   17.8567 H         1 RES1    0.0000
     26 H11        1.1540   10.6374   16.4087 H         1 RES1    0.0000
     27 H12        1.6219    9.5164   17.4492 H         1 RES1    0.0000
     28 C13        4.0011    8.2888   12.2398 C.3       1 RES1    0.0000
     29 H13        4.6812    7.6344   12.5045 H         1 RES1    0.0000
     30 H14        4.3606    9.1954   12.3434 H         1 RES1    0.0000
     31 H15        3.7532    8.1418   11.3029 H         1 RES1    0.0000
     32 O3         7.3409   11.5372   21.9032 O.3       2 RES2    0.0000
     33 O4         3.4302    8.1172   19.4582 O.3       2 RES2    0.0000
     34 H16        4.0492    8.1495   18.8903 H         2 RES2    0.0000
     35 N2         6.8893   12.4350   20.9366 N.2       2 RES2    0.0000
     36 C14        5.8420   11.9670   20.3267 C.2       2 RES2    0.0000
     37 C15        5.2553   12.8120   19.2611 C.ar      2 RES2    0.0000
     38 C16        5.9783   13.8731   18.7204 C.ar      2 RES2    0.0000
     39 H17        6.8413   14.0779   19.0606 H         2 RES2    0.0000
     40 C17        5.4473   14.6239   17.6974 C.ar      2 RES2    0.0000
     41 H18        5.9472   15.3464   17.3341 H         2 RES2    0.0000
     42 C18        4.1932   14.3378   17.1935 C.ar      2 RES2    0.0000
     43 H19        3.8377   14.8545   16.4801 H         2 RES2    0.0000
     44 C19        3.4656   13.3101   17.7255 C.ar      2 RES2    0.0000
     45 H20        2.5976   13.1226   17.3871 H         2 RES2    0.0000
     46 C20        3.9883   12.5373   18.7579 C.ar      2 RES2    0.0000
     47 H21        3.4788   11.8205   19.1205 H         2 RES2    0.0000
     48 C21        5.2445   10.7011   20.6115 C.1       2 RES2    0.0000
     49 C22        4.6764    9.6575   20.7333 C.1       2 RES2    0.0000
     50 C23        3.9712    8.3587   20.7766 C.3       2 RES2    0.0000
     51 C24        4.9330    7.2323   21.1419 C.3       2 RES2    0.0000
     52 H22        5.6815    7.2228   20.5086 H         2 RES2    0.0000
     53 H23        4.4609    6.3736   21.1025 H         2 RES2    0.0000
     54 H24        5.2735    7.3755   22.0487 H         2 RES2    0.0000
     55 C25        2.7853    8.4097   21.7250 C.3       2 RES2    0.0000
     56 H25        2.3222    7.5464   21.7172 H         2 RES2    0.0000
     57 H26        2.1673    9.1152   21.4386 H         2 RES2    0.0000
     58 H27        3.1008    8.6026   22.6334 H         2 RES2    0.0000
     59 C26        8.5197   12.0977   22.5065 C.3       2 RES2    0.0000
     60 H28        8.3098   12.9802   22.8751 H         2 RES2    0.0000
     61 H29        9.2234   12.1855   21.8300 H         2 RES2    0.0000
     62 H30        8.8305   11.5098   23.2250 H         2 RES2    0.0000
     63 O5         4.8934    3.8296   21.1313 O.3       3 RES3    0.0000
     64 O6         1.3351    6.5932   18.7335 O.3       3 RES3    0.0000
     65 H31        2.0256    7.0053   18.9732 H         3 RES3    0.0000
     66 N3         4.2635    2.6067   21.3447 N.2       3 RES3    0.0000
     67 C27        3.1873    2.5016   20.6242 C.2       3 RES3    0.0000
     68 C28        2.4428    1.2167   20.7093 C.ar      3 RES3    0.0000
     69 C29        2.9730    0.1302   21.3910 C.ar      3 RES3    0.0000
     70 H32        3.8319    0.2045   21.7908 H         3 RES3    0.0000
     71 C30        2.2741   -1.0567   21.4996 C.ar      3 RES3    0.0000
     72 H33        2.6501   -1.7889   21.9750 H         3 RES3    0.0000
     73 C31        1.0196   -1.1779   20.9126 C.ar      3 RES3    0.0000
     74 H34        0.5329   -1.9908   20.9851 H         3 RES3    0.0000
     75 C32        0.4888   -0.1072   20.2250 C.ar      3 RES3    0.0000
     76 H35       -0.3666   -0.1890   19.8203 H         3 RES3    0.0000
     77 C33        1.1858    1.0863   20.1168 C.ar      3 RES3    0.0000
     78 H36        0.8083    1.8147   19.6384 H         3 RES3    0.0000
     79 C34        2.7041    3.5630   19.7798 C.1       3 RES3    0.0000
     80 C35        2.2695    4.4149   19.0758 C.1       3 RES3    0.0000
     81 C36        1.7085    5.3746   18.0929 C.3       3 RES3    0.0000
     82 C37        2.7430    5.6451   16.9964 C.3       3 RES3    0.0000
     83 H37        3.5381    6.0578   17.3917 H         3 RES3    0.0000
     84 H38        2.3594    6.2494   16.3282 H         3 RES3    0.0000
     85 H39        2.9935    4.7996   16.5676 H         3 RES3    0.0000
     86 C38        0.4167    4.7916   17.5215 C.3       3 RES3    0.0000
     87 H40        0.0109    5.4365   16.9060 H         3 RES3    0.0000
     88 H41       -0.2063    4.6003   18.2526 H         3 RES3    0.0000
     89 H42        0.6188    3.9635   17.0372 H         3 RES3    0.0000
     90 C39        5.9765    3.9534   22.0581 C.3       3 RES3    0.0000
     91 H43        6.5529    3.1635   21.9934 H         3 RES3    0.0000
     92 H44        5.6202    4.0256   22.9672 H         3 RES3    0.0000
     93 H45        6.4971    4.7556   21.8461 H         3 RES3    0.0000
@<TRIPOS>BOND
     1    1    4 1
     2    2    3 1
     3    4    5 2
     4    5    6 1
     5    6    7 ar
     6    7    8 1
     7    9    7 ar
     8   10    9 1
     9   11    9 ar
    10   12   11 1
    11   13   11 ar
    12   14   13 1
    13   15    6 ar
    14   16   15 1
    15   17    5 1
    16   18   17 3
    17   19    2 1
    18   20   19 1
    19   21   20 1
    20   22   20 1
    21   23   20 1
    22   24   19 1
    23   25   24 1
    24   26   24 1
    25   27   24 1
    26   28    1 1
    27   29   28 1
    28   30   28 1
    29   31   28 1
    30   32   35 1
    31   33   34 1
    32   35   36 2
    33   36   37 1
    34   37   38 ar
    35   38   39 1
    36   40   38 ar
    37   41   40 1
    38   42   40 ar
    39   43   42 1
    40   44   42 ar
    41   45   44 1
    42   46   37 ar
    43   47   46 1
    44   48   36 1
    45   49   48 3
    46   50   33 1
    47   51   50 1
    48   52   51 1
    49   53   51 1
    50   54   51 1
    51   55   50 1
    52   56   55 1
    53   57   55 1
    54   58   55 1
    55   59   32 1
    56   60   59 1
    57   61   59 1
    58   62   59 1
    59   63   66 1
    60   64   65 1
    61   66   67 2
    62   67   68 1
    63   68   69 ar
    64   69   70 1
    65   71   69 ar
    66   72   71 1
    67   73   71 ar
    68   74   73 1
    69   75   73 ar
    70   76   75 1
    71   77   68 ar
    72   78   77 1
    73   79   67 1
    74   80   79 3
    75   81   64 1
    76   82   81 1
    77   83   82 1
    78   84   82 1
    79   85   82 1
    80   86   81 1
    81   87   86 1
    82   88   86 1
    83   89   86 1
    84   90   63 1
    85   91   90 1
    86   92   90 1
    87   93   90 1
    88   13   15 ar
    89   18   19 1
    90   44   46 ar
    91   49   50 1
    92   75   77 ar
    93   80   81 1
@<TRIPOS>SUBSTRUCTURE
     1 RES1 1
     2 RES2 32
     3 RES3 63

@<TRIPOS>CRYSIN
   6.0630   25.8880   23.1330  90.0000  95.6630  90.0000  14 1

