# MOL2 file generated by ConQuest
# Please check atom types

@<TRIPOS>MOLECULE
HIGBII01
    36    38     1
SMALL
NO_CHARGES
****
Generated from CSD

@<TRIPOS>ATOM
      1 N1         4.1915    5.4571    4.0296 N.3       1 RES1    0.0000
      2 O1         4.2991    5.8548    5.2314 O.2       1 RES1    0.0000
      3 C1         3.0590    4.5514    3.6733 C.3       1 RES1    0.0000
      4 C2         3.5055    3.6933    2.4954 C.3       1 RES1    0.0000
      5 C3         1.9016    5.4385    3.2181 C.3       1 RES1    0.0000
      6 C4         4.6873    6.3372    2.9346 C.3       1 RES1    0.0000
      7 C5         3.5055    7.2084    2.4954 C.3       1 RES1    0.0000
      8 C6         2.6852    3.6991    4.8701 C.3       1 RES1    0.0000
      9 C7         5.8569    7.1692    3.4217 C.3       1 RES1    0.0000
     10 H1         4.2666    3.1440    2.7819 H         1 RES1    0.0000
     11 H2         1.6156    5.9879    3.9578 H         1 RES1    0.0000
     12 H3         1.1073    4.8921    2.9366 H         1 RES1    0.0000
     13 H4         3.2092    7.7737    3.2481 H         1 RES1    0.0000
     14 H5         3.4309    3.2121    5.2005 H         1 RES1    0.0000
     15 H6         2.3688    4.2325    5.6197 H         1 RES1    0.0000
     16 H7         1.9354    3.0918    4.5756 H         1 RES1    0.0000
     17 H8         6.1630    7.7157    2.6851 H         1 RES1    0.0000
     18 H9         6.5885    6.6083    3.7791 H         1 RES1    0.0000
     19 H10        5.6115    7.7331    4.1814 H         1 RES1    0.0000
     20 C1A        3.9520    4.5514    1.3176 C.3       1 RES1    0.0000
     21 H1A        2.7443    3.1440    2.2090 H         1 RES1    0.0000
     22 C4A        2.3236    6.3372    2.0562 C.3       1 RES1    0.0000
     23 C3A        5.1094    5.4385    1.7728 C.3       1 RES1    0.0000
     24 H4A        3.8018    7.7737    1.7428 H         1 RES1    0.0000
     25 N1A        2.8195    5.4571    0.9612 N.3       1 RES1    0.0000
     26 C6A        4.3258    3.6991    0.1208 C.3       1 RES1    0.0000
     27 C7A        1.1541    7.1692    1.5691 C.3       1 RES1    0.0000
     28 H2A        5.3954    5.9879    1.0331 H         1 RES1    0.0000
     29 H3A        5.9037    4.8921    2.0542 H         1 RES1    0.0000
     30 O1A        2.7119    5.8548   -0.2406 O.2       1 RES1    0.0000
     31 H5A        3.5801    3.2121   -0.2096 H         1 RES1    0.0000
     32 H6A        4.6422    4.2325   -0.6289 H         1 RES1    0.0000
     33 H7A        5.0755    3.0918    0.4152 H         1 RES1    0.0000
     34 H8A        0.8480    7.7157    2.3058 H         1 RES1    0.0000
     35 H9A        0.4225    6.6083    1.2118 H         1 RES1    0.0000
     36 H10A       1.3995    7.7331    0.8095 H         1 RES1    0.0000
@<TRIPOS>BOND
     1    1    2 1
     2    3    1 1
     3    4    3 1
     4    5    3 1
     5    6    1 1
     6    7    6 1
     7    8    3 1
     8    9    6 1
     9   10    4 1
    10   11    5 1
    11   12    5 1
    12   13    7 1
    13   14    8 1
    14   15    8 1
    15   16    8 1
    16   17    9 1
    17   18    9 1
    18   19    9 1
    19   20    4 1
    20   21    4 1
    21   22    5 1
    22   23    6 1
    23   24    7 1
    24   25   20 1
    25   26   20 1
    26   27   22 1
    27   28   23 1
    28   29   23 1
    29   30   25 1
    30   31   26 1
    31   32   26 1
    32   33   26 1
    33   34   27 1
    34   35   27 1
    35   36   27 1
    36    7   22 1
    37   20   23 1
    38   22   25 1
@<TRIPOS>SUBSTRUCTURE
     1 RES1 1

@<TRIPOS>CRYSIN
   8.3810   14.4950   10.3510  90.0000 105.3500  90.0000  15 1

