# MOL2 file generated by ConQuest
# Please check atom types

@<TRIPOS>MOLECULE
HIGCIJ
    39    42     1
SMALL
NO_CHARGES
****
Generated from CSD

@<TRIPOS>ATOM
      1 O1         5.3908    9.8087    2.7252 O.2       1 RES1    0.0000
      2 O2         5.4031   14.5887    3.4322 O.3       1 RES1    0.0000
      3 O3         5.1709   12.6611    2.1290 O.3       1 RES1    0.0000
      4 N1         6.5382   12.2276    1.8541 N.3       1 RES1    0.0000
      5 C1         8.3291    9.4648    4.7696 C.ar      1 RES1    0.0000
      6 C2         8.8473    8.6209    5.7505 C.ar      1 RES1    0.0000
      7 C3         8.0593    7.6527    6.3175 C.ar      1 RES1    0.0000
      8 C4         6.7469    7.5024    5.9288 C.ar      1 RES1    0.0000
      9 C5         6.2206    8.3405    4.9610 C.ar      1 RES1    0.0000
     10 C6         7.0055    9.3231    4.3779 C.ar      1 RES1    0.0000
     11 C7         6.3845   10.1815    3.3325 C.2       1 RES1    0.0000
     12 C8         6.9730   11.5860    3.0797 C.3       1 RES1    0.0000
     13 C9         6.4334   12.5715    4.1382 C.3       1 RES1    0.0000
     14 C10        7.3588   13.7766    4.4000 C.3       1 RES1    0.0000
     15 C11        6.8040   14.8662    3.5148 C.3       1 RES1    0.0000
     16 C12        5.2106   13.2044    3.4433 C.3       1 RES1    0.0000
     17 C13        6.6003   11.6062    0.5922 C.ar      1 RES1    0.0000
     18 C14        7.5991   10.6641    0.3384 C.ar      1 RES1    0.0000
     19 C15        7.7518   10.1641   -0.9477 C.ar      1 RES1    0.0000
     20 C16        6.9241   10.5803   -1.9719 C.ar      1 RES1    0.0000
     21 C17        5.9416   11.5167   -1.7090 C.ar      1 RES1    0.0000
     22 C18        5.7808   12.0340   -0.4351 C.ar      1 RES1    0.0000
     23 H1         8.8992   10.1786    4.3607 H         1 RES1    0.0000
     24 H2         9.8084    8.7076    6.0124 H         1 RES1    0.0000
     25 H3         8.4462    7.0545    7.0195 H         1 RES1    0.0000
     26 H4         6.1809    6.8031    6.3659 H         1 RES1    0.0000
     27 H5         5.2707    8.2221    4.6709 H         1 RES1    0.0000
     28 H6         7.9565   11.4068    3.0797 H         1 RES1    0.0000
     29 H7         6.3346   12.0947    5.0103 H         1 RES1    0.0000
     30 H8         8.3026   13.5454    4.1613 H         1 RES1    0.0000
     31 H9         7.3161   14.0541    5.3598 H         1 RES1    0.0000
     32 H10        6.9679   15.7736    3.9025 H         1 RES1    0.0000
     33 H11        7.2183   14.8113    2.6064 H         1 RES1    0.0000
     34 H12        4.3514   13.0108    3.9166 H         1 RES1    0.0000
     35 H13        8.1825   10.3375    1.0816 H         1 RES1    0.0000
     36 H14        8.4777    9.5023   -1.1360 H         1 RES1    0.0000
     37 H15        7.0514   10.2075   -2.8904 H         1 RES1    0.0000
     38 H16        5.3328   11.8057   -2.4473 H         1 RES1    0.0000
     39 H17        5.0701   12.7131   -0.2538 H         1 RES1    0.0000
@<TRIPOS>BOND
     1    1   11 2
     2    2   15 1
     3    3    4 1
     4    4   12 1
     5    5    6 ar
     6    6    7 ar
     7    7    8 ar
     8    8    9 ar
     9    9   10 ar
    10   10    5 ar
    11   11   10 1
    12   12   11 1
    13   13   12 1
    14   14   13 1
    15   15   14 1
    16   16    2 1
    17   17    4 1
    18   18   17 ar
    19   19   18 ar
    20   20   19 ar
    21   21   20 ar
    22   22   17 ar
    23   23    5 1
    24   24    6 1
    25   25    7 1
    26   26    8 1
    27   27    9 1
    28   28   12 1
    29   29   13 1
    30   30   14 1
    31   31   14 1
    32   32   15 1
    33   33   15 1
    34   34   16 1
    35   35   18 1
    36   36   19 1
    37   37   20 1
    38   38   21 1
    39   39   22 1
    40    3   16 1
    41   13   16 1
    42   21   22 ar
@<TRIPOS>SUBSTRUCTURE
     1 RES1 1

@<TRIPOS>CRYSIN
  10.1810   28.9000   10.0710  90.0000  90.0000  90.0000  61 1

