# MOL2 file generated by ConQuest
# Please check atom types

@<TRIPOS>MOLECULE
HIGCUX
    74    78     2
SMALL
NO_CHARGES
****
Generated from CSD

@<TRIPOS>ATOM
      1 O1         5.0078    1.3868    5.7309 O.3       1 RES1    0.0000
      2 C1         5.6098    2.5115    5.2559 C.2       1 RES1    0.0000
      3 O2         6.5601    2.5582    4.5339 O.2       1 RES1    0.0000
      4 C2         4.7219    3.5014    5.9938 C.3       1 RES1    0.0000
      5 C3         4.0974    2.1815    6.5682 C.3       1 RES1    0.0000
      6 H1         4.2975    2.0724    7.5205 H         1 RES1    0.0000
      7 C4         5.5187    4.3520    6.9756 C.3       1 RES1    0.0000
      8 H2         6.0449    4.9909    6.4700 H         1 RES1    0.0000
      9 H3         4.8947    4.8561    7.5205 H         1 RES1    0.0000
     10 C5         6.4476    3.5931    7.8952 C.3       1 RES1    0.0000
     11 H4         7.0946    3.1137    7.3716 H         1 RES1    0.0000
     12 H5         5.9386    2.9725    8.4221 H         1 RES1    0.0000
     13 H6         6.8987    4.2109    8.4745 H         1 RES1    0.0000
     14 C6         3.8128    4.2814    5.0644 C.ar      1 RES1    0.0000
     15 C7         3.2528    5.4978    5.4522 C.ar      1 RES1    0.0000
     16 H7         3.4915    5.8754    6.2687 H         1 RES1    0.0000
     17 C8         2.3407    6.1495    4.6341 C.ar      1 RES1    0.0000
     18 H8         1.9756    6.9616    4.9024 H         1 RES1    0.0000
     19 C9         1.9738    5.5995    3.4232 C.ar      1 RES1    0.0000
     20 H9         1.3536    6.0312    2.8816 H         1 RES1    0.0000
     21 C10        2.5333    4.4033    3.0256 C.ar      1 RES1    0.0000
     22 H10        2.2929    4.0330    2.2074 H         1 RES1    0.0000
     23 C11        3.4520    3.7443    3.8323 C.ar      1 RES1    0.0000
     24 H11        3.8260    2.9414    3.5492 H         1 RES1    0.0000
     25 C12        2.6576    1.8708    6.2655 C.ar      1 RES1    0.0000
     26 C13        1.5809    2.6233    6.7760 C.ar      1 RES1    0.0000
     27 N1         1.8118    3.6765    7.7365 N.pl3     1 RES1    0.0000
     28 O3         2.8580    3.6746    8.3878 O.2       1 RES1    0.0000
     29 O4         0.9468    4.5298    7.8969 O.2       1 RES1    0.0000
     30 C14        0.2842    2.4070    6.3767 C.ar      1 RES1    0.0000
     31 H12       -0.4032    2.9322    6.7171 H         1 RES1    0.0000
     32 C15        0.0091    1.4033    5.4669 C.ar      1 RES1    0.0000
     33 H13       -0.8666    1.2539    5.1920 H         1 RES1    0.0000
     34 C16        1.0219    0.6306    4.9695 C.ar      1 RES1    0.0000
     35 H14        0.8297   -0.0568    4.3739 H         1 RES1    0.0000
     36 C17        2.3467    0.8699    5.3557 C.ar      1 RES1    0.0000
     37 H15        3.0283    0.3501    4.9957 H         1 RES1    0.0000
     38 O5         4.6142    8.2072    3.4883 O.3       2 RES2    0.0000
     39 C18        4.8897    8.9827    2.4038 C.2       2 RES2    0.0000
     40 O6         4.4402   10.0771    2.2041 O.2       2 RES2    0.0000
     41 C19        5.7894    7.9873    1.6969 C.3       2 RES2    0.0000
     42 C20        5.4530    7.1055    2.9634 C.3       2 RES2    0.0000
     43 H16        4.9211    6.3163    2.7327 H         2 RES2    0.0000
     44 C21        5.1446    7.5244    0.3829 C.3       2 RES2    0.0000
     45 H17        5.2356    8.2375   -0.2684 H         2 RES2    0.0000
     46 H18        5.6450    6.7636    0.0507 H         2 RES2    0.0000
     47 C22        3.6869    7.1366    0.4614 C.3       2 RES2    0.0000
     48 H19        3.1710    7.8883    0.7609 H         2 RES2    0.0000
     49 H20        3.5816    6.4098    1.0783 H         2 RES2    0.0000
     50 H21        3.3814    6.8653   -0.4074 H         2 RES2    0.0000
     51 C23        7.2256    8.3942    1.5349 C.ar      2 RES2    0.0000
     52 C24        8.1128    7.6041    0.8476 C.ar      2 RES2    0.0000
     53 H22        7.8058    6.8131    0.4647 H         2 RES2    0.0000
     54 C25        9.4597    7.9451    0.7003 C.ar      2 RES2    0.0000
     55 H23       10.0425    7.3878    0.2373 H         2 RES2    0.0000
     56 C26        9.9086    9.1248    1.2551 C.ar      2 RES2    0.0000
     57 H24       10.8014    9.3677    1.1618 H         2 RES2    0.0000
     58 C27        9.0428    9.9488    1.9489 C.ar      2 RES2    0.0000
     59 H25        9.3530   10.7444    2.3170 H         2 RES2    0.0000
     60 C28        7.7038    9.5858    2.0945 C.ar      2 RES2    0.0000
     61 H26        7.1244   10.1385    2.5674 H         2 RES2    0.0000
     62 C29        6.5538    6.7810    3.9321 C.ar      2 RES2    0.0000
     63 C30        7.4630    5.7287    3.7668 C.ar      2 RES2    0.0000
     64 N2         7.4012    4.8561    2.6001 N.pl3     2 RES2    0.0000
     65 O7         6.4242    4.9322    1.8540 O.2       2 RES2    0.0000
     66 O8         8.3323    4.0935    2.3792 O.2       2 RES2    0.0000
     67 C31        8.4653    5.4574    4.6750 C.ar      2 RES2    0.0000
     68 H27        9.0347    4.7342    4.5424 H         2 RES2    0.0000
     69 C32        8.6147    6.2650    5.7795 C.ar      2 RES2    0.0000
     70 H28        9.2896    6.0917    6.3964 H         2 RES2    0.0000
     71 C33        7.7529    7.3410    5.9709 C.ar      2 RES2    0.0000
     72 H29        7.8624    7.9002    6.7056 H         2 RES2    0.0000
     73 C34        6.7271    7.5803    5.0644 C.ar      2 RES2    0.0000
     74 H30        6.1436    8.2888    5.2133 H         2 RES2    0.0000
@<TRIPOS>BOND
     1    1    2 1
     2    2    3 2
     3    4    2 1
     4    5    1 1
     5    6    5 1
     6    7    4 1
     7    8    7 1
     8    9    7 1
     9   10    7 1
    10   11   10 1
    11   12   10 1
    12   13   10 1
    13   14    4 1
    14   15   14 ar
    15   16   15 1
    16   17   15 ar
    17   18   17 1
    18   19   17 ar
    19   20   19 1
    20   21   19 ar
    21   22   21 1
    22   23   14 ar
    23   24   23 1
    24   25    5 1
    25   26   25 ar
    26   27   26 1
    27   28   27 2
    28   29   27 2
    29   30   26 ar
    30   31   30 1
    31   32   30 ar
    32   33   32 1
    33   34   32 ar
    34   35   34 1
    35   36   25 ar
    36   37   36 1
    37   38   39 1
    38   39   40 2
    39   41   39 1
    40   42   38 1
    41   43   42 1
    42   44   41 1
    43   45   44 1
    44   46   44 1
    45   47   44 1
    46   48   47 1
    47   49   47 1
    48   50   47 1
    49   51   41 1
    50   52   51 ar
    51   53   52 1
    52   54   52 ar
    53   55   54 1
    54   56   54 ar
    55   57   56 1
    56   58   56 ar
    57   59   58 1
    58   60   51 ar
    59   61   60 1
    60   62   42 1
    61   63   62 ar
    62   64   63 1
    63   65   64 2
    64   66   64 2
    65   67   63 ar
    66   68   67 1
    67   69   67 ar
    68   70   69 1
    69   71   69 ar
    70   72   71 1
    71   73   62 ar
    72   74   73 1
    73    4    5 1
    74   21   23 ar
    75   34   36 ar
    76   41   42 1
    77   58   60 ar
    78   71   73 ar
@<TRIPOS>SUBSTRUCTURE
     1 RES1 1
     2 RES2 38

@<TRIPOS>CRYSIN
   9.6790    9.1660   16.5430  90.0000  98.4550  90.0000   4 1

