# MOL2 file generated by ConQuest
# Please check atom types

@<TRIPOS>MOLECULE
HIGSIZ
    28    26     2
SMALL
NO_CHARGES
****
Generated from CSD

@<TRIPOS>ATOM
      1 N1        -1.8337    2.9623    5.8336 N.3       1 RES1    0.0000
      2 N2        -1.8337    4.3207    5.8336 N.pl3     1 RES1    0.0000
      3 O1        -1.0164    4.8763    6.5616 O.2       1 RES1    0.0000
      4 C1        -0.7731    2.2870    6.5569 C.3       1 RES1    0.0000
      5 C2        -0.9208    2.4075    8.0212 C.1       1 RES1    0.0000
      6 N3        -1.0022    2.5194    9.1506 N.1       1 RES1    0.0000
      7 N4         4.0363    2.4906   10.1773 N.3       2 RES2    0.0000
      8 N5         4.0297    3.5863   11.0033 N.pl3     2 RES2    0.0000
      9 O2         5.1139    3.9951   11.3813 O.2       2 RES2    0.0000
     10 O3         2.9367    4.0370   11.3055 O.2       2 RES2    0.0000
     11 C3         2.7850    2.1339    9.5356 C.3       2 RES2    0.0000
     12 C4         2.4153    3.0758    8.4622 C.1       2 RES2    0.0000
     13 N6         2.1539    3.8264    7.6443 N.1       2 RES2    0.0000
     14 C5         5.3183    2.0842    9.6324 C.3       2 RES2    0.0000
     15 N7         6.1690    3.7689    7.8193 N.1       2 RES2    0.0000
     16 C6         5.8076    3.0214    8.5975 C.1       2 RES2    0.0000
     17 H1         0.0818    2.6895    6.3411 H         1 RES1    0.0000
     18 H2        -0.8150    1.3817    6.3026 H         1 RES1    0.0000
     19 H3         2.1177    2.1526   10.2076 H         2 RES2    0.0000
     20 H4         2.8622    1.2333    9.1366 H         2 RES2    0.0000
     21 H5         5.9290    2.0352   10.3954 H         2 RES2    0.0000
     22 H6         5.2026    1.2146    9.1856 H         2 RES2    0.0000
     23 O1A       -2.6511    4.8763    5.1056 O.2       1 RES1    0.0000
     24 C1A       -2.8944    2.2870    5.1102 C.3       1 RES1    0.0000
     25 C2A       -2.7467    2.4075    3.6460 C.1       1 RES1    0.0000
     26 N3A       -2.6652    2.5194    2.5166 N.1       1 RES1    0.0000
     27 H1A       -3.7492    2.6895    5.3261 H         1 RES1    0.0000
     28 H2A       -2.8524    1.3817    5.3646 H         1 RES1    0.0000
@<TRIPOS>BOND
     1    1    2 1
     2    2    3 2
     3    4    1 1
     4    5    4 1
     5    6    5 3
     6    7    8 1
     7    8    9 2
     8   10    8 2
     9   11    7 1
    10   12   11 1
    11   13   12 3
    12   14    7 1
    13   15   16 3
    14   16   14 1
    15   17    4 1
    16   18    4 1
    17   19   11 1
    18   20   11 1
    19   21   14 1
    20   22   14 1
    21   23    2 2
    22   24    1 1
    23   25   24 1
    24   26   25 3
    25   27   24 1
    26   28   24 1
@<TRIPOS>SUBSTRUCTURE
     1 RES1 1
     2 RES2 7

@<TRIPOS>CRYSIN
  10.2470    7.7710   12.2300  90.0000 107.4500  90.0000   5 1

