# MOL2 file generated by ConQuest
# Please check atom types

@<TRIPOS>MOLECULE
HIGYII
    47    51     1
SMALL
NO_CHARGES
****
Generated from CSD

@<TRIPOS>ATOM
      1 O1         3.0855    7.1459    9.6563 O.2       1 RES1    0.0000
      2 O2         2.2852    7.2045    4.9636 O.3       1 RES1    0.0000
      3 O3         2.1484    8.2655    2.7410 O.3       1 RES1    0.0000
      4 N1         1.3262    6.0298    8.7755 N.am      1 RES1    0.0000
      5 N2         3.1502    8.8014    3.5294 N.2       1 RES1    0.0000
      6 C1         2.1389    3.7737   10.5057 C.ar      1 RES1    0.0000
      7 H1         2.7579    4.0697    9.8789 H         1 RES1    0.0000
      8 C2         2.3540    2.5671   11.1740 C.ar      1 RES1    0.0000
      9 H2         3.1370    2.0904   11.0168 H         1 RES1    0.0000
     10 C3         1.4536    2.0825   12.0395 C.ar      1 RES1    0.0000
     11 H3         1.5870    1.2574   12.4465 H         1 RES1    0.0000
     12 C4         0.3656    2.7995   12.3072 C.ar      1 RES1    0.0000
     13 H4        -0.2599    2.4809   12.9163 H         1 RES1    0.0000
     14 C5         2.4579    6.8261    8.6453 C.2       1 RES1    0.0000
     15 C6         0.1591    4.0192   11.6823 C.ar      1 RES1    0.0000
     16 H5        -0.5978    4.5171   11.8936 H         1 RES1    0.0000
     17 C7         1.0446    4.5087   10.7622 C.ar      1 RES1    0.0000
     18 C8         0.7819    5.8578   10.1228 C.3       1 RES1    0.0000
     19 H6        -0.1770    5.9982   10.0866 H         1 RES1    0.0000
     20 H7         1.1561    6.5457   10.6949 H         1 RES1    0.0000
     21 C9         0.6256    5.5074    7.6898 C.ar      1 RES1    0.0000
     22 C10       -0.4356    4.6217    7.8581 C.ar      1 RES1    0.0000
     23 H8        -0.6832    4.3569    8.7145 H         1 RES1    0.0000
     24 C11       -1.1181    4.1371    6.7737 C.ar      1 RES1    0.0000
     25 H9        -1.8213    3.5424    6.9019 H         1 RES1    0.0000
     26 C12       -0.7729    4.5235    5.4845 C.ar      1 RES1    0.0000
     27 H10       -1.2491    4.1986    4.7551 H         1 RES1    0.0000
     28 C13        0.2719    5.3879    5.2942 C.ar      1 RES1    0.0000
     29 H11        0.5065    5.6440    4.4317 H         1 RES1    0.0000
     30 C14        0.9949    5.8887    6.3910 C.ar      1 RES1    0.0000
     31 C15        2.0676    6.8083    6.2578 C.2       1 RES1    0.0000
     32 C16        2.8168    7.2696    7.2963 C.2       1 RES1    0.0000
     33 C17        3.9272    8.2051    7.0390 C.ar      1 RES1    0.0000
     34 C18        4.8198    8.6771    8.0044 C.ar      1 RES1    0.0000
     35 H12        4.7259    8.3977    8.8865 H         1 RES1    0.0000
     36 C19        5.8353    9.5463    7.6769 C.ar      1 RES1    0.0000
     37 H13        6.4096    9.8580    8.3390 H         1 RES1    0.0000
     38 C20        6.0042    9.9588    6.3694 C.ar      1 RES1    0.0000
     39 H14        6.6990   10.5374    6.1505 H         1 RES1    0.0000
     40 C21        5.1486    9.5184    5.3981 C.ar      1 RES1    0.0000
     41 H15        5.2663    9.7993    4.5193 H         1 RES1    0.0000
     42 C22        4.1029    8.6516    5.7084 C.ar      1 RES1    0.0000
     43 C23        3.1643    8.2218    4.6915 C.2       1 RES1    0.0000
     44 C24        2.0403    9.1173    1.5877 C.3       1 RES1    0.0000
     45 H16        1.6853    8.6157    0.8511 H         1 RES1    0.0000
     46 H17        2.9091    9.4547    1.3568 H         1 RES1    0.0000
     47 H18        1.4549    9.8522    1.7868 H         1 RES1    0.0000
@<TRIPOS>BOND
     1    1   14 2
     2    2   31 1
     3    3    5 1
     4    4   14 1
     5    5   43 2
     6    6    7 1
     7    8    6 ar
     8    9    8 1
     9   10    8 ar
    10   11   10 1
    11   12   10 ar
    12   13   12 1
    13   14   32 1
    14   15   12 ar
    15   16   15 1
    16   17    6 ar
    17   18    4 1
    18   19   18 1
    19   20   18 1
    20   21    4 1
    21   22   21 ar
    22   23   22 1
    23   24   22 ar
    24   25   24 1
    25   26   24 ar
    26   27   26 1
    27   28   26 ar
    28   29   28 1
    29   30   21 ar
    30   31   30 1
    31   32   31 2
    32   33   32 1
    33   34   33 ar
    34   35   34 1
    35   36   34 ar
    36   37   36 1
    37   38   36 ar
    38   39   38 1
    39   40   38 ar
    40   41   40 1
    41   42   33 ar
    42   43    2 1
    43   44    3 1
    44   45   44 1
    45   46   44 1
    46   47   44 1
    47   15   17 ar
    48   17   18 1
    49   28   30 ar
    50   40   42 ar
    51   42   43 1
@<TRIPOS>SUBSTRUCTURE
     1 RES1 1

@<TRIPOS>CRYSIN
   5.5229   16.3716   20.8214  90.0000  94.6080  90.0000 231 1

