# MOL2 file generated by ConQuest
# Please check atom types

@<TRIPOS>MOLECULE
HIHCIL
    80    82     2
SMALL
USER_CHARGES
****
Generated from CSD

@<TRIPOS>ATOM
      1 N1         4.8509    3.3595    2.5808 N.pl3     1 RES1    1.0000
      2 O1         5.9871    2.7716    2.7830 O.2       1 RES1   -1.0000
      3 C1         3.5839    2.6020    2.6746 C.3       1 RES1    0.0000
      4 C2         3.6668    1.4197    1.7254 C.3       1 RES1    0.0000
      5 H1         4.4377    0.7958    1.8835 H         1 RES1    0.0000
      6 H2         3.8816    2.0038    0.8351 H         1 RES1    0.0000
      7 H3         2.7804    0.9237    1.7414 H         1 RES1    0.0000
      8 C3         7.7425    7.6455    1.4286 C.3       1 RES1    0.0000
      9 H4         7.2617    8.2140    2.2034 H         1 RES1    0.0000
     10 H5         7.2181    7.6313    0.7641 H         1 RES1    0.0000
     11 C4         3.4891    2.0720    4.1135 C.3       1 RES1    0.0000
     12 H6         4.3068    1.3216    4.2823 H         1 RES1    0.0000
     13 H7         2.6604    1.5490    4.1757 H         1 RES1    0.0000
     14 H8         3.4346    2.8564    4.7266 H         1 RES1    0.0000
     15 C5         2.5285    3.6693    2.3260 C.3       1 RES1    0.0000
     16 C6         1.8154    3.4618    0.9791 C.3       1 RES1    0.0000
     17 H9         2.3769    3.3396    0.3376 H         1 RES1    0.0000
     18 H10        1.2539    4.2775    0.7285 H         1 RES1    0.0000
     19 H11        1.0794    2.7427    1.2261 H         1 RES1    0.0000
     20 C7         1.4818    3.9421    3.3797 C.3       1 RES1    0.0000
     21 H12        1.0903    4.7891    3.0740 H         1 RES1    0.0000
     22 H13        1.8754    4.0928    4.2290 H         1 RES1    0.0000
     23 H14        1.0794    3.1691    3.5360 H         1 RES1    0.0000
     24 N2         3.3844    4.8947    2.1682 N.pl3     1 RES1    0.0000
     25 O2         2.8698    6.0448    1.9203 O.2       1 RES1    0.0000
     26 C8         4.7026    4.6442    2.2840 C.2       1 RES1    0.0000
     27 C9         5.6850    5.6617    2.0873 C.2       1 RES1    0.0000
     28 H15        5.3209    6.6507    1.7787 H         1 RES1    0.0000
     29 C10        6.9869    5.4727    2.2869 C.2       1 RES1    0.0000
     30 H16        7.2944    4.6612    2.7453 H         1 RES1    0.0000
     31 N3         7.9660    6.3679    2.0411 N.pl3     1 RES1    0.0000
     32 C11        9.1469    8.1742    1.1994 C.3       1 RES1    0.0000
     33 H17        9.4205    7.8587    0.1955 H         1 RES1    0.0000
     34 H18        9.0498    9.0808    1.1728 H         1 RES1    0.0000
     35 C12        9.9908    7.4409    2.1465 C.3       1 RES1    0.0000
     36 H19       10.4127    8.1713    2.9319 H         1 RES1    0.0000
     37 H20       11.0342    7.2618    1.7947 H         1 RES1    0.0000
     38 C13        9.3518    6.1349    2.3597 C.3       1 RES1    0.0000
     39 H21        9.6495    5.5565    1.6525 H         1 RES1    0.0000
     40 H22        9.4860    5.5565    3.2340 H         1 RES1    0.0000
     41 C14       -2.8807   13.7989    2.3762 C.3       2 RES2    0.0000
     42 O3        -2.4947   11.4653    1.9459 O.2       2 RES2   -1.0000
     43 N4        -2.0030   12.6283    2.2172 N.pl3     2 RES2    1.0000
     44 C15       -3.8413   13.5260    3.5307 C.3       2 RES2    0.0000
     45 H23       -4.4268   12.7046    3.2695 H         2 RES2    0.0000
     46 H24       -4.5467   14.4100    3.5360 H         2 RES2    0.0000
     47 H25       -3.4128   13.5147    4.4067 H         2 RES2    0.0000
     48 C16       -3.6635   14.0106    1.1123 C.3       2 RES2    0.0000
     49 H26       -3.0857   14.1115    0.3909 H         2 RES2    0.0000
     50 H27       -4.1760   14.9216    1.1745 H         2 RES2    0.0000
     51 H28       -4.2087   13.2020    0.9471 H         2 RES2    0.0000
     52 C17       -1.8285   14.9230    2.7101 C.3       2 RES2    0.0000
     53 C18       -1.7620   16.0300    1.6738 C.3       2 RES2    0.0000
     54 H29       -1.4938   15.6463    0.8174 H         2 RES2    0.0000
     55 H30       -1.0685   16.7121    2.0079 H         2 RES2    0.0000
     56 H31       -2.6277   16.4848    1.5459 H         2 RES2    0.0000
     57 C19       -1.9790   15.5596    4.0638 C.3       2 RES2    0.0000
     58 H32       -2.0389   14.9073    4.9576 H         2 RES2    0.0000
     59 H33       -2.7149   16.0726    4.0691 H         2 RES2    0.0000
     60 H34       -1.2975   16.0726    4.2166 H         2 RES2    0.0000
     61 N5        -0.5615   14.1729    2.6755 N.pl3     2 RES2    0.0000
     62 O4         0.5615   14.7655    2.9088 O.2       2 RES2    0.0000
     63 C20       -0.6924   12.8723    2.3759 C.2       2 RES2    0.0000
     64 C21        0.3173   11.8875    2.1820 C.2       2 RES2    0.0000
     65 H35        0.0327   11.0988    1.8711 H         2 RES2    0.0000
     66 C22        1.6213   12.0992    2.4646 C.2       2 RES2    0.0000
     67 H36        1.8972   13.0315    2.8910 H         2 RES2    0.0000
     68 N6         2.6157   11.2267    2.2641 N.3       2 RES2    0.0000
     69 C23        4.0179   11.5237    2.5836 C.3       2 RES2    0.0000
     70 H37        4.3396   12.4346    2.1856 H         2 RES2    0.0000
     71 H38        4.0452   11.5109    3.4650 H         2 RES2    0.0000
     72 C24        4.7288   10.4735    1.8960 C.3       2 RES2    0.0000
     73 H39        5.3100   10.2319    2.6654 H         2 RES2    0.0000
     74 H40        5.3427   10.4593    1.8657 H         2 RES2    0.0000
     75 C25        3.8936    9.4404    1.4784 C.3       2 RES2    0.0000
     76 H41        4.0125    8.8535    2.2744 H         2 RES2    0.0000
     77 H42        4.0888    8.7540    1.0306 H         2 RES2    0.0000
     78 C26        2.4783    9.9775    1.5512 C.3       2 RES2    0.0000
     79 H43        1.9735   10.1751    0.6432 H         2 RES2    0.0000
     80 H44        1.8972    9.3793    1.9795 H         2 RES2    0.0000
@<TRIPOS>BOND
     1    1    2 1
     2    3    1 1
     3    4    3 1
     4    5    4 1
     5    6    4 1
     6    7    4 1
     7    8    9 1
     8   10    8 1
     9   11    3 1
    10   12   11 1
    11   13   11 1
    12   14   11 1
    13   15    3 1
    14   16   15 1
    15   17   16 1
    16   18   16 1
    17   19   16 1
    18   20   15 1
    19   21   20 1
    20   22   20 1
    21   23   20 1
    22   24   15 1
    23   25   24 1
    24   26    1 2
    25   27   26 1
    26   28   27 1
    27   29   27 2
    28   30   29 1
    29   31    8 1
    30   32    8 1
    31   33   32 1
    32   34   32 1
    33   35   32 1
    34   36   35 1
    35   37   35 1
    36   38   31 1
    37   39   38 1
    38   40   38 1
    39   41   43 1
    40   42   43 1
    41   43   63 2
    42   44   41 1
    43   45   44 1
    44   46   44 1
    45   47   44 1
    46   48   41 1
    47   49   48 1
    48   50   48 1
    49   51   48 1
    50   52   41 1
    51   53   52 1
    52   54   53 1
    53   55   53 1
    54   56   53 1
    55   57   52 1
    56   58   57 1
    57   59   57 1
    58   60   57 1
    59   61   52 1
    60   62   61 1
    61   63   61 1
    62   64   63 1
    63   65   64 1
    64   66   64 2
    65   67   66 1
    66   68   66 1
    67   69   68 1
    68   70   69 1
    69   71   69 1
    70   72   69 1
    71   73   72 1
    72   74   72 1
    73   75   72 1
    74   76   75 1
    75   77   75 1
    76   78   68 1
    77   79   78 1
    78   80   78 1
    79   24   26 1
    80   29   31 1
    81   35   38 1
    82   75   78 1
@<TRIPOS>SUBSTRUCTURE
     1 RES1 1
     2 RES2 41

@<TRIPOS>CRYSIN
  10.9034   14.2110   17.7690  90.0000  90.0000  90.0000  19 1

