# MOL2 file generated by ConQuest
# Please check atom types

@<TRIPOS>MOLECULE
HIHDEI
    58    60     1
SMALL
NO_CHARGES
****
Generated from CSD

@<TRIPOS>ATOM
      1 C1         1.0255   11.9078   29.3442 C.3       1 RES1    0.0000
      2 H1         1.0544   12.7937   28.9022 H         1 RES1    0.0000
      3 H2         0.2075   11.8689   29.9026 H         1 RES1    0.0000
      4 C2         0.9711   10.8188   28.2883 C.3       1 RES1    0.0000
      5 H3         0.1230   10.8944   27.7810 H         1 RES1    0.0000
      6 H4         1.7188   10.9421   27.6526 H         1 RES1    0.0000
      7 C3         1.0635    9.4404   28.9112 C.3       1 RES1    0.0000
      8 H5         1.0879    8.7557   28.1962 H         1 RES1    0.0000
      9 H6         0.2619    9.2745   29.4684 H         1 RES1    0.0000
     10 C4         2.3164    9.3224   29.7738 C.3       1 RES1    0.0000
     11 H7         3.1117    9.4050   29.1740 H         1 RES1    0.0000
     12 C5         2.3872   10.4452   30.8052 C.3       1 RES1    0.0000
     13 H8         3.2750   10.4126   31.2654 H         1 RES1    0.0000
     14 C6         2.4212    7.9890   30.5126 C.3       1 RES1    0.0000
     15 H9         2.2852    7.2487   29.8686 H         1 RES1    0.0000
     16 H10        3.3311    7.8980   30.8916 H         1 RES1    0.0000
     17 C7         1.3940    7.8711   31.6365 C.3       1 RES1    0.0000
     18 H11        0.4864    7.7929   31.2503 H         1 RES1    0.0000
     19 H12        1.5743    7.0550   32.1676 H         1 RES1    0.0000
     20 C8         1.4609    9.0935   32.5421 C.3       1 RES1    0.0000
     21 H13        2.3220    9.0935   33.0510 H         1 RES1    0.0000
     22 C9         0.2971    9.1897   33.5025 C.3       1 RES1    0.0000
     23 H14        0.3849    9.9969   34.0703 H         1 RES1    0.0000
     24 H15       -0.5561    9.2463   33.0057 H         1 RES1    0.0000
     25 C10       -0.7200    7.8466   35.1454 C.2       1 RES1    0.0000
     26 C11       -0.5726    6.6441   36.0220 C.ar      1 RES1    0.0000
     27 C12        0.5590    5.8360   35.9843 C.ar      1 RES1    0.0000
     28 H16        1.2449    6.0094   35.3500 H         1 RES1    0.0000
     29 C13        0.6876    4.7746   36.8737 C.ar      1 RES1    0.0000
     30 H17        1.4535    4.2133   36.8563 H         1 RES1    0.0000
     31 C14       -0.3294    4.5590   37.7854 C.ar      1 RES1    0.0000
     32 C15       -1.4762    5.3286   37.8310 C.ar      1 RES1    0.0000
     33 H18       -2.1650    5.1411   38.4569 H         1 RES1    0.0000
     34 C16       -1.5947    6.3814   36.9386 C.ar      1 RES1    0.0000
     35 H19       -2.3730    6.9265   36.9507 H         1 RES1    0.0000
     36 C17        2.6446   12.8747   30.8645 C.2       1 RES1    0.0000
     37 C18        4.0556   13.5574   32.7550 C.3       1 RES1    0.0000
     38 C19        5.0091   12.7244   33.5961 C.3       1 RES1    0.0000
     39 H20        4.5171   11.9857   34.0137 H         1 RES1    0.0000
     40 H21        5.4060   13.2873   34.2930 H         1 RES1    0.0000
     41 H22        5.7183   12.3635   33.0246 H         1 RES1    0.0000
     42 C20        2.8878   14.0476   33.5965 C.3       1 RES1    0.0000
     43 H23        2.2704   14.5587   33.0321 H         1 RES1    0.0000
     44 H24        3.2228   14.6210   34.3157 H         1 RES1    0.0000
     45 H25        2.4178   13.2795   33.9835 H         1 RES1    0.0000
     46 C21        4.7869   14.6925   32.0529 C.3       1 RES1    0.0000
     47 H26        5.4887   14.3221   31.4768 H         1 RES1    0.0000
     48 H27        5.1905   15.2840   32.7226 H         1 RES1    0.0000
     49 H28        4.1520   15.2022   31.5070 H         1 RES1    0.0000
     50 N1         2.2126   11.7465   30.2031 N.am      1 RES1    0.0000
     51 N2        -0.1888    3.4590   38.7601 N.pl3     1 RES1    0.0000
     52 O1         1.3433   10.3012   31.7845 O.3       1 RES1    0.0000
     53 O2         0.3218    7.9923   34.3251 O.3       1 RES1    0.0000
     54 O3        -1.6485    8.6101   35.2058 O.2       1 RES1    0.0000
     55 O4         0.7891    2.7373   38.6687 O.2       1 RES1    0.0000
     56 O5        -1.0607    3.3228   39.6034 O.2       1 RES1    0.0000
     57 O6         2.2598   13.9966   30.6032 O.2       1 RES1    0.0000
     58 O7         3.5748   12.5633   31.7814 O.3       1 RES1    0.0000
@<TRIPOS>BOND
     1    1    2 1
     2    3    1 1
     3    4    1 1
     4    5    4 1
     5    6    4 1
     6    7    4 1
     7    8    7 1
     8    9    7 1
     9   10    7 1
    10   11   10 1
    11   12   10 1
    12   13   12 1
    13   14   10 1
    14   15   14 1
    15   16   14 1
    16   17   14 1
    17   18   17 1
    18   19   17 1
    19   20   17 1
    20   21   20 1
    21   22   20 1
    22   23   22 1
    23   24   22 1
    24   25   26 1
    25   26   27 ar
    26   27   28 1
    27   29   27 ar
    28   30   29 1
    29   31   29 ar
    30   32   31 ar
    31   33   32 1
    32   34   26 ar
    33   35   34 1
    34   36   50 1
    35   37   38 1
    36   38   39 1
    37   40   38 1
    38   41   38 1
    39   42   37 1
    40   43   42 1
    41   44   42 1
    42   45   42 1
    43   46   37 1
    44   47   46 1
    45   48   46 1
    46   49   46 1
    47   50    1 1
    48   51   31 1
    49   52   12 1
    50   53   22 1
    51   54   25 2
    52   55   51 2
    53   56   51 2
    54   57   36 2
    55   58   36 1
    56   12   50 1
    57   20   52 1
    58   25   53 1
    59   32   34 ar
    60   37   58 1
@<TRIPOS>SUBSTRUCTURE
     1 RES1 1

@<TRIPOS>CRYSIN
   5.6690    9.7350   37.7510  90.0000  90.0000  90.0000  19 1

