# MOL2 file generated by ConQuest
# Please check atom types

@<TRIPOS>MOLECULE
HIHHAH
    19    19     1
SMALL
NO_CHARGES
****
Generated from CSD

@<TRIPOS>ATOM
      1 N1         0.2910    3.2126    3.4270 N.pl3     1 RES1    0.0000
      2 O1        -0.2123    3.5814    2.3810 O.2       1 RES1    0.0000
      3 O2         0.5203    2.0508    3.6755 O.2       1 RES1    0.0000
      4 O3        -0.1833    8.2061    3.7928 O.2       1 RES1    0.0000
      5 C1         0.7248    6.4994    5.0947 C.ar      1 RES1    0.0000
      6 C2         0.4206    5.5422    4.1564 C.ar      1 RES1    0.0000
      7 H1         0.0650    5.7914    3.3343 H         1 RES1    0.0000
      8 C3         0.6419    4.2192    4.4347 C.ar      1 RES1    0.0000
      9 C4         1.1809    3.8019    5.6503 C.ar      1 RES1    0.0000
     10 H2         1.3284    2.9011    5.8230 H         1 RES1    0.0000
     11 C5         1.4863    4.7522    6.5769 C.ar      1 RES1    0.0000
     12 H3         1.8471    4.4961    7.3947 H         1 RES1    0.0000
     13 C6         1.2660    6.0960    6.3146 C.ar      1 RES1    0.0000
     14 H4         1.4795    6.7327    6.9586 H         1 RES1    0.0000
     15 C7         0.4402    7.9351    4.7930 C.2       1 RES1    0.0000
     16 C8         0.9473    8.9823    5.6940 C.3       1 RES1    0.0000
     17 H5         0.6822    9.8435    5.3645 H         1 RES1    0.0000
     18 H6         1.9057    8.9358    5.7313 H         1 RES1    0.0000
     19 H7         0.5858    8.8507    6.5737 H         1 RES1    0.0000
@<TRIPOS>BOND
     1    1    2 2
     2    3    1 2
     3    4   15 2
     4    5    6 ar
     5    6    7 1
     6    8    1 1
     7    9    8 ar
     8   10    9 1
     9   11    9 ar
    10   12   11 1
    11   13    5 ar
    12   14   13 1
    13   15    5 1
    14   16   15 1
    15   17   16 1
    16   18   16 1
    17   19   16 1
    18    6    8 ar
    19   11   13 ar
@<TRIPOS>SUBSTRUCTURE
     1 RES1 1

@<TRIPOS>CRYSIN
   7.3920    9.8880   10.8140  90.0000  99.5900  90.0000 231 1

