# MOL2 file generated by ConQuest
# Please check atom types

@<TRIPOS>MOLECULE
HIHLUI
    62    65     1
SMALL
NO_CHARGES
****
Generated from CSD

@<TRIPOS>ATOM
      1 O1        18.5321   -3.4939    3.0406 O.2       1 RES1    0.0000
      2 O2        17.5356   -1.8249    4.1779 O.3       1 RES1    0.0000
      3 O3        13.1566   -0.1509    3.0092 O.2       1 RES1    0.0000
      4 O4        11.9758   -1.0882    1.3476 O.3       1 RES1    0.0000
      5 O5        14.1891   -2.2099    6.7263 O.3       1 RES1    0.0000
      6 N1        14.7295   -4.2536    1.2983 N.pl3     1 RES1    0.0000
      7 H1        14.5587   -5.0082    0.8775 H         1 RES1    0.0000
      8 N2        13.9693   -3.5665    6.4056 N.2       1 RES1    0.0000
      9 C1        15.9741   -4.0940    1.8661 C.2       1 RES1    0.0000
     10 C2        16.2070   -3.0439    2.6923 C.2       1 RES1    0.0000
     11 C3        15.0682   -2.1288    3.1297 C.3       1 RES1    0.0000
     12 H2        15.4093   -1.1885    3.1072 H         1 RES1    0.0000
     13 C4        13.8998   -2.2192    2.1529 C.2       1 RES1    0.0000
     14 C5        13.7348   -3.2993    1.3510 C.2       1 RES1    0.0000
     15 C6        12.5598   -3.6278    0.4656 C.3       1 RES1    0.0000
     16 H3        12.6133   -3.0994   -0.3580 H         1 RES1    0.0000
     17 H4        11.7267   -3.4162    0.9365 H         1 RES1    0.0000
     18 H5        12.5748   -4.5825    0.2429 H         1 RES1    0.0000
     19 C7        16.9511   -5.1747    1.4931 C.3       1 RES1    0.0000
     20 H6        16.4808   -5.8900    1.0151 H         1 RES1    0.0000
     21 H7        17.3603   -5.5389    2.3055 H         1 RES1    0.0000
     22 H8        17.6487   -4.7984    0.9169 H         1 RES1    0.0000
     23 C8        17.5288   -2.8486    3.2782 C.2       1 RES1    0.0000
     24 C9        18.7551   -1.6764    4.9523 C.3       1 RES1    0.0000
     25 H9        18.8148   -0.7506    5.2989 H         1 RES1    0.0000
     26 H10       19.5380   -1.8362    4.3680 H         1 RES1    0.0000
     27 C10       18.7847   -2.6462    6.1047 C.3       1 RES1    0.0000
     28 H11       19.5522   -2.4456    6.6805 H         1 RES1    0.0000
     29 H12       18.8631   -3.5594    5.7609 H         1 RES1    0.0000
     30 H13       17.9575   -2.5626    6.6230 H         1 RES1    0.0000
     31 C11       12.9948   -1.0690    2.2308 C.2       1 RES1    0.0000
     32 C12       11.0584    0.0297    1.4526 C.3       1 RES1    0.0000
     33 H14       11.5116    0.8717    1.1935 H         1 RES1    0.0000
     34 H15       10.7337    0.1211    2.3827 H         1 RES1    0.0000
     35 C13        9.9056   -0.2504    0.5213 C.3       1 RES1    0.0000
     36 H16        9.4538   -1.0735    0.8003 H         1 RES1    0.0000
     37 H17       10.2427   -0.3551   -0.3931 H         1 RES1    0.0000
     38 H18        9.2716    0.4964    0.5518 H         1 RES1    0.0000
     39 C14       14.8150   -0.1092    5.7307 C.3       1 RES1    0.0000
     40 H19       14.1339    0.3834    5.2287 H         1 RES1    0.0000
     41 H20       15.7033    0.1090    5.3762 H         1 RES1    0.0000
     42 H21       14.7702    0.1433    6.6763 H         1 RES1    0.0000
     43 C15       14.5717   -1.5682    5.5941 C.2       1 RES1    0.0000
     44 C16       14.6315   -2.4226    4.5480 C.2       1 RES1    0.0000
     45 C17       14.2241   -3.6708    5.1157 C.2       1 RES1    0.0000
     46 C18       14.0237   -4.9864    4.4558 C.ar      1 RES1    0.0000
     47 C19       12.8197   -5.2594    3.8556 C.ar      1 RES1    0.0000
     48 H22       12.1270   -4.6087    3.8822 H         1 RES1    0.0000
     49 C20       12.5937   -6.4822    3.2035 C.ar      1 RES1    0.0000
     50 H23       11.7499   -6.6548    2.8025 H         1 RES1    0.0000
     51 C21       13.5840   -7.4256    3.1427 C.ar      1 RES1    0.0000
     52 H24       13.4260   -8.2468    2.6930 H         1 RES1    0.0000
     53 C22       14.8487   -7.1828    3.7503 C.ar      1 RES1    0.0000
     54 C23       15.0693   -5.9520    4.4249 C.ar      1 RES1    0.0000
     55 C24       16.3393   -5.7207    5.0341 C.ar      1 RES1    0.0000
     56 H25       16.5042   -4.9033    5.4885 H         1 RES1    0.0000
     57 C25       17.3212   -6.6735    4.9669 C.ar      1 RES1    0.0000
     58 H26       18.1603   -6.5095    5.3818 H         1 RES1    0.0000
     59 C26       17.1075   -7.8907    4.2943 C.ar      1 RES1    0.0000
     60 H27       17.8021   -8.5374    4.2459 H         1 RES1    0.0000
     61 C27       15.8948   -8.1389    3.7101 C.ar      1 RES1    0.0000
     62 H28       15.7515   -8.9672    3.2687 H         1 RES1    0.0000
@<TRIPOS>BOND
     1    1   23 2
     2    2   23 1
     3    3   31 2
     4    4   31 1
     5    5    8 1
     6    6    7 1
     7    8   45 2
     8    9    6 1
     9   10    9 2
    10   11   10 1
    11   12   11 1
    12   13   11 1
    13   14    6 1
    14   15   14 1
    15   16   15 1
    16   17   15 1
    17   18   15 1
    18   19    9 1
    19   20   19 1
    20   21   19 1
    21   22   19 1
    22   23   10 1
    23   24    2 1
    24   25   24 1
    25   26   24 1
    26   27   24 1
    27   28   27 1
    28   29   27 1
    29   30   27 1
    30   31   13 1
    31   32    4 1
    32   33   32 1
    33   34   32 1
    34   35   32 1
    35   36   35 1
    36   37   35 1
    37   38   35 1
    38   39   40 1
    39   41   39 1
    40   42   39 1
    41   43    5 1
    42   44   11 1
    43   45   44 1
    44   46   45 1
    45   47   46 ar
    46   48   47 1
    47   49   47 ar
    48   50   49 1
    49   51   49 ar
    50   52   51 1
    51   53   51 ar
    52   54   46 ar
    53   55   54 ar
    54   56   55 1
    55   57   55 ar
    56   58   57 1
    57   59   57 ar
    58   60   59 1
    59   61   53 ar
    60   62   61 1
    61   13   14 2
    62   39   43 1
    63   43   44 2
    64   53   54 ar
    65   59   61 ar
@<TRIPOS>SUBSTRUCTURE
     1 RES1 1

@<TRIPOS>CRYSIN
   8.2709   20.1782   14.0531  90.0000  92.4120  90.0000  14 1

