# MOL2 file generated by ConQuest
# Please check atom types

@<TRIPOS>MOLECULE
HIHLOC
    66    69     1
SMALL
NO_CHARGES
****
Generated from CSD

@<TRIPOS>ATOM
      1 C1         4.6939    2.3047    3.2070 C.ar      1 RES1    0.0000
      2 C2         6.0091    2.0793    3.6166 C.ar      1 RES1    0.0000
      3 H1         6.1976    1.4767    4.3249 H         1 RES1    0.0000
      4 C3         7.0375    2.7555    2.9670 C.ar      1 RES1    0.0000
      5 H2         7.9383    2.5485    3.1906 H         1 RES1    0.0000
      6 C4         6.7865    3.7400    1.9813 C.ar      1 RES1    0.0000
      7 H3         7.5013    4.2322    1.5929 H         1 RES1    0.0000
      8 C5         5.5019    3.9639    1.6027 C.ar      1 RES1    0.0000
      9 H4         5.3373    4.6278    0.9450 H         1 RES1    0.0000
     10 C6         4.4088    3.2708    2.1314 C.ar      1 RES1    0.0000
     11 C7         3.0985    3.3750    1.6957 C.ar      1 RES1    0.0000
     12 H5         2.9160    4.0053    1.0102 H         1 RES1    0.0000
     13 C8         2.0789    2.6651    2.1576 C.ar      1 RES1    0.0000
     14 H6         1.2073    2.7540    1.7903 H         1 RES1    0.0000
     15 C9         2.3445    1.7604    3.2331 C.ar      1 RES1    0.0000
     16 C10        3.6104    1.6055    3.7765 C.ar      1 RES1    0.0000
     17 O1         1.3378    1.0182    3.7863 O.3       1 RES1    0.0000
     18 C11        0.0866    0.9952    3.1221 C.3       1 RES1    0.0000
     19 H7         0.2301    0.9323    2.1559 H         1 RES1    0.0000
     20 H8        -0.4078    1.8156    3.3277 H         1 RES1    0.0000
     21 H9        -0.4292    0.2177    3.4257 H         1 RES1    0.0000
     22 C12        3.7555    0.7284    4.9826 C.2       1 RES1    0.0000
     23 N1         3.9118   -0.5597    4.8390 N.2       1 RES1    0.0000
     24 O2         3.8875   -1.0949    6.1503 O.3       1 RES1    0.0000
     25 C13        3.4090    2.4795    6.9460 C.3       1 RES1    0.0000
     26 H10        3.3257    2.3645    7.9366 H         1 RES1    0.0000
     27 C14        4.6019    3.4072    6.7060 C.2       1 RES1    0.0000
     28 C15        4.5183    4.4116    5.7921 C.2       1 RES1    0.0000
     29 N2         3.3059    4.7030    5.2176 N.pl3     1 RES1    0.0000
     30 H11        3.3665    5.2443    4.7329 H         1 RES1    0.0000
     31 C16        2.1161    4.1479    5.6044 C.2       1 RES1    0.0000
     32 C17        2.1190    3.0990    6.4678 C.2       1 RES1    0.0000
     33 C18        5.8339    3.2094    7.4649 C.2       1 RES1    0.0000
     34 O3         6.8496    3.8826    7.4013 O.2       1 RES1    0.0000
     35 O4         5.7141    2.1759    8.3462 O.3       1 RES1    0.0000
     36 C19        6.8343    2.0318    9.2651 C.3       1 RES1    0.0000
     37 H12        6.8785    2.8092    9.8738 H         1 RES1    0.0000
     38 H13        7.6849    1.9812    8.7592 H         1 RES1    0.0000
     39 C20        6.6281    0.7790   10.0468 C.3       1 RES1    0.0000
     40 H14        5.8233    0.8648   10.5968 H         1 RES1    0.0000
     41 H15        7.4049    0.6226   10.6246 H         1 RES1    0.0000
     42 H16        6.5235    0.0230    9.4316 H         1 RES1    0.0000
     43 C21        5.6387    5.2780    5.3041 C.3       1 RES1    0.0000
     44 H17        6.1626    5.5969    6.0679 H         1 RES1    0.0000
     45 H18        5.2693    6.0462    4.8178 H         1 RES1    0.0000
     46 H19        6.2155    4.7597    4.7052 H         1 RES1    0.0000
     47 C22        0.9090    4.7873    5.0087 C.3       1 RES1    0.0000
     48 H20        0.5071    4.1785    4.3526 H         1 RES1    0.0000
     49 H21        1.1646    5.6215    4.5664 H         1 RES1    0.0000
     50 H22        0.2580    4.9790    5.7170 H         1 RES1    0.0000
     51 C23        3.6317    1.1148    6.3698 C.2       1 RES1    0.0000
     52 C24        3.7039   -0.0659    7.0227 C.2       1 RES1    0.0000
     53 C25        3.5830   -0.4462    8.4474 C.3       1 RES1    0.0000
     54 H23        3.5638    0.3619    9.0007 H         1 RES1    0.0000
     55 H24        4.3514   -0.9982    8.7037 H         1 RES1    0.0000
     56 H25        2.7574   -0.9553    8.5796 H         1 RES1    0.0000
     57 C26        0.8501    2.4734    6.8627 C.2       1 RES1    0.0000
     58 O5        -0.2564    2.7019    6.4343 O.2       1 RES1    0.0000
     59 O6         1.0682    1.5104    7.8029 O.3       1 RES1    0.0000
     60 C27       -0.0792    0.7084    8.1553 C.3       1 RES1    0.0000
     61 H26       -0.8936    1.2743    8.1504 H         1 RES1    0.0000
     62 H27        0.0370    0.3481    9.0709 H         1 RES1    0.0000
     63 C28       -0.2477   -0.4248    7.1859 C.3       1 RES1    0.0000
     64 H28       -0.5025   -0.0705    6.3095 H         1 RES1    0.0000
     65 H29       -0.9483   -1.0305    7.5090 H         1 RES1    0.0000
     66 H30        0.5949   -0.9170    7.1075 H         1 RES1    0.0000
@<TRIPOS>BOND
     1    1    2 ar
     2    2    3 1
     3    4    2 ar
     4    5    4 1
     5    6    4 ar
     6    7    6 1
     7    8    6 ar
     8    9    8 1
     9   10    1 ar
    10   11   10 ar
    11   12   11 1
    12   13   11 ar
    13   14   13 1
    14   15   13 ar
    15   16    1 ar
    16   17   15 1
    17   18   17 1
    18   19   18 1
    19   20   18 1
    20   21   18 1
    21   22   16 1
    22   23   22 2
    23   24   23 1
    24   25   26 1
    25   27   25 1
    26   28   27 2
    27   29   28 1
    28   30   29 1
    29   31   29 1
    30   32   25 1
    31   33   27 1
    32   34   33 2
    33   35   33 1
    34   36   35 1
    35   37   36 1
    36   38   36 1
    37   39   36 1
    38   40   39 1
    39   41   39 1
    40   42   39 1
    41   43   28 1
    42   44   43 1
    43   45   43 1
    44   46   43 1
    45   47   31 1
    46   48   47 1
    47   49   47 1
    48   50   47 1
    49   51   22 1
    50   52   24 1
    51   53   52 1
    52   54   53 1
    53   55   53 1
    54   56   53 1
    55   57   32 1
    56   58   57 2
    57   59   57 1
    58   60   59 1
    59   61   60 1
    60   62   60 1
    61   63   60 1
    62   64   63 1
    63   65   63 1
    64   66   63 1
    65    8   10 ar
    66   15   16 ar
    67   25   51 1
    68   31   32 2
    69   51   52 2
@<TRIPOS>SUBSTRUCTURE
     1 RES1 1

@<TRIPOS>CRYSIN
  19.5698   15.3341   17.2324  90.0000 108.7240  90.0000  15 1

