# MOL2 file generated by ConQuest
# Please check atom types

@<TRIPOS>MOLECULE
HIHMIU
   130   136     2
SMALL
NO_CHARGES
****
Generated from CSD

@<TRIPOS>ATOM
      1 O1         4.0127   -3.0946   20.4437 O.2       1 RES1    0.0000
      2 O2         2.6368   -3.3470   18.7338 O.3       1 RES1    0.0000
      3 O3         4.1987   -3.9363   11.2176 O.3       1 RES1    0.0000
      4 O4         2.8050   -5.2555    5.2065 O.3       1 RES1    0.0000
      5 O5         1.6960   -3.3134    5.4400 O.2       1 RES1    0.0000
      6 O6         0.4033   -5.6823   -0.6814 O.2       1 RES1    0.0000
      7 O7        -0.8632   -6.1210   -6.4493 O.2       1 RES1    0.0000
      8 O8        -2.3499   -6.2406   -4.9282 O.2       1 RES1    0.0000
      9 N1         2.5559   -5.3284   -1.2668 N.2       1 RES1    0.0000
     10 N2        -1.1929   -6.1124   -5.2849 N.pl3     1 RES1    0.0000
     11 C1         1.7559   -2.7485   22.2799 C.2       1 RES1    0.0000
     12 C2         1.6650   -2.8234   20.8500 C.2       1 RES1    0.0000
     13 C3         2.8990   -3.1050   20.0246 C.2       1 RES1    0.0000
     14 C4         3.8051   -3.5640   17.8812 C.3       1 RES1    0.0000
     15 C5         3.3117   -3.7783   16.4864 C.3       1 RES1    0.0000
     16 C6         4.5258   -4.0173   15.5635 C.3       1 RES1    0.0000
     17 C7         4.1328   -4.2858   14.1079 C.3       1 RES1    0.0000
     18 C8         5.3654   -4.4905   13.2138 C.3       1 RES1    0.0000
     19 C9         5.0265   -4.9711   11.7950 C.3       1 RES1    0.0000
     20 C10        3.7676   -4.1377    9.9379 C.ar      1 RES1    0.0000
     21 C11        3.9961   -5.2644    9.1797 C.ar      1 RES1    0.0000
     22 C12        3.5215   -5.3232    7.8681 C.ar      1 RES1    0.0000
     23 C13        2.8089   -4.2416    7.3403 C.ar      1 RES1    0.0000
     24 C14        2.5702   -3.1171    8.1240 C.ar      1 RES1    0.0000
     25 C15        3.0507   -3.0651    9.4229 C.ar      1 RES1    0.0000
     26 C16        2.3448   -4.1912    5.9343 C.2       1 RES1    0.0000
     27 C17        2.4924   -5.2802    3.8405 C.ar      1 RES1    0.0000
     28 C18        3.5339   -5.1870    2.9543 C.ar      1 RES1    0.0000
     29 C19        3.2687   -5.2494    1.6011 C.ar      1 RES1    0.0000
     30 C20        1.9574   -5.3955    1.1437 C.ar      1 RES1    0.0000
     31 C21        0.9397   -5.5012    2.0602 C.ar      1 RES1    0.0000
     32 C22        1.2116   -5.4368    3.4198 C.ar      1 RES1    0.0000
     33 C23        1.7032   -5.4590   -0.2975 C.2       1 RES1    0.0000
     34 C24        1.7875   -5.4837   -2.4121 C.ar      1 RES1    0.0000
     35 C25        2.1436   -5.4635   -3.7589 C.ar      1 RES1    0.0000
     36 C26        1.1379   -5.6978   -4.6946 C.ar      1 RES1    0.0000
     37 C27       -0.1656   -5.8977   -4.2596 C.ar      1 RES1    0.0000
     38 C28       -0.5772   -5.8899   -2.9304 C.ar      1 RES1    0.0000
     39 C29        0.4584   -5.6988   -2.0618 C.ar      1 RES1    0.0000
     40 O9        -0.3983    0.0967  -17.1310 O.2       2 RES2    0.0000
     41 O10       -1.7857    0.5407  -15.4771 O.3       2 RES2    0.0000
     42 O11        1.9292    0.8419   -7.7466 O.3       2 RES2    0.0000
     43 O12        1.0926    1.7766   -1.5963 O.3       2 RES2    0.0000
     44 O13        3.1393    0.8749   -1.5436 O.2       2 RES2    0.0000
     45 O14       -1.2788    2.3149    4.2580 O.2       2 RES2    0.0000
     46 O15       -2.7016    2.5024   10.0003 O.2       2 RES2    0.0000
     47 O16       -4.1519    2.6702    8.4376 O.2       2 RES2    0.0000
     48 N3         0.8823    2.2520    4.8866 N.2       2 RES2    0.0000
     49 N4        -3.0069    2.5749    8.8422 N.pl3     2 RES2    0.0000
     50 C30       -2.6301   -0.1598  -18.9561 C.2       2 RES2    0.0000
     51 C31       -2.7034    0.0331  -17.5581 C.2       2 RES2    0.0000
     52 C32       -1.5226    0.2158  -16.7535 C.2       2 RES2    0.0000
     53 C33       -0.6357    0.7166  -14.6262 C.3       2 RES2    0.0000
     54 C34       -1.0740    0.9168  -13.2362 C.3       2 RES2    0.0000
     55 C35        0.1585    0.9089  -12.2956 C.3       2 RES2    0.0000
     56 C36       -0.1860    1.1204  -10.8337 C.3       2 RES2    0.0000
     57 C37        1.0471    0.9138   -9.9443 C.3       2 RES2    0.0000
     58 C38        0.7226    1.1189   -8.4887 C.3       2 RES2    0.0000
     59 C39        1.9011    0.9611   -6.3870 C.ar      2 RES2    0.0000
     60 C40        0.7679    1.3389   -5.6720 C.ar      2 RES2    0.0000
     61 C41        0.8618    1.4297   -4.2900 C.ar      2 RES2    0.0000
     62 C42        2.0472    1.1444   -3.6357 C.ar      2 RES2    0.0000
     63 C43        3.1680    0.7477   -4.3859 C.ar      2 RES2    0.0000
     64 C44        3.0811    0.6620   -5.7503 C.ar      2 RES2    0.0000
     65 C45        2.1914    1.2324   -2.1866 C.2       2 RES2    0.0000
     66 C46        0.9179    1.8772   -0.2095 C.ar      2 RES2    0.0000
     67 C47       -0.3915    1.8435    0.2159 C.ar      2 RES2    0.0000
     68 C48       -0.6996    1.9699    1.5436 C.ar      2 RES2    0.0000
     69 C49        0.3219    2.1170    2.4617 C.ar      2 RES2    0.0000
     70 C50        1.6337    2.1677    2.0250 C.ar      2 RES2    0.0000
     71 C51        1.9540    2.0598    0.6942 C.ar      2 RES2    0.0000
     72 C52        0.0410    2.2232    3.8885 C.2       2 RES2    0.0000
     73 C53        0.0828    2.3563    6.0255 C.ar      2 RES2    0.0000
     74 C54        0.4373    2.3799    7.3787 C.ar      2 RES2    0.0000
     75 C55       -0.6102    2.4648    8.2776 C.ar      2 RES2    0.0000
     76 C56       -1.9141    2.5203    7.8201 C.ar      2 RES2    0.0000
     77 C57       -2.3007    2.4921    6.4877 C.ar      2 RES2    0.0000
     78 C58       -1.2401    2.3888    5.6352 C.ar      2 RES2    0.0000
     79 H1         0.8708   -2.5487   22.8670 H         1 RES1    0.0000
     80 H2         2.7072   -2.8962   22.7694 H         1 RES1    0.0000
     81 H3         4.5378   -6.0971    9.5972 H         1 RES1    0.0000
     82 H4         3.7028   -6.1990    7.2635 H         1 RES1    0.0000
     83 H5         2.0108   -2.2853    7.7210 H         1 RES1    0.0000
     84 H6         2.8690   -2.1925   10.0323 H         1 RES1    0.0000
     85 H7         4.5462   -5.0664    3.3078 H         1 RES1    0.0000
     86 H8         4.0801   -5.1841    0.8909 H         1 RES1    0.0000
     87 H9        -0.0763   -5.6322    1.7195 H         1 RES1    0.0000
     88 H10        0.4092   -5.5121    4.1380 H         1 RES1    0.0000
     89 H11        3.1600   -5.2712   -4.0660 H         1 RES1    0.0000
     90 H12        1.3705   -5.7249   -5.7487 H         1 RES1    0.0000
     91 H13       -1.6017   -6.0220   -2.6184 H         1 RES1    0.0000
     92 H14       -0.1604    1.5543   -6.1774 H         2 RES2    0.0000
     93 H15       -0.0029    1.7278   -3.7157 H         2 RES2    0.0000
     94 H16        4.0949    0.5101   -3.8869 H         2 RES2    0.0000
     95 H17        3.9422    0.3588   -6.3262 H         2 RES2    0.0000
     96 H18       -1.1835    1.7155   -0.5055 H         2 RES2    0.0000
     97 H19       -1.7285    1.9541    1.8683 H         2 RES2    0.0000
     98 H20        2.4259    2.2937    2.7480 H         2 RES2    0.0000
     99 H21        2.9795    2.1165    0.3599 H         2 RES2    0.0000
    100 H22        1.4659    2.3344    7.7018 H         2 RES2    0.0000
    101 H23       -0.4095    2.4859    9.3365 H         2 RES2    0.0000
    102 H24       -3.3310    2.5773    6.1582 H         2 RES2    0.0000
    103 H25        0.7130   -2.6771   20.3605 H         1 RES1    0.0000
    104 H26        4.3608   -4.4494   18.2219 H         1 RES1    0.0000
    105 H27        4.4628   -2.6830   17.9132 H         1 RES1    0.0000
    106 H28        2.7582   -2.8906   16.1473 H         1 RES1    0.0000
    107 H29        2.6486   -4.6561   16.4576 H         1 RES1    0.0000
    108 H30        5.0852   -4.8852   15.9394 H         1 RES1    0.0000
    109 H31        5.1682   -3.1251   15.5923 H         1 RES1    0.0000
    110 H32        3.5563   -3.4273   13.7304 H         1 RES1    0.0000
    111 H33        3.5078   -5.1897   14.0679 H         1 RES1    0.0000
    112 H34        6.0166   -5.2379   13.6856 H         1 RES1    0.0000
    113 H35        5.9009   -3.5335   13.1354 H         1 RES1    0.0000
    114 H36        5.9438   -5.1006   11.2048 H         1 RES1    0.0000
    115 H37        4.4766   -5.9223   11.8334 H         1 RES1    0.0000
    116 H38       -3.5339   -0.2938  -19.5303 H         2 RES2    0.0000
    117 H39       -1.6692   -0.1737  -19.4488 H         2 RES2    0.0000
    118 H40       -3.6712    0.0444  -17.0783 H         2 RES2    0.0000
    119 H41       -0.0648    1.5962  -14.9589 H         2 RES2    0.0000
    120 H42        0.0020   -0.1772  -14.6821 H         2 RES2    0.0000
    121 H43       -1.7599    0.1067  -12.9483 H         2 RES2    0.0000
    122 H44       -1.5920    1.8837  -13.1514 H         2 RES2    0.0000
    123 H45        0.8417    1.7111  -12.6091 H         2 RES2    0.0000
    124 H46        0.6648   -0.0634  -12.3932 H         2 RES2    0.0000
    125 H47       -0.9660    0.4045  -10.5393 H         2 RES2    0.0000
    126 H48       -0.5603    2.1458  -10.6961 H         2 RES2    0.0000
    127 H49        1.8249    1.6346  -10.2402 H         2 RES2    0.0000
    128 H50        1.4215   -0.1091  -10.0851 H         2 RES2    0.0000
    129 H51        0.4013    2.1569   -8.3144 H         2 RES2    0.0000
    130 H52       -0.0779    0.4323   -8.1800 H         2 RES2    0.0000
@<TRIPOS>BOND
     1    1   13 2
     2    2   13 1
     3    3   19 1
     4    4   26 1
     5    5   26 2
     6    6   33 2
     7    7   10 2
     8    8   10 2
     9    9   33 1
    10   10   37 1
    11   11   12 2
    12   12   13 1
    13   14    2 1
    14   15   14 1
    15   16   15 1
    16   17   16 1
    17   18   17 1
    18   19   18 1
    19   20    3 1
    20   21   20 ar
    21   22   21 ar
    22   23   22 ar
    23   24   23 ar
    24   25   20 ar
    25   26   23 1
    26   27    4 1
    27   28   27 ar
    28   29   28 ar
    29   30   29 ar
    30   31   30 ar
    31   32   27 ar
    32   33   30 1
    33   34    9 1
    34   35   34 ar
    35   36   35 ar
    36   37   36 ar
    37   38   37 ar
    38   39    6 1
    39   40   52 2
    40   41   52 1
    41   42   58 1
    42   43   65 1
    43   44   65 2
    44   45   72 2
    45   46   49 2
    46   47   49 2
    47   48   72 1
    48   49   76 1
    49   50   51 2
    50   51   52 1
    51   53   41 1
    52   54   53 1
    53   55   54 1
    54   56   55 1
    55   57   56 1
    56   58   57 1
    57   59   42 1
    58   60   59 ar
    59   61   60 ar
    60   62   61 ar
    61   63   62 ar
    62   64   59 ar
    63   65   62 1
    64   66   43 1
    65   67   66 ar
    66   68   67 ar
    67   69   68 ar
    68   70   69 ar
    69   71   66 ar
    70   72   69 1
    71   73   48 1
    72   74   73 ar
    73   75   74 ar
    74   76   75 ar
    75   77   76 ar
    76   78   45 1
    77   79   11 1
    78   80   11 1
    79   81   21 1
    80   82   22 1
    81   83   24 1
    82   84   25 1
    83   85   28 1
    84   86   29 1
    85   87   31 1
    86   88   32 1
    87   89   35 1
    88   90   36 1
    89   91   38 1
    90   92   60 1
    91   93   61 1
    92   94   63 1
    93   95   64 1
    94   96   67 1
    95   97   68 1
    96   98   70 1
    97   99   71 1
    98  100   74 1
    99  101   75 1
   100  102   77 1
   101  103   12 1
   102  104   14 1
   103  105   14 1
   104  106   15 1
   105  107   15 1
   106  108   16 1
   107  109   16 1
   108  110   17 1
   109  111   17 1
   110  112   18 1
   111  113   18 1
   112  114   19 1
   113  115   19 1
   114  116   50 1
   115  117   50 1
   116  118   51 1
   117  119   53 1
   118  120   53 1
   119  121   54 1
   120  122   54 1
   121  123   55 1
   122  124   55 1
   123  125   56 1
   124  126   56 1
   125  127   57 1
   126  128   57 1
   127  129   58 1
   128  130   58 1
   129   24   25 ar
   130   31   32 ar
   131   34   39 ar
   132   38   39 ar
   133   63   64 ar
   134   70   71 ar
   135   73   78 ar
   136   77   78 ar
@<TRIPOS>SUBSTRUCTURE
     1 RES1 1
     2 RES2 40

@<TRIPOS>CRYSIN
  11.4770   15.1230   17.2420 105.7800  99.2200 107.8300   2 1

