# MOL2 file generated by ConQuest
# Please check atom types

@<TRIPOS>MOLECULE
HIHWAW
    41    42     1
SMALL
NO_CHARGES
****
Generated from CSD

@<TRIPOS>ATOM
      1 N1         0.7982    5.1742   -1.1049 N.ar      1 RES1    0.0000
      2 C1         1.0406    4.5539    0.0553 C.ar      1 RES1    0.0000
      3 C2         0.4542    3.1856    0.2073 C.3       1 RES1    0.0000
      4 H1        -0.0419    2.9488   -0.5796 H         1 RES1    0.0000
      5 H2         1.1706    2.5580    0.3347 H         1 RES1    0.0000
      6 H3        -0.1272    3.1652    0.9706 H         1 RES1    0.0000
      7 C3         1.8052    5.1495    1.0584 C.ar      1 RES1    0.0000
      8 C4         1.9320    4.5002    2.4032 C.2       1 RES1    0.0000
      9 C5         2.9207    2.7338    3.6266 C.3       1 RES1    0.0000
     10 H4         3.5202    1.9959    3.4943 H         1 RES1    0.0000
     11 H5         3.2880    3.3294    4.2842 H         1 RES1    0.0000
     12 H6         2.0722    2.4041    3.9317 H         1 RES1    0.0000
     13 O1         1.3923    4.8865    3.3876 O.2       1 RES1    0.0000
     14 O2         2.7362    3.4398    2.3726 O.3       1 RES1    0.0000
     15 C6         2.3868    6.4002    0.8393 C.ar      1 RES1    0.0000
     16 C7         2.1709    7.0059   -0.3969 C.ar      1 RES1    0.0000
     17 C8         2.9395    8.2275   -0.7494 C.2       1 RES1    0.0000
     18 C9         2.8295   10.4762   -1.4593 C.3       1 RES1    0.0000
     19 H7         2.1943   11.1778   -1.6222 H         1 RES1    0.0000
     20 H8         3.4464   10.7551   -0.7790 H         1 RES1    0.0000
     21 H9         3.3096   10.2859   -2.2690 H         1 RES1    0.0000
     22 O3         4.1323    8.2667   -0.8007 O.2       1 RES1    0.0000
     23 O4         2.1604    9.2647   -1.0239 O.3       1 RES1    0.0000
     24 C10        1.3365    6.3769   -1.3408 C.ar      1 RES1    0.0000
     25 C11        1.0366    6.9885   -2.6639 C.3       1 RES1    0.0000
     26 H10        0.4637    6.4060   -3.1674 H         1 RES1    0.0000
     27 H11        0.5998    7.8339   -2.5355 H         1 RES1    0.0000
     28 H12        1.8577    7.1221   -3.1438 H         1 RES1    0.0000
     29 C12        3.2430    7.0349    1.8691 C.ar      1 RES1    0.0000
     30 C13        2.9600    8.2958    2.3608 C.ar      1 RES1    0.0000
     31 H13        2.1857    8.7577    2.0300 H         1 RES1    0.0000
     32 C14        3.7639    8.8797    3.2998 C.ar      1 RES1    0.0000
     33 H14        3.5307    9.7484    3.6355 H         1 RES1    0.0000
     34 C15        4.8905    8.2362    3.7668 C.ar      1 RES1    0.0000
     35 H15        5.4728    8.6589    4.4026 H         1 RES1    0.0000
     36 C16        5.1514    6.9885    3.2780 C.ar      1 RES1    0.0000
     37 C17        4.3627    6.3682    2.3479 C.ar      1 RES1    0.0000
     38 H16        4.5830    5.4850    2.0419 H         1 RES1    0.0000
     39 N2         6.3356    6.2680    3.7638 N.pl3     1 RES1    0.0000
     40 O5         7.2581    6.9187    4.2249 O.2       1 RES1    0.0000
     41 O6         6.3370    5.0492    3.6483 O.2       1 RES1    0.0000
@<TRIPOS>BOND
     1    1    2 ar
     2    2    3 1
     3    3    4 1
     4    5    3 1
     5    6    3 1
     6    7    2 ar
     7    8    7 1
     8    9   10 1
     9   11    9 1
    10   12    9 1
    11   13    8 2
    12   14    8 1
    13   15    7 ar
    14   16   15 ar
    15   17   16 1
    16   18   19 1
    17   20   18 1
    18   21   18 1
    19   22   17 2
    20   23   17 1
    21   24    1 ar
    22   25   24 1
    23   26   25 1
    24   27   25 1
    25   28   25 1
    26   29   15 1
    27   30   29 ar
    28   31   30 1
    29   32   30 ar
    30   33   32 1
    31   34   32 ar
    32   35   34 1
    33   36   34 ar
    34   37   29 ar
    35   38   37 1
    36   39   36 1
    37   40   39 2
    38   41   39 2
    39    9   14 1
    40   16   24 ar
    41   18   23 1
    42   36   37 ar
@<TRIPOS>SUBSTRUCTURE
     1 RES1 1

@<TRIPOS>CRYSIN
  11.5980   14.5260   10.6120  90.0000 111.5000  90.0000  14 1

