# MOL2 file generated by ConQuest
# Please check atom types

@<TRIPOS>MOLECULE
HIHWIE
    51    48     2
SMALL
NO_CHARGES
****
Generated from CSD

@<TRIPOS>ATOM
      1 N1         9.8690    9.4814    1.3237 N.ar      1 RES1    0.0000
      2 H1         9.1830   10.0630    1.3197 Du        2 SUP2    0.0000
      3 C1         9.7433    8.3240    0.6424 C.ar      1 RES1    0.0000
      4 C2         8.4387    8.1542   -0.0752 C.3       1 RES1    0.0000
      5 H2         7.8737    8.9134    0.0841 H         1 RES1    0.0000
      6 H3         8.6069    8.0722   -1.0171 H         1 RES1    0.0000
      7 H4         8.0050    7.3599    0.2427 H         1 RES1    0.0000
      8 C3        10.7909    7.4145    0.6271 C.ar      1 RES1    0.0000
      9 C4        10.7242    6.2103   -0.2371 C.2       1 RES1    0.0000
     10 C5         9.5406    4.2352   -0.7250 C.3       1 RES1    0.0000
     11 H5         9.5079    4.4518   -1.6595 H         1 RES1    0.0000
     12 H6        10.3072    3.6770   -0.5753 H         1 RES1    0.0000
     13 C6         8.3446    3.5267   -0.3495 C.3       1 RES1    0.0000
     14 H7         8.2771    2.7265   -0.8730 H         1 RES1    0.0000
     15 H8         8.3818    3.2984    0.5826 H         1 RES1    0.0000
     16 H9         7.5764    4.0810   -0.5114 H         1 RES1    0.0000
     17 O1        11.5450    5.9351   -1.0527 O.2       1 RES1    0.0000
     18 O2         9.6620    5.4550    0.0510 O.3       1 RES1    0.0000
     19 C7        11.9624    7.7151    1.3407 C.ar      1 RES1    0.0000
     20 C8        12.0293    8.9193    2.0381 C.ar      1 RES1    0.0000
     21 C9        13.2379    9.2862    2.8351 C.2       1 RES1    0.0000
     22 C10       14.4526    8.7651    4.8393 C.3       1 RES1    0.0000
     23 H10       14.5912    9.7117    4.9178 H         1 RES1    0.0000
     24 H11       14.2254    8.4196    5.7050 H         1 RES1    0.0000
     25 C11       15.6574    8.1191    4.3401 C.3       1 RES1    0.0000
     26 H12       16.3815    8.2869    4.9485 H         1 RES1    0.0000
     27 H13       15.5104    7.1744    4.2681 H         1 RES1    0.0000
     28 H14       15.8780    8.4762    3.4759 H         1 RES1    0.0000
     29 O3        13.3719    8.4840    3.8716 O.3       1 RES1    0.0000
     30 O4        13.9596   10.2113    2.5981 O.2       1 RES1    0.0000
     31 C12       10.9697    9.7936    2.0074 C.ar      1 RES1    0.0000
     32 C13       10.9744   11.0954    2.7736 C.3       1 RES1    0.0000
     33 H15       10.1532   11.5736    2.6288 H         1 RES1    0.0000
     34 H16       11.0750   10.9100    3.7098 H         1 RES1    0.0000
     35 H17       11.7132   11.6302    2.4726 H         1 RES1    0.0000
     36 C14       13.0909    6.7490    1.3739 C.ar      1 RES1    0.0000
     37 C15       12.8996    5.4257    1.7857 C.ar      1 RES1    0.0000
     38 H18       12.0240    5.1369    2.0527 H         1 RES1    0.0000
     39 C16       13.9511    4.5338    1.8124 C.ar      1 RES1    0.0000
     40 H19       13.7970    3.6263    2.0851 H         1 RES1    0.0000
     41 C17       15.2068    4.9319    1.4580 C.ar      1 RES1    0.0000
     42 H20       15.9437    4.3172    1.4839 H         1 RES1    0.0000
     43 C18       15.3725    6.2181    1.0672 C.ar      1 RES1    0.0000
     44 C19       14.3556    7.1315    0.9879 C.ar      1 RES1    0.0000
     45 H21       14.5186    8.0195    0.6643 H         1 RES1    0.0000
     46 N2        16.7294    6.6553    0.6457 N.pl3     1 RES1    0.0000
     47 O5        16.9216    7.8244    0.4669 O.2       1 RES1    0.0000
     48 O6        17.5862    5.8083    0.5696 O.2       1 RES1    0.0000
     49 H22       11.0300   11.7356    1.6651 Du        2 SUP2    0.0000
     50 H23       10.0327   11.3413    3.3691 Du        2 SUP2    0.0000
     51 H24       12.1503   11.3413    3.4055 Du        2 SUP2    0.0000
@<TRIPOS>BOND
     1    1    3 ar
     2    3    4 1
     3    4    5 1
     4    6    4 1
     5    7    4 1
     6    8    3 ar
     7    9    8 1
     8   10   11 1
     9   12   10 1
    10   13   10 1
    11   14   13 1
    12   15   13 1
    13   16   13 1
    14   17    9 2
    15   18    9 1
    16   19    8 ar
    17   20   19 ar
    18   21   20 1
    19   22   23 1
    20   24   22 1
    21   25   22 1
    22   26   25 1
    23   27   25 1
    24   28   25 1
    25   29   21 1
    26   30   21 2
    27   31    1 ar
    28   32   31 1
    29   33   32 1
    30   34   32 1
    31   35   32 1
    32   36   19 1
    33   37   36 ar
    34   38   37 1
    35   39   37 ar
    36   40   39 1
    37   41   39 ar
    38   42   41 1
    39   43   41 ar
    40   44   36 ar
    41   45   44 1
    42   46   43 1
    43   47   46 2
    44   48   46 2
    45   10   18 1
    46   20   31 ar
    47   22   29 1
    48   43   44 ar
@<TRIPOS>SUBSTRUCTURE
     1 RES1 1
     2 SUP2 2

@<TRIPOS>CRYSIN
  12.0180   19.5170    8.6060  90.0000 109.9200  90.0000  14 1

