# MOL2 file generated by ConQuest
# Please check atom types

@<TRIPOS>MOLECULE
HIHXOL
    41    42     1
SMALL
NO_CHARGES
****
Generated from CSD

@<TRIPOS>ATOM
      1 N1         4.2824   -2.8331   15.1233 N.2       1 RES1    0.0000
      2 O1         4.9917   -2.8722   13.8834 O.3       1 RES1    0.0000
      3 O2         3.7615    0.3193   11.3269 O.3       1 RES1    0.0000
      4 O3         5.1799    1.9711   10.8375 O.2       1 RES1    0.0000
      5 C1         3.5724   -1.7870   15.1546 C.2       1 RES1    0.0000
      6 C2         3.6585   -0.9455   13.9350 C.3       1 RES1    0.0000
      7 C3         4.8486   -1.5593   13.2110 C.3       1 RES1    0.0000
      8 C4         2.6767   -1.5130   16.3195 C.3       1 RES1    0.0000
      9 C5         6.1265   -0.7997   13.4784 C.3       1 RES1    0.0000
     10 C6         4.6120   -1.8946   11.7318 C.3       1 RES1    0.0000
     11 C7         4.6899   -0.6698   10.8140 C.3       1 RES1    0.0000
     12 C8         4.3130   -1.0176    9.3911 C.3       1 RES1    0.0000
     13 C9         5.2012   -2.1108    8.8094 C.3       1 RES1    0.0000
     14 C10        5.2054   -3.3161    9.7320 C.3       1 RES1    0.0000
     15 C11        5.5668   -2.9594   11.1721 C.3       1 RES1    0.0000
     16 C12        4.7716   -2.4790    7.3865 C.3       1 RES1    0.0000
     17 C13        4.1394    1.6153   11.3050 C.2       1 RES1    0.0000
     18 C14        3.1272    2.5004   11.9179 C.3       1 RES1    0.0000
     19 H1         2.8011   -1.0292   13.4487 H         1 RES1    0.0000
     20 H2         3.8005    0.0454   14.1695 H         1 RES1    0.0000
     21 H3         2.7930   -2.1659   17.0122 H         1 RES1    0.0000
     22 H4         2.8890   -0.6796   16.6901 H         1 RES1    0.0000
     23 H5         1.7818   -1.5673   16.0412 H         1 RES1    0.0000
     24 H6         6.9494   -1.2044   13.0781 H         1 RES1    0.0000
     25 H7         6.0938    0.0587   13.0547 H         1 RES1    0.0000
     26 H8         6.2677   -0.7410   14.4572 H         1 RES1    0.0000
     27 H9         3.6967   -2.2015   11.6599 H         1 RES1    0.0000
     28 H10        5.6351   -0.2588   10.8562 H         1 RES1    0.0000
     29 H11        3.3394   -1.2951    9.3254 H         1 RES1    0.0000
     30 H12        4.4420   -0.1939    8.8814 H         1 RES1    0.0000
     31 H13        6.1275   -1.7541    8.7766 H         1 RES1    0.0000
     32 H14        5.8392   -4.0197    9.4552 H         1 RES1    0.0000
     33 H15        4.2595   -3.7448    9.7210 H         1 RES1    0.0000
     34 H16        5.5312   -3.7226   11.7303 H         1 RES1    0.0000
     35 H17        6.5430   -2.5742   11.2080 H         1 RES1    0.0000
     36 H18        4.7657   -1.6447    6.8627 H         1 RES1    0.0000
     37 H19        5.3774   -3.1221    6.9909 H         1 RES1    0.0000
     38 H20        3.8030   -2.9140    7.4616 H         1 RES1    0.0000
     39 H21        2.2663    2.1526   11.6756 H         1 RES1    0.0000
     40 H22        3.1045    2.4710   12.8061 H         1 RES1    0.0000
     41 H23        3.2978    3.3588   11.8022 H         1 RES1    0.0000
@<TRIPOS>BOND
     1    1    2 1
     2    2    7 1
     3    3   11 1
     4    4   17 2
     5    5    1 2
     6    6    5 1
     7    7    6 1
     8    8    5 1
     9    9    7 1
    10   10    7 1
    11   11   10 1
    12   12   11 1
    13   13   12 1
    14   14   13 1
    15   15   10 1
    16   16   13 1
    17   17    3 1
    18   18   17 1
    19   19    6 1
    20   20    6 1
    21   21    8 1
    22   22    8 1
    23   23    8 1
    24   24    9 1
    25   25    9 1
    26   26    9 1
    27   27   10 1
    28   28   11 1
    29   29   12 1
    30   30   12 1
    31   31   13 1
    32   32   14 1
    33   33   14 1
    34   34   15 1
    35   35   15 1
    36   36   16 1
    37   37   16 1
    38   38   16 1
    39   39   18 1
    40   40   18 1
    41   41   18 1
    42   14   15 1
@<TRIPOS>SUBSTRUCTURE
     1 RES1 1

@<TRIPOS>CRYSIN
  10.5380    8.8950   16.0310  90.0000 102.7420  90.0000  14 2

