# MOL2 file generated by ConQuest
# Please check atom types

@<TRIPOS>MOLECULE
HIHZUT
    22    23     1
SMALL
NO_CHARGES
****
Generated from CSD

@<TRIPOS>ATOM
      1 N1         6.5213    2.2298    5.7977 N.am      1 RES1    0.0000
      2 C1         5.9761    2.7379    4.6583 C.2       1 RES1    0.0000
      3 O1         6.1170    3.8883    4.3068 O.2       1 RES1    0.0000
      4 C2         5.1479    1.7740    3.8207 C.2       1 RES1    0.0000
      5 O2         4.5942    2.1802    2.8209 O.2       1 RES1    0.0000
      6 N2         5.0565    0.4910    4.2545 N.am      1 RES1    0.0000
      7 C3         5.7042    0.0094    5.3876 C.ar      1 RES1    0.0000
      8 C4         5.6327   -1.3394    5.7316 C.ar      1 RES1    0.0000
      9 C5         6.3076   -1.7705    6.8498 C.ar      1 RES1    0.0000
     10 N3         6.3231   -3.2169    7.0891 N.pl3     1 RES1    0.0000
     11 O3         7.4154   -3.7643    7.0866 O.2       1 RES1    0.0000
     12 O4         5.2573   -3.7814    7.2188 O.2       1 RES1    0.0000
     13 C6         7.0429   -0.8955    7.6388 C.ar      1 RES1    0.0000
     14 N4         7.7258   -1.3728    8.8418 N.pl3     1 RES1    0.0000
     15 O5         8.7977   -0.8647    9.1260 O.2       1 RES1    0.0000
     16 O6         7.1861   -2.2615    9.4837 O.2       1 RES1    0.0000
     17 C7         7.1177    0.4431    7.3110 C.ar      1 RES1    0.0000
     18 C8         6.4454    0.8955    6.1779 C.ar      1 RES1    0.0000
     19 H1         6.9782    2.8072    6.2888 H         1 RES1    0.0000
     20 H2         4.5919   -0.0496    3.7845 H         1 RES1    0.0000
     21 H3         5.1543   -1.9493    5.1769 H         1 RES1    0.0000
     22 H4         7.6091    1.0435    7.8308 H         1 RES1    0.0000
@<TRIPOS>BOND
     1    1    2 1
     2    2    3 2
     3    4    2 1
     4    5    4 2
     5    6    4 1
     6    7    6 1
     7    8    7 ar
     8    9    8 ar
     9   10    9 1
    10   11   10 2
    11   12   10 2
    12   13    9 ar
    13   14   13 1
    14   15   14 2
    15   16   14 2
    16   17   13 ar
    17   18    1 1
    18   19    1 1
    19   20    6 1
    20   21    8 1
    21   22   17 1
    22    7   18 ar
    23   17   18 ar
@<TRIPOS>SUBSTRUCTURE
     1 RES1 1

@<TRIPOS>CRYSIN
   8.4668    8.5533   12.4657  90.0000  90.3410  90.0000  14 1

