# MOL2 file generated by ConQuest
# Please check atom types

@<TRIPOS>MOLECULE
HIJBAD
    44    46     2
SMALL
NO_CHARGES
****
Generated from CSD

@<TRIPOS>ATOM
      1 N1         2.6375    6.6017    1.0017 N.am      1 RES1    0.0000
      2 C1         3.4092    6.4709    2.0870 C.2       1 RES1    0.0000
      3 O1         4.4020    7.1342    2.3033 O.2       1 RES1    0.0000
      4 C2         2.9982    5.4190    3.0928 C.2       1 RES1    0.0000
      5 O2         3.6771    5.1913    4.0578 O.2       1 RES1    0.0000
      6 N2         1.7946    4.7975    2.8623 N.am      1 RES1    0.0000
      7 C3         1.0034    5.0029    1.7586 C.ar      1 RES1    0.0000
      8 C4        -0.2358    4.3723    1.5219 C.ar      1 RES1    0.0000
      9 N3        -0.8498    3.4997    2.5318 N.pl3     1 RES1    0.0000
     10 O3        -0.2917    3.3545    3.6008 O.2       1 RES1    0.0000
     11 O4        -1.9244    2.9855    2.2339 O.2       1 RES1    0.0000
     12 C5        -0.9371    4.5712    0.3489 C.ar      1 RES1    0.0000
     13 C6        -0.4249    5.4151   -0.5896 C.ar      1 RES1    0.0000
     14 N4        -1.1394    5.5851   -1.8626 N.pl3     1 RES1    0.0000
     15 O5        -0.6817    6.3518   -2.6868 O.2       1 RES1    0.0000
     16 O6        -2.1651    4.9480   -2.0156 O.2       1 RES1    0.0000
     17 C7         0.7536    6.1098   -0.4019 C.ar      1 RES1    0.0000
     18 C8         1.4534    5.9096    0.7773 C.ar      1 RES1    0.0000
     19 N5         0.5282    2.4910    8.1114 N.am      2 RES2    0.0000
     20 C9         0.3852    3.5874    8.8724 C.2       2 RES2    0.0000
     21 O7         1.2343    3.9969    9.6476 O.2       2 RES2    0.0000
     22 C10       -0.9350    4.2912    8.7622 C.2       2 RES2    0.0000
     23 O8        -1.1715    5.2515    9.4722 O.2       2 RES2    0.0000
     24 N6        -1.8225    3.8098    7.8503 N.am      2 RES2    0.0000
     25 C11       -1.5685    2.7841    6.9792 C.ar      2 RES2    0.0000
     26 C12       -2.4428    2.3667    5.9632 C.ar      2 RES2    0.0000
     27 N7        -3.7685    2.9594    5.7959 N.pl3     2 RES2    0.0000
     28 O9        -4.1306    3.8255    6.5916 O.2       2 RES2    0.0000
     29 O10       -4.4704    2.5708    4.8758 O.2       2 RES2    0.0000
     30 C13       -2.1183    1.3593    5.0717 C.ar      2 RES2    0.0000
     31 C14       -0.8924    0.7431    5.2247 C.ar      2 RES2    0.0000
     32 N8        -0.5038   -0.2983    4.2720 N.pl3     2 RES2    0.0000
     33 O11       -1.0557   -0.3205    3.1846 O.2       2 RES2    0.0000
     34 O12        0.3468   -1.0937    4.6065 O.2       2 RES2    0.0000
     35 C15       -0.0160    1.0623    6.2345 C.ar      2 RES2    0.0000
     36 C16       -0.3447    2.0985    7.1036 C.ar      2 RES2    0.0000
     37 H1         2.8684    7.1904    0.4447 H         1 RES1    0.0000
     38 H2         1.5615    4.2415    3.4559 H         1 RES1    0.0000
     39 H3        -1.8016    4.0871    0.2775 H         1 RES1    0.0000
     40 H4         1.0201    6.7391   -1.1017 H         1 RES1    0.0000
     41 H5         1.1729    2.0187    8.1930 H         2 RES2    0.0000
     42 H6        -2.4637    4.2245    7.7299 H         2 RES2    0.0000
     43 H7        -2.7289    1.1055    4.3475 H         2 RES2    0.0000
     44 H8         0.8003    0.6241    6.3182 H         2 RES2    0.0000
@<TRIPOS>BOND
     1    1    2 1
     2    2    3 2
     3    4    2 1
     4    5    4 2
     5    6    4 1
     6    7    6 1
     7    8    7 ar
     8    9    8 1
     9   10    9 2
    10   11    9 2
    11   12    8 ar
    12   13   12 ar
    13   14   13 1
    14   15   14 2
    15   16   14 2
    16   17   13 ar
    17   18    1 1
    18   19   20 1
    19   20   21 2
    20   22   20 1
    21   23   22 2
    22   24   22 1
    23   25   24 1
    24   26   25 ar
    25   27   26 1
    26   28   27 2
    27   29   27 2
    28   30   26 ar
    29   31   30 ar
    30   32   31 1
    31   33   32 2
    32   34   32 2
    33   35   31 ar
    34   36   19 1
    35   37    1 1
    36   38    6 1
    37   39   12 1
    38   40   17 1
    39   41   19 1
    40   42   24 1
    41   43   30 1
    42   44   35 1
    43    7   18 ar
    44   17   18 ar
    45   25   36 ar
    46   35   36 ar
@<TRIPOS>SUBSTRUCTURE
     1 RES1 1
     2 RES2 19

@<TRIPOS>CRYSIN
   6.9774   13.0830   20.4010  90.0000  90.0000  90.0000  19 1

