# MOL2 file generated by ConQuest
# Please check atom types

@<TRIPOS>MOLECULE
HIKJEQ
    34    35     1
SMALL
NO_CHARGES
****
Generated from CSD

@<TRIPOS>ATOM
      1 N1        -4.6403    3.1884    9.3400 N.pl3     1 RES1    0.0000
      2 O1        -4.6440    3.9610    8.3202 O.2       1 RES1    0.0000
      3 C1        -4.0078    3.5634   10.6433 C.3       1 RES1    0.0000
      4 C2        -4.1743    5.0441   10.9025 C.3       1 RES1    0.0000
      5 H1        -3.7738    5.5464   10.1690 H         1 RES1    0.0000
      6 H2        -5.1984    5.2341   10.8442 H         1 RES1    0.0000
      7 H3        -3.8307    5.2236   11.7650 H         1 RES1    0.0000
      8 C3        -2.5356    3.2078   10.5056 C.3       1 RES1    0.0000
      9 H4        -2.1666    3.7075    9.7905 H         1 RES1    0.0000
     10 H5        -2.0774    3.3900   11.3046 H         1 RES1    0.0000
     11 H6        -2.3727    2.1861   10.3327 H         1 RES1    0.0000
     12 C4        -4.7450    2.6115   11.5965 C.3       1 RES1    0.0000
     13 C5        -6.1001    3.1666   12.0473 C.3       1 RES1    0.0000
     14 H7        -6.6183    2.4496   12.4913 H         1 RES1    0.0000
     15 H8        -5.9883    3.8191   12.6345 H         1 RES1    0.0000
     16 H9        -6.6404    3.4650   11.1818 H         1 RES1    0.0000
     17 C6        -3.9522    2.0956   12.7665 C.3       1 RES1    0.0000
     18 H10       -3.1119    1.6138   12.3686 H         1 RES1    0.0000
     19 H11       -3.6750    2.8142   13.2279 H         1 RES1    0.0000
     20 H12       -4.5116    1.5406   13.3711 H         1 RES1    0.0000
     21 O2        -5.4594    0.3379   11.0555 O.2       1 RES1    0.0000
     22 N2        -5.0922    1.4922   10.6495 N.pl3     1 RES1    0.0000
     23 C7        -5.1221    1.9384    9.3819 C.2       1 RES1    0.0000
     24 C8        -5.7000    1.2337    8.2589 C.2       1 RES1    0.0000
     25 C9        -6.9110    0.6049    8.1434 C.2       1 RES1    0.0000
     26 H13       -7.5439    0.4903    8.7838 H         1 RES1    0.0000
     27 C10       -6.9632    0.1863    6.8257 C.2       1 RES1    0.0000
     28 H14       -7.6676   -0.3001    6.4042 H         1 RES1    0.0000
     29 N3        -5.8595    0.4936    6.1572 N.2       1 RES1    0.0000
     30 N4        -5.0913    1.1449    7.0535 N.pl3     1 RES1    0.0000
     31 C11       -3.7623    1.5669    6.6784 C.3       1 RES1    0.0000
     32 H15       -3.4549    1.1149    5.9234 H         1 RES1    0.0000
     33 H16       -3.8359    2.4792    6.4247 H         1 RES1    0.0000
     34 H17       -3.1870    1.4795    7.4068 H         1 RES1    0.0000
@<TRIPOS>BOND
     1    1    2 1
     2    3    1 1
     3    4    3 1
     4    5    4 1
     5    6    4 1
     6    7    4 1
     7    8    3 1
     8    9    8 1
     9   10    8 1
    10   11    8 1
    11   12    3 1
    12   13   12 1
    13   14   13 1
    14   15   13 1
    15   16   13 1
    16   17   12 1
    17   18   17 1
    18   19   17 1
    19   20   17 1
    20   21   22 1
    21   22   12 1
    22   23    1 1
    23   24   23 1
    24   25   24 2
    25   26   25 1
    26   27   25 1
    27   28   27 1
    28   29   27 2
    29   30   24 1
    30   31   30 1
    31   32   31 1
    32   33   31 1
    33   34   31 1
    34   22   23 2
    35   29   30 1
@<TRIPOS>SUBSTRUCTURE
     1 RES1 1

@<TRIPOS>CRYSIN
   7.0846   17.4470   12.7630  90.0000 126.7200  90.0000  14 1

