# MOL2 file generated by ConQuest
# Please check atom types

@<TRIPOS>MOLECULE
HIKQOH
    29    33     1
SMALL
USER_CHARGES
****
Generated from CSD

@<TRIPOS>ATOM
      1 O1        -0.7132   11.5029    4.4785 O.2       1 RES1   -1.0000
      2 N1         0.8120    8.0796    3.3025 N.2       1 RES1    0.0000
      3 N2        -0.2613    8.5915    2.6941 N.2       1 RES1    0.0000
      4 N3        -0.2189   10.3816    4.1716 N.pl3     1 RES1    1.0000
      5 N4         1.0592   11.6994    8.0177 N.3       1 RES1    0.0000
      6 C1        -0.7485    9.7283    3.0658 C.2       1 RES1    0.0000
      7 C2         0.7132    9.7962    4.9334 C.2       1 RES1    0.0000
      8 C3         1.3275    8.6579    4.3861 C.2       1 RES1    0.0000
      9 C4         0.8826   11.5665    6.6919 C.2       1 RES1    0.0000
     10 C5         0.9391   10.3081    6.2758 C.2       1 RES1    0.0000
     11 C6         1.0238    9.5360    7.4796 C.ar      1 RES1    0.0000
     12 C7         1.1368   10.4537    8.5502 C.ar      1 RES1    0.0000
     13 C8         1.1933   10.0253    9.8982 C.ar      1 RES1    0.0000
     14 C9         1.2074    8.7244   10.1072 C.ar      1 RES1    0.0000
     15 C10        1.1015    7.7911    9.0791 C.ar      1 RES1    0.0000
     16 C11        1.0592    8.1941    7.7644 C.ar      1 RES1    0.0000
     17 C12        1.0803   12.8872    8.8239 C.3       1 RES1    0.0000
     18 C13        2.6055    8.1121    4.8909 C.ar      1 RES1    0.0000
     19 C14        3.5870    8.8474    5.4715 C.ar      1 RES1    0.0000
     20 C15        4.8015    8.2436    5.8173 C.ar      1 RES1    0.0000
     21 C16        4.9780    6.9286    5.5880 C.ar      1 RES1    0.0000
     22 C17        4.0177    6.1792    5.0314 C.ar      1 RES1    0.0000
     23 C18        2.8244    6.7448    4.6782 C.ar      1 RES1    0.0000
     24 C19       -1.8782   10.2699    2.3742 C.ar      1 RES1    0.0000
     25 C20       -2.9444    9.4243    2.0987 C.ar      1 RES1    0.0000
     26 C21       -4.0671    9.8839    1.4183 C.ar      1 RES1    0.0000
     27 C22       -4.1236   11.1847    1.0152 C.ar      1 RES1    0.0000
     28 C23       -3.0857   12.0190    1.2574 C.ar      1 RES1    0.0000
     29 C24       -1.9700   11.5623    1.9508 C.ar      1 RES1    0.0000
@<TRIPOS>BOND
     1    1    4 1
     2    2    3 1
     3    3    6 2
     4    4    6 1
     5    5    9 1
     6    6   24 1
     7    7    4 2
     8    8    2 2
     9    9   10 2
    10   10    7 1
    11   11   10 1
    12   12    5 1
    13   13   12 ar
    14   14   13 ar
    15   15   14 ar
    16   16   11 ar
    17   17    5 1
    18   18    8 1
    19   19   18 ar
    20   20   19 ar
    21   21   20 ar
    22   22   21 ar
    23   23   18 ar
    24   24   25 ar
    25   25   26 ar
    26   26   27 ar
    27   27   28 ar
    28   28   29 ar
    29   29   24 ar
    30    7    8 1
    31   11   12 ar
    32   15   16 ar
    33   22   23 ar
@<TRIPOS>SUBSTRUCTURE
     1 RES1 1

@<TRIPOS>CRYSIN
   7.0610   14.1400   18.4910  90.0000  90.0000  90.0000  19 1

