# MOL2 file generated by ConQuest
# Please check atom types

@<TRIPOS>MOLECULE
HILYEH
    34    35     1
SMALL
NO_CHARGES
****
Generated from CSD

@<TRIPOS>ATOM
      1 N1         0.4788    1.8031    9.6896 N.2       1 RES1    0.0000
      2 C1         2.5946    1.4584    8.4693 C.ar      1 RES1    0.0000
      3 N2         1.2305    1.5882   10.8307 N.pl3     1 RES1    0.0000
      4 H1         2.0956    1.4468   10.7605 H         1 RES1    0.0000
      5 C2         3.5478    2.3723    8.8806 C.ar      1 RES1    0.0000
      6 H2         3.2774    3.2141    9.2281 H         1 RES1    0.0000
      7 C3         4.8967    2.0634    8.7870 C.ar      1 RES1    0.0000
      8 H3         5.5487    2.6936    9.0692 H         1 RES1    0.0000
      9 N3         2.8656    1.5551   13.2468 N.pl3     1 RES1    0.0000
     10 O1         3.4712    1.5091   12.1810 O.2       1 RES1    0.0000
     11 O2         3.4397    1.5980   14.3218 O.2       1 RES1    0.0000
     12 N4        -1.1941    1.5889   15.8732 N.pl3     1 RES1    0.0000
     13 O3        -2.4218    1.6136   15.9263 O.2       1 RES1    0.0000
     14 O4        -0.4797    1.5701   16.8724 O.2       1 RES1    0.0000
     15 C4         5.2868    0.8568    8.2912 C.ar      1 RES1    0.0000
     16 H4         6.2108    0.6432    8.2440 H         1 RES1    0.0000
     17 C5         4.3496   -0.0552    7.8591 C.ar      1 RES1    0.0000
     18 H5         4.6284   -0.8931    7.5085 H         1 RES1    0.0000
     19 C6         2.9948    0.2518    7.9365 C.ar      1 RES1    0.0000
     20 H6         2.3476   -0.3687    7.6238 H         1 RES1    0.0000
     21 C7         1.1304    1.7674    8.5856 C.2       1 RES1    0.0000
     22 C8         0.3904    2.0400    7.3263 C.3       1 RES1    0.0000
     23 H7        -0.5449    2.2438    7.5342 H         1 RES1    0.0000
     24 H8         0.4314    1.2514    6.7449 H         1 RES1    0.0000
     25 H9         0.7970    2.8052    6.8679 H         1 RES1    0.0000
     26 C9         0.6557    1.5934   12.0498 C.ar      1 RES1    0.0000
     27 C10       -0.7636    1.6415   12.1884 C.ar      1 RES1    0.0000
     28 H10       -1.3055    1.6830   11.4089 H         1 RES1    0.0000
     29 C11       -1.3550    1.6298   13.4070 C.ar      1 RES1    0.0000
     30 H11       -2.3019    1.6486   13.4769 H         1 RES1    0.0000
     31 C12       -0.5746    1.5908   14.5566 C.ar      1 RES1    0.0000
     32 C13        0.8014    1.5448   14.4866 C.ar      1 RES1    0.0000
     33 H12        1.3252    1.5071   15.2784 H         1 RES1    0.0000
     34 C14        1.4038    1.5545   13.2465 C.ar      1 RES1    0.0000
@<TRIPOS>BOND
     1    1    3 1
     2    2    5 ar
     3    3    4 1
     4    5    6 1
     5    7    5 ar
     6    8    7 1
     7    9   10 2
     8   11    9 2
     9   12   13 2
    10   14   12 2
    11   15    7 ar
    12   16   15 1
    13   17   15 ar
    14   18   17 1
    15   19    2 ar
    16   20   19 1
    17   21    1 2
    18   22   21 1
    19   23   22 1
    20   24   22 1
    21   25   22 1
    22   26    3 1
    23   27   26 ar
    24   28   27 1
    25   29   27 ar
    26   30   29 1
    27   31   12 1
    28   32   31 ar
    29   33   32 1
    30   34    9 1
    31    2   21 1
    32   17   19 ar
    33   26   34 ar
    34   29   31 ar
    35   32   34 ar
@<TRIPOS>SUBSTRUCTURE
     1 RES1 1

@<TRIPOS>CRYSIN
   8.3339    6.4906   25.6571  90.0000  92.8040  90.0000  14 1

