# MOL2 file generated by ConQuest
# Please check atom types

@<TRIPOS>MOLECULE
HIMMAL
    40    38     2
SMALL
NO_CHARGES
****
Generated from CSD

@<TRIPOS>ATOM
      1 C1         7.3909    4.7849   -2.6873 C.3       1 RES1    0.0000
      2 C2         5.5283    6.2420   -2.0965 C.2       1 RES1    0.0000
      3 N1         6.4122    5.8192   -2.9722 N.am      1 RES1    0.0000
      4 O1         5.4536    5.8424   -0.9268 O.2       1 RES1    0.0000
      5 C3         4.6210    7.3281   -2.6069 C.2       1 RES1    0.0000
      6 N2         4.5396    8.5006   -2.0992 N.2       1 RES1    0.0000
      7 O2         5.3798    8.6925   -1.0291 O.3       1 RES1    0.0000
      8 C4         3.7467    7.0877   -3.7967 C.2       1 RES1    0.0000
      9 N3         3.2204    8.1589   -4.3784 N.am      1 RES1    0.0000
     10 O3         3.5321    5.9468   -4.2058 O.2       1 RES1    0.0000
     11 C5         2.3741    8.0641   -5.5353 C.3       1 RES1    0.0000
     12 H1         6.4062    6.1366   -3.7894 H         1 RES1    0.0000
     13 H2         5.2978    9.4158   -0.9040 H         1 RES1    0.0000
     14 H3         3.4531    8.9519   -4.0268 H         1 RES1    0.0000
     15 H4         7.6096    4.8292   -1.7714 H         1 RES1    0.0000
     16 H5         8.2289    5.0400   -3.3603 H         1 RES1    0.0000
     17 H6         6.9624    3.8802   -2.7850 H         1 RES1    0.0000
     18 H7         2.7591    7.5284   -6.3005 H         1 RES1    0.0000
     19 H8         1.7029    7.3492   -5.4969 H         1 RES1    0.0000
     20 H9         1.7580    8.5406   -5.5335 H         1 RES1    0.0000
     21 C6         6.1836   -2.1130    1.9294 C.3       2 RES2    0.0000
     22 C7         4.4402   -3.7157    2.4617 C.2       2 RES2    0.0000
     23 N4         5.2922   -3.2001    1.5961 N.am      2 RES2    0.0000
     24 O4         4.3300   -3.3456    3.6369 O.2       2 RES2    0.0000
     25 C8         3.6079   -4.8566    1.9285 C.2       2 RES2    0.0000
     26 N5         3.6025   -6.0375    2.4161 N.2       2 RES2    0.0000
     27 O5         4.4414   -6.2115    3.4917 O.3       2 RES2    0.0000
     28 C9         2.7356   -4.6467    0.7369 C.2       2 RES2    0.0000
     29 N6         2.3169   -5.7496    0.1196 N.am      2 RES2    0.0000
     30 O6         2.4218   -3.5185    0.3607 O.2       2 RES2    0.0000
     31 C10        1.4731   -5.7370   -1.0483 C.3       2 RES2    0.0000
     32 H10        5.3304   -3.4584    0.7488 H         2 RES2    0.0000
     33 H11        4.3692   -6.9274    3.7346 H         2 RES2    0.0000
     34 H12        2.4993   -6.4846    0.5205 H         2 RES2    0.0000
     35 H13        5.8070   -1.2126    1.7623 H         2 RES2    0.0000
     36 H14        6.9624   -2.1510    1.3971 H         2 RES2    0.0000
     37 H15        6.4596   -2.1826    2.8854 H         2 RES2    0.0000
     38 H16        0.7203   -5.1138   -0.9588 H         2 RES2    0.0000
     39 H17        1.8385   -5.1982   -1.7623 H         2 RES2    0.0000
     40 H18        1.4819   -6.4951   -1.4975 H         2 RES2    0.0000
@<TRIPOS>BOND
     1    1    3 1
     2    2    3 1
     3    3   12 1
     4    4    2 2
     5    5    2 1
     6    6    5 2
     7    7    6 1
     8    8    5 1
     9    9    8 1
    10   10    8 2
    11   11    9 1
    12   13    7 1
    13   14    9 1
    14   15    1 1
    15   16    1 1
    16   17    1 1
    17   18   11 1
    18   19   11 1
    19   20   11 1
    20   21   23 1
    21   22   23 1
    22   23   32 1
    23   24   22 2
    24   25   22 1
    25   26   25 2
    26   27   26 1
    27   28   25 1
    28   29   28 1
    29   30   28 2
    30   31   29 1
    31   33   27 1
    32   34   29 1
    33   35   21 1
    34   36   21 1
    35   37   21 1
    36   38   31 1
    37   39   31 1
    38   40   31 1
@<TRIPOS>SUBSTRUCTURE
     1 RES1 1
     2 RES2 21

@<TRIPOS>CRYSIN
  15.5080   10.5440    9.3770  90.0000 103.1500  90.0000 231 1

