# MOL2 file generated by ConQuest
# Please check atom types

@<TRIPOS>MOLECULE
HIMPEO
    18    18     1
SMALL
NO_CHARGES
****
Generated from CSD

@<TRIPOS>ATOM
      1 C1         6.8235    5.2572    3.8242 C.ar      1 RES1    0.0000
      2 H1         6.4180    4.6995    4.5093 H         1 RES1    0.0000
      3 C2         7.8412    6.1250    4.1571 C.ar      1 RES1    0.0000
      4 H2         8.1480    6.0646    5.0793 H         1 RES1    0.0000
      5 C3         8.3662    6.9746    3.2328 C.ar      1 RES1    0.0000
      6 H3         9.1080    7.5871    3.4099 H         1 RES1    0.0000
      7 C4         7.8864    6.9593    1.9381 C.ar      1 RES1    0.0000
      8 H4         8.2525    7.6024    1.2724 H         1 RES1    0.0000
      9 C5         6.8567    6.1128    1.5899 C.ar      1 RES1    0.0000
     10 H5         6.4573    6.1205    0.7227 H         1 RES1    0.0000
     11 C6         6.3079    5.2511    2.5305 C.ar      1 RES1    0.0000
     12 C7         5.1716    4.3838    2.1427 C.2       1 RES1    0.0000
     13 O1         4.5723    4.5538    1.0942 O.2       1 RES1    0.0000
     14 C8         4.7659    3.2871    3.0466 C.2       1 RES1    0.0000
     15 H6         5.3497    2.9841    3.7153 H         1 RES1    0.0000
     16 N1         3.6508    2.7385    2.8267 N.2       1 RES1    0.0000
     17 O2         3.3995    1.7093    3.7041 O.3       1 RES1    0.0000
     18 H7         2.5509    1.4159    3.4608 H         1 RES1    0.0000
@<TRIPOS>BOND
     1    1    2 1
     2    3    1 ar
     3    4    3 1
     4    5    3 ar
     5    6    5 1
     6    7    5 ar
     7    8    7 1
     8    9    7 ar
     9   10    9 1
    10   11    1 ar
    11   12   11 1
    12   13   12 2
    13   14   12 1
    14   15   14 1
    15   16   14 2
    16   17   16 1
    17   18   17 1
    18    9   11 ar
@<TRIPOS>SUBSTRUCTURE
     1 RES1 1

@<TRIPOS>CRYSIN
  14.1770    5.0750   11.0490  90.0000 112.8900  90.0000 231 1

