# MOL2 file generated by ConQuest
# Please check atom types

@<TRIPOS>MOLECULE
HIMPZN
    10    10     1
SMALL
NO_CHARGES
****
Generated from CSD

@<TRIPOS>ATOM
      1 N1         7.1163    3.9294    1.7440 N.pl3     1 RES1    0.0000
      2 C2         8.4676    3.7061    1.7927 C.2       1 RES1    0.0000
      3 C3         8.9545    2.2784    1.8555 C.3       1 RES1    0.0000
      4 N4         8.0152    1.3572    1.2175 N.3       1 RES1    0.0000
      5 C5         6.6639    1.4928    1.8181 C.3       1 RES1    0.0000
      6 C6         6.1859    2.8992    1.7080 C.2       1 RES1    0.0000
      7 N7         9.3210    4.6512    1.8005 N.2       1 RES1    0.0000
      8 O8         8.6681    5.9074    1.7772 O.3       1 RES1    0.0000
      9 N9         4.9212    3.1225    1.7052 N.2       1 RES1    0.0000
     10 O10        4.6723    4.5435    1.7412 O.3       1 RES1    0.0000
@<TRIPOS>BOND
     1    1    2 1
     2    2    3 1
     3    3    4 1
     4    4    5 1
     5    5    6 1
     6    6    1 1
     7    7    2 2
     8    8    7 1
     9    9    6 2
    10   10    9 1
@<TRIPOS>SUBSTRUCTURE
     1 RES1 1

@<TRIPOS>CRYSIN
   7.3440   13.2930    7.0580  90.0000  90.0000  90.0000  33 5

