# MOL2 file generated by ConQuest
# Please check atom types

@<TRIPOS>MOLECULE
HIMSUS
    35    35     1
SMALL
NO_CHARGES
****
Generated from CSD

@<TRIPOS>ATOM
      1 O1         2.6995    1.2330    4.9924 O.2       1 RES1    0.0000
      2 O2         1.1263    2.4549    5.8237 O.2       1 RES1    0.0000
      3 O3         6.8841    5.8864    0.1684 O.2       1 RES1    0.0000
      4 O4         7.9545    5.0144    1.9338 O.3       1 RES1    0.0000
      5 O5         8.3776    7.7812    2.9294 O.2       1 RES1    0.0000
      6 O6         6.4252    8.5300    3.7399 O.3       1 RES1    0.0000
      7 O7         6.2101    9.0049    0.7965 O.2       1 RES1    0.0000
      8 N1         2.0801    2.2793    5.0682 N.pl3     1 RES1    0.0000
      9 C1         2.4861    3.4009    4.2089 C.ar      1 RES1    0.0000
     10 C2         1.7102    4.5329    4.1518 C.ar      1 RES1    0.0000
     11 H1         0.9037    4.5845    4.6318 H         1 RES1    0.0000
     12 C3         2.1345    5.5939    3.3771 C.ar      1 RES1    0.0000
     13 H2         1.5980    6.3622    3.3061 H         1 RES1    0.0000
     14 C4         3.3572    5.5353    2.6948 C.ar      1 RES1    0.0000
     15 C5         4.0912    4.3490    2.7357 C.ar      1 RES1    0.0000
     16 H3         4.8888    4.2807    2.2429 H         1 RES1    0.0000
     17 C6         3.6625    3.2734    3.4899 C.ar      1 RES1    0.0000
     18 H4         4.1578    2.4744    3.5138 H         1 RES1    0.0000
     19 C7         3.7885    6.7168    1.9467 C.2       1 RES1    0.0000
     20 H5         3.1054    7.2037    1.5230 H         1 RES1    0.0000
     21 C8         5.0377    7.1982    1.7861 C.2       1 RES1    0.0000
     22 C9         6.3049    6.6302    2.3846 C.3       1 RES1    0.0000
     23 H6         6.0386    6.0070    3.1065 H         1 RES1    0.0000
     24 C10        7.0805    5.8237    1.3481 C.2       1 RES1    0.0000
     25 C11        8.7596    4.1992    1.0384 C.3       1 RES1    0.0000
     26 H7         8.1776    3.6991    0.4449 H         1 RES1    0.0000
     27 H8         9.2975    3.5820    1.5584 H         1 RES1    0.0000
     28 H9         9.3412    4.7718    0.5145 H         1 RES1    0.0000
     29 C12        7.1871    7.7116    3.0141 C.2       1 RES1    0.0000
     30 C13        7.1107    9.6141    4.4051 C.3       1 RES1    0.0000
     31 H10        7.7478    9.2518    5.0413 H         1 RES1    0.0000
     32 H11        6.4656   10.1665    4.8725 H         1 RES1    0.0000
     33 H12        7.5796   10.1518    3.7476 H         1 RES1    0.0000
     34 C14        5.1685    8.4200    0.9742 C.2       1 RES1    0.0000
     35 H13        4.3942    8.7656    0.5693 H         1 RES1    0.0000
@<TRIPOS>BOND
     1    1    8 2
     2    2    8 2
     3    3   24 2
     4    4   24 1
     5    5   29 2
     6    6   29 1
     7    7   34 2
     8    8    9 1
     9    9   10 ar
    10   10   11 1
    11   12   10 ar
    12   13   12 1
    13   14   12 ar
    14   15   14 ar
    15   16   15 1
    16   17    9 ar
    17   18   17 1
    18   19   14 1
    19   20   19 1
    20   21   19 2
    21   22   21 1
    22   23   22 1
    23   24   22 1
    24   25    4 1
    25   26   25 1
    26   27   25 1
    27   28   25 1
    28   29   22 1
    29   30    6 1
    30   31   30 1
    31   32   30 1
    32   33   30 1
    33   34   21 1
    34   35   34 1
    35   15   17 ar
@<TRIPOS>SUBSTRUCTURE
     1 RES1 1

@<TRIPOS>CRYSIN
   8.9216    6.9662   11.5578  90.0000  99.2240  90.0000   4 1

