# MOL2 file generated by ConQuest
# Please check atom types

@<TRIPOS>MOLECULE
HIMSON
   168   176     2
SMALL
NO_CHARGES
****
Generated from CSD

@<TRIPOS>ATOM
      1 O1         2.1533   14.4519   14.0836 O.3       1 RES1    0.0000
      2 H1         1.7404   15.0048   14.5248 H         1 RES1    0.0000
      3 O2         0.6783    9.0409    4.7025 O.2       1 RES1    0.0000
      4 O3         1.7541   10.2587    3.2077 O.3       1 RES1    0.0000
      5 N1         2.5838   15.0387   12.8744 N.2       1 RES1    0.0000
      6 C1         3.2447   11.8542   11.4372 C.3       1 RES1    0.0000
      7 H2         2.4755   11.3488   11.7453 H         1 RES1    0.0000
      8 H3         3.9767   11.2281   11.3225 H         1 RES1    0.0000
      9 C2         3.6268   12.8451   12.5112 C.3       1 RES1    0.0000
     10 H4         3.1762   12.6039   13.3362 H         1 RES1    0.0000
     11 H5         4.5822   12.7848   12.6682 H         1 RES1    0.0000
     12 C3         3.2790   14.2540   12.1616 C.2       1 RES1    0.0000
     13 C4         3.8218   14.8043   10.8589 C.3       1 RES1    0.0000
     14 C5         3.8867   13.6279    9.8084 C.3       1 RES1    0.0000
     15 H6         4.7821   13.2408    9.9048 H         1 RES1    0.0000
     16 C6         3.8094   14.1194    8.3623 C.3       1 RES1    0.0000
     17 H7         2.9063   14.4168    8.1697 H         1 RES1    0.0000
     18 H8         4.4063   14.8766    8.2450 H         1 RES1    0.0000
     19 C7         4.1949   13.0166    7.3987 C.3       1 RES1    0.0000
     20 H9         5.1146   12.7584    7.5695 H         1 RES1    0.0000
     21 H10        4.1489   13.3615    6.4928 H         1 RES1    0.0000
     22 C8         3.3010   11.7709    7.5031 C.3       1 RES1    0.0000
     23 C9         3.1772   11.3491    8.9889 C.3       1 RES1    0.0000
     24 H11        4.0585   10.9869    9.2196 H         1 RES1    0.0000
     25 C10        2.9084   12.4640   10.0672 C.3       1 RES1    0.0000
     26 C11        2.2237   10.1592    9.1206 C.3       1 RES1    0.0000
     27 H12        2.3977    9.7092    9.9629 H         1 RES1    0.0000
     28 H13        1.3122   10.4894    9.1443 H         1 RES1    0.0000
     29 C12        2.3498    9.1736    8.0139 C.2       1 RES1    0.0000
     30 H14        1.8725    8.3825    8.1020 H         1 RES1    0.0000
     31 C13        3.0713    9.3138    6.9223 C.2       1 RES1    0.0000
     32 C14        3.9498   10.5550    6.7131 C.3       1 RES1    0.0000
     33 C15        4.0696   10.9123    5.2126 C.3       1 RES1    0.0000
     34 H15        3.2868   11.4241    4.9546 H         1 RES1    0.0000
     35 H16        4.8444   11.4844    5.0933 H         1 RES1    0.0000
     36 C16        4.1984    9.7220    4.2736 C.3       1 RES1    0.0000
     37 H17        5.0446    9.2758    4.4372 H         1 RES1    0.0000
     38 H18        4.2011   10.0371    3.3572 H         1 RES1    0.0000
     39 C17        3.0593    8.7172    4.4553 C.3       1 RES1    0.0000
     40 C18        3.0893    8.1944    5.8988 C.3       1 RES1    0.0000
     41 H19        2.2746    7.6663    6.0324 H         1 RES1    0.0000
     42 C19        4.2827    7.2495    6.1236 C.3       1 RES1    0.0000
     43 H20        5.1011    7.7643    6.0474 H         1 RES1    0.0000
     44 H21        4.2368    6.9050    7.0295 H         1 RES1    0.0000
     45 C20        4.3622    6.0641    5.1589 C.3       1 RES1    0.0000
     46 C21        4.3087    6.5986    3.7347 C.3       1 RES1    0.0000
     47 H22        5.1350    7.0708    3.5476 H         1 RES1    0.0000
     48 H23        4.2553    5.8496    3.1216 H         1 RES1    0.0000
     49 C22        3.1472    7.5280    3.4646 C.3       1 RES1    0.0000
     50 H24        2.3223    7.0181    3.5110 H         1 RES1    0.0000
     51 H25        3.2278    7.8774    2.5633 H         1 RES1    0.0000
     52 C23        2.9807   15.9946   10.3802 C.3       1 RES1    0.0000
     53 H26        3.0114   16.6933   11.0375 H         1 RES1    0.0000
     54 H27        2.0717   15.7134   10.2533 H         1 RES1    0.0000
     55 H28        3.3327   16.3202    9.5488 H         1 RES1    0.0000
     56 C24        5.2483   15.2931   11.1171 C.3       1 RES1    0.0000
     57 H29        5.6539   15.5513   10.2867 H         1 RES1    0.0000
     58 H30        5.7612   14.5864   11.5183 H         1 RES1    0.0000
     59 H31        5.2254   16.0488   11.7109 H         1 RES1    0.0000
     60 C25        1.4450   12.9533   10.1167 C.3       1 RES1    0.0000
     61 H32        0.8550   12.1968   10.1296 H         1 RES1    0.0000
     62 H33        1.2609   13.4896    9.3411 H         1 RES1    0.0000
     63 H34        1.3102   13.4783   10.9084 H         1 RES1    0.0000
     64 C26        1.9235   12.1014    6.9069 C.3       1 RES1    0.0000
     65 H35        1.4325   11.2885    6.7649 H         1 RES1    0.0000
     66 H36        2.0380   12.5586    6.0700 H         1 RES1    0.0000
     67 H37        1.4389   12.6642    7.5147 H         1 RES1    0.0000
     68 C27        5.3728   10.2173    7.2213 C.3       1 RES1    0.0000
     69 H38        5.8244    9.6715    6.5713 H         1 RES1    0.0000
     70 H39        5.3117    9.7394    8.0514 H         1 RES1    0.0000
     71 H40        5.8664   11.0284    7.3565 H         1 RES1    0.0000
     72 C28        1.7087    9.3402    4.1757 C.2       1 RES1    0.0000
     73 C29        5.7092    5.3450    5.3569 C.3       1 RES1    0.0000
     74 H41        5.8368    4.7038    4.6544 H         1 RES1    0.0000
     75 H42        5.7099    4.8961    6.2045 H         1 RES1    0.0000
     76 H43        6.4218    5.9891    5.3364 H         1 RES1    0.0000
     77 C30        3.2307    5.0785    5.4365 C.3       1 RES1    0.0000
     78 H44        3.3223    4.3156    4.8599 H         1 RES1    0.0000
     79 H45        2.3867    5.5067    5.2708 H         1 RES1    0.0000
     80 H46        3.2714    4.7943    6.3518 H         1 RES1    0.0000
     81 C31        0.5153   10.9078    2.8656 C.3       1 RES1    0.0000
     82 H47       -0.0517   10.2896    2.3988 H         1 RES1    0.0000
     83 H48        0.6946   11.6654    2.3030 H         1 RES1    0.0000
     84 H49        0.0757   11.2018    3.6670 H         1 RES1    0.0000
     85 O4        -2.8067   -1.5009   19.1860 O.3       2 RES2    0.0000
     86 H50       -3.3002   -1.9976   19.6106 H         2 RES2    0.0000
     87 O5         2.7698    3.7955   10.2409 O.2       2 RES2    0.0000
     88 O6         1.7952    2.5517    8.6971 O.3       2 RES2    0.0000
     89 N2        -2.4909   -2.0964   17.9475 N.2       2 RES2    0.0000
     90 C32       -0.5705    0.6822   16.7836 C.3       2 RES2    0.0000
     91 H51        0.0137    1.3795   17.1226 H         2 RES2    0.0000
     92 H52       -1.4379    1.0817   16.6138 H         2 RES2    0.0000
     93 C33       -0.7272   -0.3912   17.8540 C.3       2 RES2    0.0000
     94 H53        0.1508   -0.6973   18.1305 H         2 RES2    0.0000
     95 H54       -1.1673   -0.0075   18.6296 H         2 RES2    0.0000
     96 C34       -1.5239   -1.5540   17.3560 C.2       2 RES2    0.0000
     97 C35       -1.1121   -2.1831   16.0275 C.3       2 RES2    0.0000
     98 C36       -0.8929   -1.0199   15.0107 C.3       2 RES2    0.0000
     99 H55       -1.7822   -0.6257   14.8916 H         2 RES2    0.0000
    100 C37       -0.4876   -1.4831   13.6126 C.3       2 RES2    0.0000
    101 H56        0.4595   -1.6923   13.6008 H         2 RES2    0.0000
    102 H57       -0.9769   -2.2878   13.3814 H         2 RES2    0.0000
    103 C38       -0.7853   -0.3935   12.5963 C.3       2 RES2    0.0000
    104 H58       -1.7385   -0.2148   12.5940 H         2 RES2    0.0000
    105 H59       -0.5404   -0.7086   11.7119 H         2 RES2    0.0000
    106 C39       -0.0283    0.9148   12.8903 C.3       2 RES2    0.0000
    107 C40       -0.1829    1.2879   14.3896 C.3       2 RES2    0.0000
    108 H60       -1.1193    1.5642   14.4796 H         2 RES2    0.0000
    109 C41        0.0008    0.1579   15.4591 C.3       2 RES2    0.0000
    110 C42        0.6226    2.5528   14.6997 C.3       2 RES2    0.0000
    111 H61        0.2341    2.9851   15.4757 H         2 RES2    0.0000
    112 H62        1.5291    2.2954   14.9303 H         2 RES2    0.0000
    113 C43        0.6746    3.5388   13.5728 C.2       2 RES2    0.0000
    114 H63        1.1122    4.3420   13.7342 H         2 RES2    0.0000
    115 C44        0.1548    3.3696   12.3714 C.2       2 RES2    0.0000
    116 C45       -0.6375    2.1088   12.0497 C.3       2 RES2    0.0000
    117 C46       -0.5840    1.7858   10.5383 C.3       2 RES2    0.0000
    118 H64        0.2530    1.3343   10.3458 H         2 RES2    0.0000
    119 H65       -1.3039    1.1722   10.3254 H         2 RES2    0.0000
    120 C47       -0.7009    3.0051    9.6379 C.3       2 RES2    0.0000
    121 H66       -1.5686    3.4186    9.7703 H         2 RES2    0.0000
    122 H67       -0.6432    2.7251    8.7108 H         2 RES2    0.0000
    123 C48        0.3936    4.0333    9.9205 C.3       2 RES2    0.0000
    124 C49        0.2574    4.5173   11.3799 C.3       2 RES2    0.0000
    125 H68        1.0704    5.0204   11.5979 H         2 RES2    0.0000
    126 C50       -0.9347    5.4765   11.5504 C.3       2 RES2    0.0000
    127 H69       -1.7534    4.9714   11.4280 H         2 RES2    0.0000
    128 H70       -0.9315    5.8082   12.4617 H         2 RES2    0.0000
    129 C51       -0.9615    6.6755   10.5997 C.3       2 RES2    0.0000
    130 C52       -0.8484    6.1523    9.1787 C.3       2 RES2    0.0000
    131 H71       -1.6586    5.6650    8.9604 H         2 RES2    0.0000
    132 H72       -0.7850    6.9050    8.5720 H         2 RES2    0.0000
    133 C53        0.3448    5.2421    8.9540 C.3       2 RES2    0.0000
    134 H73        1.1581    5.7592    9.0593 H         2 RES2    0.0000
    135 H74        0.3200    4.9149    8.0417 H         2 RES2    0.0000
    136 C54        0.1435   -3.0549   16.2868 C.3       2 RES2    0.0000
    137 H75        0.7801   -2.5554   16.8020 H         2 RES2    0.0000
    138 H76        0.5363   -3.3055   15.4488 H         2 RES2    0.0000
    139 H77       -0.1095   -3.8445   16.7719 H         2 RES2    0.0000
    140 C55       -2.2306   -3.0861   15.4994 C.3       2 RES2    0.0000
    141 H78       -2.4030   -3.7879   16.1329 H         2 RES2    0.0000
    142 H79       -1.9633   -3.4713   14.6614 H         2 RES2    0.0000
    143 H80       -3.0280   -2.5668   15.3724 H         2 RES2    0.0000
    144 C56        1.4757   -0.2314   15.6758 C.3       2 RES2    0.0000
    145 H81        2.0207    0.5578   15.6596 H         2 RES2    0.0000
    146 H82        1.7551   -0.8292   14.9777 H         2 RES2    0.0000
    147 H83        1.5697   -0.6671   16.5256 H         2 RES2    0.0000
    148 C57        1.4572    0.7056   12.5090 C.3       2 RES2    0.0000
    149 H84        1.9562    1.5001   12.7188 H         2 RES2    0.0000
    150 H85        1.5233    0.5239   11.5689 H         2 RES2    0.0000
    151 H86        1.8126   -0.0377   13.0038 H         2 RES2    0.0000
    152 C58       -2.1202    2.3715   12.4068 C.3       2 RES2    0.0000
    153 H87       -2.1704    2.8231   13.2534 H         2 RES2    0.0000
    154 H88       -2.5892    1.5378   12.4595 H         2 RES2    0.0000
    155 H89       -2.5200    2.9211   11.7281 H         2 RES2    0.0000
    156 C59        1.7702    3.4521    9.6840 C.2       2 RES2    0.0000
    157 C60       -2.2967    7.4070   10.7610 C.3       2 RES2    0.0000
    158 H90       -2.3442    8.1299   10.1296 H         2 RES2    0.0000
    159 H91       -2.3648    7.7568   11.6517 H         2 RES2    0.0000
    160 H92       -3.0183    6.7957   10.6008 H         2 RES2    0.0000
    161 C61        0.1738    7.6520   10.9245 C.3       2 RES2    0.0000
    162 H93        1.0192    7.2216   10.7793 H         2 RES2    0.0000
    163 H94        0.1083    7.9264   11.8421 H         2 RES2    0.0000
    164 H95        0.1060    8.4239   10.3555 H         2 RES2    0.0000
    165 C62        3.0658    1.9558    8.3773 C.3       2 RES2    0.0000
    166 H96        3.6907    2.6421    8.1375 H         2 RES2    0.0000
    167 H97        2.9589    1.3493    7.6405 H         2 RES2    0.0000
    168 H98        3.3956    1.4775    9.1411 H         2 RES2    0.0000
@<TRIPOS>BOND
     1    1    2 1
     2    3   72 2
     3    4   72 1
     4    5    1 1
     5    6    7 1
     6    8    6 1
     7    9    6 1
     8   10    9 1
     9   11    9 1
    10   12    5 2
    11   13   12 1
    12   14   13 1
    13   15   14 1
    14   16   14 1
    15   17   16 1
    16   18   16 1
    17   19   16 1
    18   20   19 1
    19   21   19 1
    20   22   19 1
    21   23   22 1
    22   24   23 1
    23   25    6 1
    24   26   23 1
    25   27   26 1
    26   28   26 1
    27   29   26 1
    28   30   29 1
    29   31   29 2
    30   32   22 1
    31   33   32 1
    32   34   33 1
    33   35   33 1
    34   36   33 1
    35   37   36 1
    36   38   36 1
    37   39   36 1
    38   40   31 1
    39   41   40 1
    40   42   40 1
    41   43   42 1
    42   44   42 1
    43   45   42 1
    44   46   45 1
    45   47   46 1
    46   48   46 1
    47   49   39 1
    48   50   49 1
    49   51   49 1
    50   52   13 1
    51   53   52 1
    52   54   52 1
    53   55   52 1
    54   56   13 1
    55   57   56 1
    56   58   56 1
    57   59   56 1
    58   60   25 1
    59   61   60 1
    60   62   60 1
    61   63   60 1
    62   64   22 1
    63   65   64 1
    64   66   64 1
    65   67   64 1
    66   68   32 1
    67   69   68 1
    68   70   68 1
    69   71   68 1
    70   72   39 1
    71   73   45 1
    72   74   73 1
    73   75   73 1
    74   76   73 1
    75   77   45 1
    76   78   77 1
    77   79   77 1
    78   80   77 1
    79   81    4 1
    80   82   81 1
    81   83   81 1
    82   84   81 1
    83   85   86 1
    84   87  156 2
    85   88  156 1
    86   89   85 1
    87   90   91 1
    88   92   90 1
    89   93   90 1
    90   94   93 1
    91   95   93 1
    92   96   89 2
    93   97   96 1
    94   98   97 1
    95   99   98 1
    96  100   98 1
    97  101  100 1
    98  102  100 1
    99  103  100 1
   100  104  103 1
   101  105  103 1
   102  106  103 1
   103  107  106 1
   104  108  107 1
   105  109   90 1
   106  110  107 1
   107  111  110 1
   108  112  110 1
   109  113  110 1
   110  114  113 1
   111  115  113 2
   112  116  106 1
   113  117  116 1
   114  118  117 1
   115  119  117 1
   116  120  117 1
   117  121  120 1
   118  122  120 1
   119  123  120 1
   120  124  115 1
   121  125  124 1
   122  126  124 1
   123  127  126 1
   124  128  126 1
   125  129  126 1
   126  130  129 1
   127  131  130 1
   128  132  130 1
   129  133  123 1
   130  134  133 1
   131  135  133 1
   132  136   97 1
   133  137  136 1
   134  138  136 1
   135  139  136 1
   136  140   97 1
   137  141  140 1
   138  142  140 1
   139  143  140 1
   140  144  109 1
   141  145  144 1
   142  146  144 1
   143  147  144 1
   144  148  106 1
   145  149  148 1
   146  150  148 1
   147  151  148 1
   148  152  116 1
   149  153  152 1
   150  154  152 1
   151  155  152 1
   152  156  123 1
   153  157  129 1
   154  158  157 1
   155  159  157 1
   156  160  157 1
   157  161  129 1
   158  162  161 1
   159  163  161 1
   160  164  161 1
   161  165   88 1
   162  166  165 1
   163  167  165 1
   164  168  165 1
   165    9   12 1
   166   14   25 1
   167   23   25 1
   168   31   32 1
   169   39   40 1
   170   46   49 1
   171   93   96 1
   172   98  109 1
   173  107  109 1
   174  115  116 1
   175  123  124 1
   176  130  133 1
@<TRIPOS>SUBSTRUCTURE
     1 RES1 1
     2 RES2 85

@<TRIPOS>CRYSIN
   6.9744   37.6910   10.7751  90.0000  93.3460  90.0000   4 1

