# MOL2 file generated by ConQuest
# Please check atom types

@<TRIPOS>MOLECULE
HIMWIJ02
    28    21     2
SMALL
NO_CHARGES
****
Generated from CSD

@<TRIPOS>ATOM
      1 C1         1.8686    0.0108    5.9669 C.ar      1 RES1    0.0000
      2 C2         0.6396   -0.2483    5.5438 C.ar      1 RES1    0.0000
      3 C3        -0.0737    1.0187    5.4347 C.ar      1 RES1    0.0000
      4 C4         0.4738    2.2506    5.7486 C.ar      1 RES1    0.0000
      5 C5         1.7667    2.3114    6.1936 C.ar      1 RES1    0.0000
      6 C6         2.5539    1.1806    6.2652 C.ar      1 RES1    0.0000
      7 C7        -0.2675    3.5122    5.6862 C.2       1 RES1    0.0000
      8 C8        -1.4805    3.7011    5.2532 C.2       1 RES1    0.0000
      9 C9        -1.9659    5.1651    5.2384 C.ar      1 RES1    0.0000
     10 C10       -3.2647    5.0464    4.7466 C.ar      1 RES1    0.0000
     11 C11       -4.0640    6.1461    4.5630 C.ar      1 RES1    0.0000
     12 C12       -3.5536    7.3888    4.8692 C.ar      1 RES1    0.0000
     13 C13       -2.2832    7.5318    5.3482 C.ar      1 RES1    0.0000
     14 C14       -1.5122    6.4254    5.5275 C.ar      1 RES1    0.0000
     15 N1        -4.3793    8.5735    4.6863 N.pl3     1 RES1    0.0000
     16 O1        -5.5392    8.4196    4.3646 O.2       1 RES1    0.0000
     17 O2        -3.8665    9.6704    4.8805 O.2       1 RES1    0.0000
     18 O3         2.8232   -1.1510    6.0498 O.3       1 RES1    0.0000
     19 O4         0.3466   -1.6165    5.3588 O.3       1 RES1    0.0000
     20 C15       -0.9962   -1.9713    5.0662 C.3       1 RES1    0.0000
     21 C16        2.0547   -0.1741    5.8974 Du        2 SUP2    0.0000
     22 C17        0.6576   -0.3508    5.5310 Du        2 SUP2    0.0000
     23 C18       -0.3064    0.5451    5.3206 Du        2 SUP2    0.0000
     24 C19        0.0361    1.8701    5.5112 Du        2 SUP2    0.0000
     25 C20        1.3301    2.1764    5.8924 Du        2 SUP2    0.0000
     26 C21        2.2654    1.1874    6.0817 Du        2 SUP2    0.0000
     27 C22       -0.9479    2.9307    5.2936 Du        2 SUP2    0.0000
     28 C23       -0.8110    4.2328    5.5771 Du        2 SUP2    0.0000
@<TRIPOS>BOND
     1    1    2 ar
     2    2    3 ar
     3    3    4 ar
     4    4    5 ar
     5    5    6 ar
     6    6    1 ar
     7    7    4 1
     8    8    7 2
     9    9    8 1
    10   10    9 ar
    11   11   10 ar
    12   12   11 ar
    13   13   12 ar
    14   14    9 ar
    15   15   12 1
    16   16   15 2
    17   17   15 2
    18   18    1 1
    19   19    2 1
    20   20   19 1
    21   13   14 ar
@<TRIPOS>SUBSTRUCTURE
     1 RES1 1
     2 SUP2 21

@<TRIPOS>CRYSIN
   6.9302   13.4930    7.2470  90.0000 102.0800  90.0000   4 1

