# MOL2 file generated by ConQuest
# Please check atom types

@<TRIPOS>MOLECULE
HIMWIJ
    20    21     1
SMALL
NO_CHARGES
****
Generated from CSD

@<TRIPOS>ATOM
      1 C1         5.5083    9.5519   10.8005 C.ar      1 RES1    0.0000
      2 C2         6.1730    8.3504   10.5743 C.ar      1 RES1    0.0000
      3 C3         6.1129    7.3514   11.5188 C.ar      1 RES1    0.0000
      4 C4         5.3794    7.5096   12.6945 C.ar      1 RES1    0.0000
      5 C5         4.6913    8.7058   12.8814 C.ar      1 RES1    0.0000
      6 C6         4.7631    9.7129   11.9394 C.ar      1 RES1    0.0000
      7 C7         5.3521    6.4100   13.6587 C.2       1 RES1    0.0000
      8 C8         4.7264    6.3416   14.8295 C.2       1 RES1    0.0000
      9 C9         4.7686    5.2138   15.7544 C.ar      1 RES1    0.0000
     10 C10        5.3818    4.0056   15.4420 C.ar      1 RES1    0.0000
     11 C11        5.4544    2.9770   16.3422 C.ar      1 RES1    0.0000
     12 C12        4.9092    3.1473   17.5918 C.ar      1 RES1    0.0000
     13 C13        4.2687    4.3100   17.9386 C.ar      1 RES1    0.0000
     14 C14        4.1992    5.3265   17.0187 C.ar      1 RES1    0.0000
     15 N1         5.0522    2.0745   18.5757 N.pl3     1 RES1    0.0000
     16 O1         5.5505    1.0232   18.2239 O.2       1 RES1    0.0000
     17 O2         4.6515    2.2703   19.7170 O.2       1 RES1    0.0000
     18 O3         5.5677   10.5671    9.8929 O.3       1 RES1    0.0000
     19 O4         6.8487    8.2847    9.3813 O.3       1 RES1    0.0000
     20 C15        7.2056    7.0054    8.8894 C.3       1 RES1    0.0000
@<TRIPOS>BOND
     1    1    2 ar
     2    2    3 ar
     3    3    4 ar
     4    4    5 ar
     5    5    6 ar
     6    6    1 ar
     7    7    4 1
     8    8    7 2
     9    9    8 1
    10   10    9 ar
    11   11   10 ar
    12   12   11 ar
    13   13   12 ar
    14   14    9 ar
    15   15   12 1
    16   16   15 2
    17   17   15 2
    18   18    1 1
    19   19    2 1
    20   20   19 1
    21   13   14 ar
@<TRIPOS>SUBSTRUCTURE
     1 RES1 1

@<TRIPOS>CRYSIN
   7.8110   13.4100   24.5970  90.0000  90.0000  90.0000  61 1

