# MOL2 file generated by ConQuest
# Please check atom types

@<TRIPOS>MOLECULE
HIPSUU
    42    45     1
SMALL
NO_CHARGES
****
Generated from CSD

@<TRIPOS>ATOM
      1 O1         7.7771    0.9625    7.8661 O.3       1 RES1    0.0000
      2 O2        11.2651    1.0157    8.1908 O.2       1 RES1    0.0000
      3 O3         9.7914   -0.5174    8.6018 O.2       1 RES1    0.0000
      4 N1        10.1194    0.5898    8.2285 N.pl3     1 RES1    0.0000
      5 N2         5.2176    2.6067    8.5173 N.pl3     1 RES1    0.0000
      6 C1         5.6008    1.9517    7.2709 C.3       1 RES1    0.0000
      7 C2         6.3228    3.1821    9.2479 C.3       1 RES1    0.0000
      8 C3         7.4750    3.2277    8.2430 C.3       1 RES1    0.0000
      9 C4         8.9239    2.8332    8.6898 C.3       1 RES1    0.0000
     10 C5         9.0621    1.5462    7.7657 C.3       1 RES1    0.0000
     11 C6         9.1635    1.9272    6.3086 C.2       1 RES1    0.0000
     12 C7         7.9261    2.2645    5.9784 C.2       1 RES1    0.0000
     13 C8         7.0997    2.0975    7.2380 C.3       1 RES1    0.0000
     14 C9         9.0501    2.4269   10.1514 C.3       1 RES1    0.0000
     15 C10        9.9343    3.9295    8.3553 C.3       1 RES1    0.0000
     16 C11        3.9406    2.5282    9.0400 C.ar      1 RES1    0.0000
     17 C12        2.9055    1.8719    8.3517 C.ar      1 RES1    0.0000
     18 C13        1.6206    1.8344    8.8774 C.ar      1 RES1    0.0000
     19 C14        1.3007    2.4394   10.0768 C.ar      1 RES1    0.0000
     20 C15        2.3318    3.0732   10.7740 C.ar      1 RES1    0.0000
     21 C16        3.6259    3.1203   10.2645 C.ar      1 RES1    0.0000
     22 C17       -0.1103    2.4603   10.6286 C.3       1 RES1    0.0000
     23 H1        -0.6058    1.5136   10.4708 H         1 RES1    0.0000
     24 H2         9.9799    1.9486    5.7286 H         1 RES1    0.0000
     25 H3         7.5854    2.6667    5.1245 H         1 RES1    0.0000
     26 H4         3.0791    1.4571    7.4071 H         1 RES1    0.0000
     27 H5         0.8966    1.3782    8.2567 H         1 RES1    0.0000
     28 H6         2.1668    3.6133   11.7256 H         1 RES1    0.0000
     29 H7         4.2892    3.6364   10.7971 H         1 RES1    0.0000
     30 H8         5.1729    2.3799    6.4696 H         1 RES1    0.0000
     31 H9         5.3400    0.8857    7.3077 H         1 RES1    0.0000
     32 H10        6.0505    4.0074    9.7408 H         1 RES1    0.0000
     33 H11        6.5219    2.4861   10.0477 H         1 RES1    0.0000
     34 H12        7.4625    4.0852    7.7529 H         1 RES1    0.0000
     35 H13        8.3566    1.6570   10.3335 H         1 RES1    0.0000
     36 H14        8.7493    3.0828   10.7709 H         1 RES1    0.0000
     37 H15       10.0277    2.1766   10.2917 H         1 RES1    0.0000
     38 H16        9.8880    4.3274    7.3954 H         1 RES1    0.0000
     39 H17        9.7437    4.7692    8.9011 H         1 RES1    0.0000
     40 H18       10.8836    3.6752    8.5501 H         1 RES1    0.0000
     41 H19       -0.7615    3.0109   10.0779 H         1 RES1    0.0000
     42 H20       -0.1817    2.4200   11.7773 H         1 RES1    0.0000
@<TRIPOS>BOND
     1    1   10 1
     2    2    4 2
     3    3    4 2
     4    4   10 1
     5    5    6 1
     6    6   13 1
     7    7    5 1
     8    8    7 1
     9    9    8 1
    10   10    9 1
    11   11   10 1
    12   12   11 2
    13   13    1 1
    14   14    9 1
    15   15    9 1
    16   16    5 1
    17   17   16 ar
    18   18   17 ar
    19   19   18 ar
    20   20   19 ar
    21   21   16 ar
    22   22   19 1
    23   23   22 1
    24   24   11 1
    25   25   12 1
    26   26   17 1
    27   27   18 1
    28   28   20 1
    29   29   21 1
    30   30    6 1
    31   31    6 1
    32   32    7 1
    33   33    7 1
    34   34    8 1
    35   35   14 1
    36   36   14 1
    37   37   14 1
    38   38   15 1
    39   39   15 1
    40   40   15 1
    41   41   22 1
    42   42   22 1
    43    8   13 1
    44   12   13 1
    45   20   21 ar
@<TRIPOS>SUBSTRUCTURE
     1 RES1 1

@<TRIPOS>CRYSIN
  13.4650    7.8590   14.8190  90.0000 106.0500  90.0000  14 1

