# MOL2 file generated by ConQuest
# Please check atom types

@<TRIPOS>MOLECULE
HIPXIN
    29    29     1
SMALL
NO_CHARGES
****
Generated from CSD

@<TRIPOS>ATOM
      1 N1         0.4668    1.6759    7.9736 N.2       1 RES1    0.0000
      2 O1        -0.9329    1.8703    7.9173 O.3       1 RES1    0.0000
      3 O2         2.1089    5.8235    5.9847 O.3       1 RES1    0.0000
      4 H1         2.6683    6.0336    6.5364 H         1 RES1    0.0000
      5 C1         0.9915    1.5919    6.8117 C.2       1 RES1    0.0000
      6 C2         2.4644    1.3492    6.7756 C.3       1 RES1    0.0000
      7 H2         2.5982    0.4515    6.5250 H         1 RES1    0.0000
      8 H3         2.8377    1.4858    7.6793 H         1 RES1    0.0000
      9 C3         3.2421    2.2040    5.7823 C.3       1 RES1    0.0000
     10 H4         2.8832    2.0523    4.8629 H         1 RES1    0.0000
     11 H5         4.1968    1.9070    5.8217 H         1 RES1    0.0000
     12 C4         3.2338    3.6954    6.0362 C.3       1 RES1    0.0000
     13 H6         3.7747    4.1045    5.3610 H         1 RES1    0.0000
     14 H7         3.7161    3.8960    6.8881 H         1 RES1    0.0000
     15 C5         1.8910    4.4132    6.0290 C.3       1 RES1    0.0000
     16 H8         1.3861    4.1997    6.8734 H         1 RES1    0.0000
     17 C6         0.9840    4.0724    4.8480 C.3       1 RES1    0.0000
     18 H9         1.5270    3.7326    4.1205 H         1 RES1    0.0000
     19 H10        0.6194    4.9082    4.5731 H         1 RES1    0.0000
     20 C7        -0.1606    3.1163    5.1487 C.3       1 RES1    0.0000
     21 H11       -0.7440    3.0702    4.3712 H         1 RES1    0.0000
     22 H12       -0.7179    3.5135    5.8690 H         1 RES1    0.0000
     23 C8         0.2193    1.6883    5.5246 C.3       1 RES1    0.0000
     24 H13       -0.6037    1.1977    5.5955 H         1 RES1    0.0000
     25 H14        0.7618    1.2724    4.8238 H         1 RES1    0.0000
     26 C9        -1.4727    1.6689    9.2145 C.3       1 RES1    0.0000
     27 H15       -2.3891    1.7731    9.1787 H         1 RES1    0.0000
     28 H16       -1.2469    0.7060    9.5271 H         1 RES1    0.0000
     29 H17       -1.0538    2.2411    9.8966 H         1 RES1    0.0000
@<TRIPOS>BOND
     1    1    2 1
     2    2   26 1
     3    3    4 1
     4    5    1 2
     5    6    5 1
     6    7    6 1
     7    8    6 1
     8    9    6 1
     9   10    9 1
    10   11    9 1
    11   12    9 1
    12   13   12 1
    13   14   12 1
    14   15    3 1
    15   16   15 1
    16   17   15 1
    17   18   17 1
    18   19   17 1
    19   20   17 1
    20   21   20 1
    21   22   20 1
    22   23    5 1
    23   24   23 1
    24   25   23 1
    25   26   27 1
    26   28   26 1
    27   29   26 1
    28   12   15 1
    29   20   23 1
@<TRIPOS>SUBSTRUCTURE
     1 RES1 1

@<TRIPOS>CRYSIN
   7.2150    8.2090   16.5420  90.0000 100.2100  90.0000  14 1

