# MOL2 file generated by ConQuest
# Please check atom types

@<TRIPOS>MOLECULE
HIQLAU
    43    47     1
SMALL
NO_CHARGES
****
Generated from CSD

@<TRIPOS>ATOM
      1 O1         6.7783    8.3002   12.7976 O.3       1 RES1    0.0000
      2 O2         5.9088    4.8186    8.5275 O.3       1 RES1    0.0000
      3 O3         6.8160    1.5885   11.2204 O.3       1 RES1    0.0000
      4 N1         6.5915    2.7941   10.5228 N.2       1 RES1    0.0000
      5 C1         6.6629    7.4320   11.7258 C.ar      1 RES1    0.0000
      6 C2         6.4185    7.9658   10.4285 C.ar      1 RES1    0.0000
      7 C3         6.1861    7.0703    9.3432 C.ar      1 RES1    0.0000
      8 C4         6.1952    5.6712    9.5792 C.ar      1 RES1    0.0000
      9 C5         6.4922    5.1852   10.8281 C.ar      1 RES1    0.0000
     10 C6         6.6403    3.8036   11.3074 C.2       1 RES1    0.0000
     11 C7         6.9037    3.8077   12.7996 C.3       1 RES1    0.0000
     12 H1         7.7676    3.3929   13.0050 H         1 RES1    0.0000
     13 C8         5.7712    3.2053   13.6852 C.3       1 RES1    0.0000
     14 H2         5.7995    2.2337   13.8142 H         1 RES1    0.0000
     15 C9         4.4809    3.7587   13.1416 C.2       1 RES1    0.0000
     16 H3         3.8286    3.2841   12.6793 H         1 RES1    0.0000
     17 C10        4.4469    5.0622   13.4474 C.2       1 RES1    0.0000
     18 H4         3.7718    5.6608   13.2219 H         1 RES1    0.0000
     19 C11        5.6967    5.3834   14.2193 C.3       1 RES1    0.0000
     20 H5         5.6574    6.1846   14.7810 H         1 RES1    0.0000
     21 C12        6.8962    5.3149   13.2076 C.3       1 RES1    0.0000
     22 H6         7.7369    5.5640   13.6442 H         1 RES1    0.0000
     23 C13        6.7089    6.0770   11.9198 C.ar      1 RES1    0.0000
     24 C14        5.9226    4.0568   14.9587 C.3       1 RES1    0.0000
     25 H7         5.2391    3.8719   15.6217 H         1 RES1    0.0000
     26 H8         6.8049    3.9910   15.3561 H         1 RES1    0.0000
     27 C15        6.3820    9.3629   10.1810 C.ar      1 RES1    0.0000
     28 H9         6.5149    9.9594   10.8823 H         1 RES1    0.0000
     29 C16        6.1534    9.8364    8.9162 C.ar      1 RES1    0.0000
     30 H10        6.1365   10.7542    8.7643 H         1 RES1    0.0000
     31 C17        5.9452    8.9570    7.8510 C.ar      1 RES1    0.0000
     32 H11        5.8031    9.2942    6.9959 H         1 RES1    0.0000
     33 C18        5.9485    7.6146    8.0516 C.ar      1 RES1    0.0000
     34 H12        5.7938    7.0430    7.3341 H         1 RES1    0.0000
     35 C19        8.0888    8.6075   13.2123 C.3       1 RES1    0.0000
     36 H13        8.0542    9.1850   13.9785 H         1 RES1    0.0000
     37 H14        8.5547    9.0504   12.4997 H         1 RES1    0.0000
     38 H15        8.5506    7.7984   13.4426 H         1 RES1    0.0000
     39 C20        4.5241    4.4683    8.4758 C.3       1 RES1    0.0000
     40 H16        4.3839    3.8163    7.7851 H         1 RES1    0.0000
     41 H17        4.0021    5.2513    8.2866 H         1 RES1    0.0000
     42 H18        4.2548    4.1008    9.3212 H         1 RES1    0.0000
     43 H19        6.8284    1.0209   10.4992 H         1 RES1    0.0000
@<TRIPOS>BOND
     1    1    5 1
     2    2    8 1
     3    3    4 1
     4    4   10 2
     5    5    6 ar
     6    6    7 ar
     7    7    8 ar
     8    8    9 ar
     9    9   10 1
    10   10   11 1
    11   11   12 1
    12   13   11 1
    13   14   13 1
    14   15   13 1
    15   16   15 1
    16   17   15 2
    17   18   17 1
    18   19   17 1
    19   20   19 1
    20   21   11 1
    21   22   21 1
    22   23    5 ar
    23   24   13 1
    24   25   24 1
    25   26   24 1
    26   27    6 ar
    27   28   27 1
    28   29   27 ar
    29   30   29 1
    30   31   29 ar
    31   32   31 1
    32   33    7 ar
    33   34   33 1
    34   35    1 1
    35   36   35 1
    36   37   35 1
    37   38   35 1
    38   39    2 1
    39   40   39 1
    40   41   39 1
    41   42   39 1
    42   43    3 1
    43    9   23 ar
    44   19   21 1
    45   19   24 1
    46   21   23 1
    47   31   33 ar
@<TRIPOS>SUBSTRUCTURE
     1 RES1 1

@<TRIPOS>CRYSIN
   8.8166    9.9326    9.9764  76.8750  76.5820  74.3310   2 1

