# MOL2 file generated by ConQuest
# Please check atom types

@<TRIPOS>MOLECULE
HIQMID
    55    58     1
SMALL
NO_CHARGES
****
Generated from CSD

@<TRIPOS>ATOM
      1 O1         5.8614    3.3697    8.1837 O.2       1 RES1    0.0000
      2 O2        -0.0241    3.3580    9.7404 O.2       1 RES1    0.0000
      3 O3         1.1639    1.9239    8.6884 O.2       1 RES1    0.0000
      4 O4         5.0795   -0.4693   11.4433 O.2       1 RES1    0.0000
      5 N1         7.9032    3.1618   12.4053 N.3       1 RES1    0.0000
      6 N2         1.0170    2.7439    9.5680 N.pl3     1 RES1    0.0000
      7 C1         6.7366    3.7729    8.9687 C.2       1 RES1    0.0000
      8 C2         4.4634    2.7458   10.9824 C.ar      1 RES1    0.0000
      9 C3         7.7526    4.7889    8.5488 C.3       1 RES1    0.0000
     10 C4         3.3782    2.4480   10.1755 C.ar      1 RES1    0.0000
     11 C5         8.2402    5.6998    9.6700 C.3       1 RES1    0.0000
     12 C6         2.1564    3.0412   10.4593 C.ar      1 RES1    0.0000
     13 C7         8.7197    4.8127   10.8194 C.3       1 RES1    0.0000
     14 C8         1.9614    3.9033   11.4996 C.ar      1 RES1    0.0000
     15 C9         7.7608    3.7153   11.1560 C.2       1 RES1    0.0000
     16 C10        7.7555    1.3472   14.0248 C.3       1 RES1    0.0000
     17 C11        3.0438    4.2005   12.3007 C.ar      1 RES1    0.0000
     18 C12        6.7889    0.2871   14.5690 C.3       1 RES1    0.0000
     19 C13        4.2780    3.6246   12.0333 C.ar      1 RES1    0.0000
     20 C14        6.4080   -0.6342   13.4231 C.3       1 RES1    0.0000
     21 C15        5.8689    0.0771   12.2092 C.2       1 RES1    0.0000
     22 C16        6.3693    1.4179   11.9266 C.2       1 RES1    0.0000
     23 C17        5.8457    2.1548   10.7092 C.3       1 RES1    0.0000
     24 C18        6.8303    3.2311   10.3022 C.2       1 RES1    0.0000
     25 C19        7.2922    1.9715   12.7428 C.2       1 RES1    0.0000
     26 C20        7.1053    6.6143   10.1192 C.3       1 RES1    0.0000
     27 C21        9.4213    6.5447    9.1669 C.3       1 RES1    0.0000
     28 C22        5.5287    0.9429   15.1389 C.3       1 RES1    0.0000
     29 C23        7.4890   -0.5016   15.6761 C.3       1 RES1    0.0000
     30 H1         8.3852    3.5668   12.9913 H         1 RES1    0.0000
     31 H2         3.4661    1.8632    9.4572 H         1 RES1    0.0000
     32 H3         7.3681    5.3384    7.8483 H         1 RES1    0.0000
     33 H4         8.5159    4.3247    8.1721 H         1 RES1    0.0000
     34 H5         1.1267    4.2776   11.6627 H         1 RES1    0.0000
     35 H6         9.5739    4.4215   10.5799 H         1 RES1    0.0000
     36 H7         8.8561    5.3635   11.6058 H         1 RES1    0.0000
     37 H8         2.9475    4.7846   13.0173 H         1 RES1    0.0000
     38 H9         7.8662    2.0433   14.6912 H         1 RES1    0.0000
     39 H10        8.6220    0.9367   13.8792 H         1 RES1    0.0000
     40 H11        5.0018    3.8372   12.5778 H         1 RES1    0.0000
     41 H12        7.1895   -1.1454   13.1620 H         1 RES1    0.0000
     42 H13        5.7382   -1.2617   13.7375 H         1 RES1    0.0000
     43 H14        5.7666    1.5144    9.9718 H         1 RES1    0.0000
     44 H15        6.8094    7.1459    9.3772 H         1 RES1    0.0000
     45 H16        7.4161    7.1889   10.8221 H         1 RES1    0.0000
     46 H17        6.3742    6.0808   10.4421 H         1 RES1    0.0000
     47 H18        9.1426    7.0641    8.4096 H         1 RES1    0.0000
     48 H19       10.1422    5.9653    8.9104 H         1 RES1    0.0000
     49 H20        9.7155    7.1313    9.8673 H         1 RES1    0.0000
     50 H21        5.1014    1.4616   14.4534 H         1 RES1    0.0000
     51 H22        5.7696    1.5149   15.8707 H         1 RES1    0.0000
     52 H23        4.9266    0.2624   15.4480 H         1 RES1    0.0000
     53 H24        6.8945   -1.1755   16.0144 H         1 RES1    0.0000
     54 H25        7.7345    0.0946   16.3875 H         1 RES1    0.0000
     55 H26        8.2774   -0.9191   15.3219 H         1 RES1    0.0000
@<TRIPOS>BOND
     1    1    7 2
     2    2    6 2
     3    3    6 2
     4    4   21 2
     5    5   15 1
     6    6   12 1
     7    7    9 1
     8    8   10 ar
     9    9   11 1
    10   10   12 ar
    11   11   13 1
    12   12   14 ar
    13   13   15 1
    14   14   17 ar
    15   15   24 2
    16   16   18 1
    17   17   19 ar
    18   18   20 1
    19   19    8 ar
    20   20   21 1
    21   21   22 1
    22   22   23 1
    23   23    8 1
    24   24    7 1
    25   25    5 1
    26   26   11 1
    27   27   11 1
    28   28   18 1
    29   29   18 1
    30   30    5 1
    31   31   10 1
    32   32    9 1
    33   33    9 1
    34   34   14 1
    35   35   13 1
    36   36   13 1
    37   37   17 1
    38   38   16 1
    39   39   16 1
    40   40   19 1
    41   41   20 1
    42   42   20 1
    43   43   23 1
    44   44   26 1
    45   45   26 1
    46   46   26 1
    47   47   27 1
    48   48   27 1
    49   49   27 1
    50   50   28 1
    51   51   28 1
    52   52   28 1
    53   53   29 1
    54   54   29 1
    55   55   29 1
    56   16   25 1
    57   22   25 2
    58   23   24 1
@<TRIPOS>SUBSTRUCTURE
     1 RES1 1

@<TRIPOS>CRYSIN
  11.8787   15.4830   12.3467  90.0000 108.2100  90.0000 231 1

