# MOL2 file generated by ConQuest
# Please check atom types

@<TRIPOS>MOLECULE
HIQVEI
    35    36     1
SMALL
NO_CHARGES
****
Generated from CSD

@<TRIPOS>ATOM
      1 N1         6.3418    3.8089    1.7583 N.am      1 RES1    0.0000
      2 C1         5.1750    3.6737    1.1081 C.2       1 RES1    0.0000
      3 O1         5.0691    3.9379   -0.0674 O.2       1 RES1    0.0000
      4 C2         4.0449    3.2391    1.9508 C.3       1 RES1    0.0000
      5 C3         4.4516    2.1649    2.9436 C.3       1 RES1    0.0000
      6 C4         5.6880    2.6094    3.6678 C.2       1 RES1    0.0000
      7 C5         6.5598    3.4262    3.0784 C.2       1 RES1    0.0000
      8 C6         4.6171    0.8279    2.2716 C.ar      1 RES1    0.0000
      9 C7         3.6073   -0.0923    2.1020 C.ar      1 RES1    0.0000
     10 C8         3.7909   -1.3039    1.4832 C.ar      1 RES1    0.0000
     11 C9         5.0057   -1.6197    0.9993 C.ar      1 RES1    0.0000
     12 C10        6.0286   -0.7508    1.1407 C.ar      1 RES1    0.0000
     13 C11        5.8385    0.4438    1.7812 C.ar      1 RES1    0.0000
     14 C12        5.9021    2.1127    5.0151 C.2       1 RES1    0.0000
     15 O2         6.6873    2.5159    5.8187 O.2       1 RES1    0.0000
     16 O3         5.0699    1.1080    5.2793 O.3       1 RES1    0.0000
     17 C13        5.1763    0.5045    6.5647 C.3       1 RES1    0.0000
     18 C14        7.8140    3.9672    3.6308 C.3       1 RES1    0.0000
     19 N2         2.2623    0.1677    2.6000 N.pl3     1 RES1    0.0000
     20 O4         1.6521   -0.7486    3.0502 O.2       1 RES1    0.0000
     21 O5         1.8007    1.2508    2.4782 O.2       1 RES1    0.0000
     22 H1         7.0625    4.1387    1.3049 H         1 RES1    0.0000
     23 H2         3.2769    2.9741    1.3875 H         1 RES1    0.0000
     24 H3         3.7477    4.0207    2.4521 H         1 RES1    0.0000
     25 H4         3.7435    2.1301    3.6080 H         1 RES1    0.0000
     26 H5         3.0529   -1.8819    1.5506 H         1 RES1    0.0000
     27 H6         5.0774   -2.4307    0.6318 H         1 RES1    0.0000
     28 H7         6.8622   -0.9694    0.8417 H         1 RES1    0.0000
     29 H8         6.5545    1.0176    1.8692 H         1 RES1    0.0000
     30 H9         6.1426    0.2253    6.5853 H         1 RES1    0.0000
     31 H10        4.9734    1.1113    7.2573 H         1 RES1    0.0000
     32 H11        4.6118   -0.2266    6.6081 H         1 RES1    0.0000
     33 H12        8.4577    4.2043    2.9980 H         1 RES1    0.0000
     34 H13        8.1609    3.5598    4.3148 H         1 RES1    0.0000
     35 H14        7.6358    4.8255    4.0821 H         1 RES1    0.0000
@<TRIPOS>BOND
     1    1    2 1
     2    2    3 2
     3    4    2 1
     4    5    4 1
     5    6    5 1
     6    7    1 1
     7    8    5 1
     8    9    8 ar
     9   10    9 ar
    10   11   10 ar
    11   12   11 ar
    12   13    8 ar
    13   14    6 1
    14   15   14 2
    15   16   14 1
    16   17   16 1
    17   18    7 1
    18   19    9 1
    19   20   19 2
    20   21   19 2
    21   22    1 1
    22   23    4 1
    23   24    4 1
    24   25    5 1
    25   26   10 1
    26   27   11 1
    27   28   12 1
    28   29   13 1
    29   30   17 1
    30   31   17 1
    31   32   17 1
    32   33   18 1
    33   34   18 1
    34   35   18 1
    35    6    7 2
    36   12   13 ar
@<TRIPOS>SUBSTRUCTURE
     1 RES1 1

@<TRIPOS>CRYSIN
   7.3280    8.7290   11.5130  95.8300 107.2700  97.3400   2 1

