# MOL2 file generated by ConQuest
# Please check atom types

@<TRIPOS>MOLECULE
HIRXOX
    38    38     1
SMALL
NO_CHARGES
****
Generated from CSD

@<TRIPOS>ATOM
      1 O1         1.5546   16.6419    3.3123 O.3       1 RES1    0.0000
      2 O2         1.3924   17.2721    1.1333 O.2       1 RES1    0.0000
      3 O3         1.7561   15.1460    1.7991 O.3       1 RES1    0.0000
      4 O4         7.0147    8.1197    2.5182 O.2       1 RES1    0.0000
      5 O5         5.3929    7.1484    1.4937 O.2       1 RES1    0.0000
      6 N1         3.5868   13.1269    0.9819 N.pl3     1 RES1    0.0000
      7 H1         4.0176   13.8275    1.2724 H         1 RES1    0.0000
      8 N2         5.9414    8.1655    1.9130 N.pl3     1 RES1    0.0000
      9 C1         1.4159   17.7226    5.3711 C.3       1 RES1    0.0000
     10 H2         0.6937   17.0972    5.5859 H         1 RES1    0.0000
     11 H3         1.2785   18.5616    5.8595 H         1 RES1    0.0000
     12 H4         2.2754   17.3308    5.6307 H         1 RES1    0.0000
     13 C2         2.6172   18.8383    3.4721 C.3       1 RES1    0.0000
     14 H5         3.4408   18.3695    3.7193 H         1 RES1    0.0000
     15 H6         2.5830   19.7026    3.9333 H         1 RES1    0.0000
     16 H7         2.6022   18.9841    2.5035 H         1 RES1    0.0000
     17 C3         0.0973   18.6193    3.4471 C.3       1 RES1    0.0000
     18 H8         0.1200   18.8000    2.4844 H         1 RES1    0.0000
     19 H9        -0.0448   19.4578    3.9340 H         1 RES1    0.0000
     20 H10       -0.6343   17.9982    3.6457 H         1 RES1    0.0000
     21 C4         1.4175   18.0009    3.8767 C.3       1 RES1    0.0000
     22 C5         1.5594   16.4537    1.9953 C.2       1 RES1    0.0000
     23 C6         1.8557   14.7391    0.4082 C.3       1 RES1    0.0000
     24 H11        2.5327   15.2855   -0.0647 H         1 RES1    0.0000
     25 H12        0.9843   14.8518   -0.0478 H         1 RES1    0.0000
     26 C7         2.2615   13.2936    0.4141 C.3       1 RES1    0.0000
     27 H13        1.6080   12.7697    0.9429 H         1 RES1    0.0000
     28 H14        2.2540   12.9457   -0.5126 H         1 RES1    0.0000
     29 C8         4.1482   11.9171    1.1981 C.ar      1 RES1    0.0000
     30 C9         5.3738   11.8243    1.9041 C.ar      1 RES1    0.0000
     31 H15        5.8023   12.6160    2.2086 H         1 RES1    0.0000
     32 C10        5.9481   10.6048    2.1527 C.ar      1 RES1    0.0000
     33 H16        6.7617   10.5499    2.6411 H         1 RES1    0.0000
     34 C11        5.3324    9.4488    1.6857 C.ar      1 RES1    0.0000
     35 C12        4.1354    9.5039    0.9760 C.ar      1 RES1    0.0000
     36 H17        3.7281    8.7062    0.6560 H         1 RES1    0.0000
     37 C13        3.5504   10.7250    0.7428 C.ar      1 RES1    0.0000
     38 H18        2.7286   10.7660    0.2670 H         1 RES1    0.0000
@<TRIPOS>BOND
     1    1   21 1
     2    2   22 2
     3    3   22 1
     4    4    8 2
     5    5    8 2
     6    6    7 1
     7    8   34 1
     8    9   10 1
     9   11    9 1
    10   12    9 1
    11   13   14 1
    12   15   13 1
    13   16   13 1
    14   17   18 1
    15   19   17 1
    16   20   17 1
    17   21    9 1
    18   22    1 1
    19   23    3 1
    20   24   23 1
    21   25   23 1
    22   26    6 1
    23   27   26 1
    24   28   26 1
    25   29    6 1
    26   30   29 ar
    27   31   30 1
    28   32   30 ar
    29   33   32 1
    30   34   32 ar
    31   35   34 ar
    32   36   35 1
    33   37   29 ar
    34   38   37 1
    35   13   21 1
    36   17   21 1
    37   23   26 1
    38   35   37 ar
@<TRIPOS>SUBSTRUCTURE
     1 RES1 1

@<TRIPOS>CRYSIN
  11.9007   16.0041    7.3763  90.0000  94.3870  90.0000  14 1

