# MOL2 file generated by ConQuest
# Please check atom types

@<TRIPOS>MOLECULE
HIRYAK
    54    56     1
SMALL
NO_CHARGES
****
Generated from CSD

@<TRIPOS>ATOM
      1 O1        -1.7426    1.6987   12.9371 O.3       1 RES1    0.0000
      2 O2        -1.2726    0.8546    8.6700 O.2       1 RES1    0.0000
      3 O3        -0.0801    0.8057    6.8764 O.2       1 RES1    0.0000
      4 N1        -0.2404    0.1914   10.9943 N.3       1 RES1    0.0000
      5 H1        -0.9719    0.4766   10.5406 H         1 RES1    0.0000
      6 N2        -0.1909    0.6424    8.0923 N.pl3     1 RES1    0.0000
      7 C1         0.8568   -0.0583   10.2425 C.ar      1 RES1    0.0000
      8 C2         2.0298   -0.5889   10.8433 C.ar      1 RES1    0.0000
      9 H2         2.0367   -0.7525   11.7788 H         1 RES1    0.0000
     10 C3         3.1508   -0.8709   10.1079 C.ar      1 RES1    0.0000
     11 H3         3.9079   -1.2457   10.5425 H         1 RES1    0.0000
     12 C4         3.2060   -0.6203    8.7361 C.ar      1 RES1    0.0000
     13 H4         3.9910   -0.8175    8.2395 H         1 RES1    0.0000
     14 C5         2.1096   -0.0852    8.1206 C.ar      1 RES1    0.0000
     15 H5         2.1407    0.1098    7.1917 H         1 RES1    0.0000
     16 C6         0.9393    0.1789    8.8452 C.ar      1 RES1    0.0000
     17 C7        -0.3032   -0.0997   12.4124 C.3       1 RES1    0.0000
     18 H6         0.4063    0.4051   12.8832 H         1 RES1    0.0000
     19 H7        -0.1383   -1.0652   12.5572 H         1 RES1    0.0000
     20 C8        -1.6417    0.2694   12.9889 C.3       1 RES1    0.0000
     21 H8        -2.3685   -0.1459   12.4611 H         1 RES1    0.0000
     22 H9        -1.7119   -0.0462   13.9254 H         1 RES1    0.0000
     23 C9        -2.8221    2.2964   13.5362 C.ar      1 RES1    0.0000
     24 C10       -2.8224    3.6837   13.5219 C.ar      1 RES1    0.0000
     25 H10       -2.1191    4.1603   13.0962 H         1 RES1    0.0000
     26 C11       -3.8602    4.3640   14.1346 C.ar      1 RES1    0.0000
     27 H11       -3.8602    5.3136   14.1346 H         1 RES1    0.0000
     28 C12       -3.8602    1.5873   14.1346 C.ar      1 RES1    0.0000
     29 H12       -3.8602    0.6377   14.1346 H         1 RES1    0.0000
     30 O1A       -5.9778    1.6987   15.3321 O.3       1 RES1    0.0000
     31 O2A       -6.4477    0.8546   19.5992 O.2       1 RES1    0.0000
     32 O3A       -7.6403    0.8057   21.3928 O.2       1 RES1    0.0000
     33 N1A       -7.4799    0.1914   17.2749 N.3       1 RES1    0.0000
     34 H1A       -6.7484    0.4766   17.7286 H         1 RES1    0.0000
     35 N2A       -7.5294    0.6424   20.1769 N.pl3     1 RES1    0.0000
     36 C1A       -8.5771   -0.0583   18.0267 C.ar      1 RES1    0.0000
     37 C2A       -9.7501   -0.5889   17.4259 C.ar      1 RES1    0.0000
     38 H2A       -9.7570   -0.7525   16.4904 H         1 RES1    0.0000
     39 C3A      -10.8711   -0.8709   18.1613 C.ar      1 RES1    0.0000
     40 H3A      -11.6282   -1.2457   17.7267 H         1 RES1    0.0000
     41 C4A      -10.9263   -0.6203   19.5331 C.ar      1 RES1    0.0000
     42 H4A      -11.7113   -0.8175   20.0297 H         1 RES1    0.0000
     43 C5A       -9.8299   -0.0852   20.1486 C.ar      1 RES1    0.0000
     44 H5A       -9.8610    0.1098   21.0775 H         1 RES1    0.0000
     45 C6A       -8.6596    0.1789   19.4240 C.ar      1 RES1    0.0000
     46 C7A       -7.4171   -0.0997   15.8568 C.3       1 RES1    0.0000
     47 H6A       -8.1266    0.4051   15.3860 H         1 RES1    0.0000
     48 H7A       -7.5821   -1.0652   15.7120 H         1 RES1    0.0000
     49 C8A       -6.0786    0.2694   15.2803 C.3       1 RES1    0.0000
     50 H8A       -5.3518   -0.1459   15.8081 H         1 RES1    0.0000
     51 H9A       -6.0084   -0.0462   14.3438 H         1 RES1    0.0000
     52 C9A       -4.8982    2.2964   14.7330 C.ar      1 RES1    0.0000
     53 C10A      -4.8979    3.6837   14.7473 C.ar      1 RES1    0.0000
     54 H10A      -5.6013    4.1603   15.1730 H         1 RES1    0.0000
@<TRIPOS>BOND
     1    1   20 1
     2    2    6 2
     3    3    6 2
     4    4    5 1
     5    6   16 1
     6    7    4 1
     7    8    7 ar
     8    9    8 1
     9   10    8 ar
    10   11   10 1
    11   12   10 ar
    12   13   12 1
    13   14   12 ar
    14   15   14 1
    15   16    7 ar
    16   17    4 1
    17   18   17 1
    18   19   17 1
    19   20   17 1
    20   21   20 1
    21   22   20 1
    22   23    1 1
    23   24   23 ar
    24   25   24 1
    25   26   24 ar
    26   27   26 1
    27   28   23 ar
    28   29   28 1
    29   30   49 1
    30   31   35 2
    31   32   35 2
    32   33   34 1
    33   35   45 1
    34   36   33 1
    35   37   36 ar
    36   38   37 1
    37   39   37 ar
    38   40   39 1
    39   41   39 ar
    40   42   41 1
    41   43   41 ar
    42   44   43 1
    43   45   36 ar
    44   46   33 1
    45   47   46 1
    46   48   46 1
    47   49   46 1
    48   50   49 1
    49   51   49 1
    50   52   28 ar
    51   53   26 ar
    52   54   53 1
    53   14   16 ar
    54   30   52 1
    55   43   45 ar
    56   52   53 ar
@<TRIPOS>SUBSTRUCTURE
     1 RES1 1

@<TRIPOS>CRYSIN
  14.6336    7.2215   19.5363  90.0000 105.2750  90.0000  15 1

