# MOL2 file generated by ConQuest
# Please check atom types

@<TRIPOS>MOLECULE
HIRZIS
    59    62     1
SMALL
NO_CHARGES
****
Generated from CSD

@<TRIPOS>ATOM
      1 O1        12.3073    2.7027    6.8585 O.3       1 RES1    0.0000
      2 O2        14.2093    3.7184    3.4234 O.3       1 RES1    0.0000
      3 O3        14.0180    5.6198    0.4996 O.2       1 RES1    0.0000
      4 N1         6.8047    7.6479    4.6283 N.pl3     1 RES1    0.0000
      5 N2        11.0437    3.3596    6.9576 N.2       1 RES1    0.0000
      6 N3        12.2558    4.1531    5.2065 N.2       1 RES1    0.0000
      7 N4        12.6081    5.2671    2.2641 N.am      1 RES1    0.0000
      8 H1        12.5887    5.0135    3.0850 H         1 RES1    0.0000
      9 C1         5.5284    7.5079    5.2596 C.3       1 RES1    0.0000
     10 H2         5.1393    6.6653    5.0122 H         1 RES1    0.0000
     11 H3         4.9514    8.2212    4.9773 H         1 RES1    0.0000
     12 H4         5.6373    7.5419    6.2126 H         1 RES1    0.0000
     13 C2         6.9176    8.5637    3.5448 C.3       1 RES1    0.0000
     14 H5         7.8443    8.6958    3.3324 H         1 RES1    0.0000
     15 H6         6.5238    9.4039    3.7937 H         1 RES1    0.0000
     16 H7         6.4611    8.2105    2.7785 H         1 RES1    0.0000
     17 C3         7.8610    6.8150    4.9622 C.ar      1 RES1    0.0000
     18 C4         9.1479    7.0409    4.4872 C.ar      1 RES1    0.0000
     19 H8         9.3150    7.7686    3.9333 H         1 RES1    0.0000
     20 C5        10.1794    6.1879    4.8332 C.ar      1 RES1    0.0000
     21 H9        11.0357    6.3586    4.5115 H         1 RES1    0.0000
     22 C6         9.9744    5.1030    5.6359 C.ar      1 RES1    0.0000
     23 C7         8.7090    4.8941    6.1200 C.ar      1 RES1    0.0000
     24 H10        8.5518    4.1702    6.6815 H         1 RES1    0.0000
     25 C8         7.6620    5.7323    5.7907 C.ar      1 RES1    0.0000
     26 H11        6.8139    5.5644    6.1336 H         1 RES1    0.0000
     27 C9        11.0913    4.1961    5.9531 C.2       1 RES1    0.0000
     28 C10       12.9615    3.2340    5.8195 C.2       1 RES1    0.0000
     29 C11       14.2940    2.7313    5.5312 C.ar      1 RES1    0.0000
     30 C12       14.9276    2.9918    4.3187 C.ar      1 RES1    0.0000
     31 C13       16.1951    2.5167    4.0502 C.ar      1 RES1    0.0000
     32 H12       16.6079    2.7061    3.2383 H         1 RES1    0.0000
     33 C14       16.8373    1.7600    5.0016 C.ar      1 RES1    0.0000
     34 H13       17.6914    1.4346    4.8301 H         1 RES1    0.0000
     35 C15       16.2435    1.4821    6.1837 C.ar      1 RES1    0.0000
     36 H14       16.6935    0.9649    6.8120 H         1 RES1    0.0000
     37 C16       14.9680    1.9576    6.4751 C.ar      1 RES1    0.0000
     38 H15       14.5692    1.7611    7.2930 H         1 RES1    0.0000
     39 C17       14.8280    4.3162    2.3005 C.3       1 RES1    0.0000
     40 H16       15.1752    3.6353    1.7026 H         1 RES1    0.0000
     41 H17       15.5628    4.8848    2.5812 H         1 RES1    0.0000
     42 C18       13.7628    5.1377    1.6025 C.2       1 RES1    0.0000
     43 C19       11.3971    5.7988    1.7026 C.ar      1 RES1    0.0000
     44 C20       10.3344    4.9148    1.5281 C.ar      1 RES1    0.0000
     45 C21        9.1609    5.4248    0.9788 C.ar      1 RES1    0.0000
     46 H18        8.4346    4.8611    0.8422 H         1 RES1    0.0000
     47 C22        9.0624    6.7504    0.6373 C.ar      1 RES1    0.0000
     48 H19        8.2760    7.0713    0.2595 H         1 RES1    0.0000
     49 C23       10.1061    7.6008    0.8468 C.ar      1 RES1    0.0000
     50 H20       10.0127    8.4977    0.6176 H         1 RES1    0.0000
     51 C24       11.3138    7.1612    1.3961 C.ar      1 RES1    0.0000
     52 C25       12.3997    8.1123    1.7163 C.3       1 RES1    0.0000
     53 H21       12.1569    8.9891    1.4097 H         1 RES1    0.0000
     54 H22       13.2080    7.8325    1.2808 H         1 RES1    0.0000
     55 H23       12.5377    8.1319    2.6647 H         1 RES1    0.0000
     56 C26       10.4190    3.4712    1.9363 C.3       1 RES1    0.0000
     57 H24       11.2955    3.2868    2.2808 H         1 RES1    0.0000
     58 H25       10.2504    2.9119    1.1745 H         1 RES1    0.0000
     59 H26        9.7639    3.2916    2.6146 H         1 RES1    0.0000
@<TRIPOS>BOND
     1    1    5 1
     2    2   30 1
     3    3   42 2
     4    4    9 1
     5    5   27 2
     6    6   27 1
     7    7    8 1
     8    9   10 1
     9   11    9 1
    10   12    9 1
    11   13    4 1
    12   14   13 1
    13   15   13 1
    14   16   13 1
    15   17    4 1
    16   18   17 ar
    17   19   18 1
    18   20   18 ar
    19   21   20 1
    20   22   20 ar
    21   23   22 ar
    22   24   23 1
    23   25   17 ar
    24   26   25 1
    25   27   22 1
    26   28    1 1
    27   29   28 1
    28   30   29 ar
    29   31   30 ar
    30   32   31 1
    31   33   31 ar
    32   34   33 1
    33   35   33 ar
    34   36   35 1
    35   37   29 ar
    36   38   37 1
    37   39    2 1
    38   40   39 1
    39   41   39 1
    40   42    7 1
    41   43    7 1
    42   44   43 ar
    43   45   44 ar
    44   46   45 1
    45   47   45 ar
    46   48   47 1
    47   49   47 ar
    48   50   49 1
    49   51   43 ar
    50   52   51 1
    51   53   52 1
    52   54   52 1
    53   55   52 1
    54   56   44 1
    55   57   56 1
    56   58   56 1
    57   59   56 1
    58    6   28 2
    59   23   25 ar
    60   35   37 ar
    61   39   42 1
    62   49   51 ar
@<TRIPOS>SUBSTRUCTURE
     1 RES1 1

@<TRIPOS>CRYSIN
   8.9900    9.0330   15.4450  83.0100  79.7600  66.5400   2 1

