# MOL2 file generated by ConQuest
# Please check atom types

@<TRIPOS>MOLECULE
HISBIV
    52    46     2
SMALL
NO_CHARGES
****
Generated from CSD

@<TRIPOS>ATOM
      1 O1         1.3516   13.3587    5.9705 O.3       1 RES1    0.0000
      2 H1         1.0739   12.8274    5.3099 H         1 RES1    0.0000
      3 O2         0.8668    8.7660   -1.2605 O.2       1 RES1    0.0000
      4 O3         2.6439    9.7340   -0.5607 O.2       1 RES1    0.0000
      5 N1         1.4789   12.0145    3.7474 N.2       1 RES1    0.0000
      6 N2         1.4777    9.3913   -0.4090 N.pl3     1 RES1    0.0000
      7 C1         0.8689   11.1527    2.8103 C.ar      1 RES1    0.0000
      8 C2         1.4785   10.6545    1.6577 C.ar      1 RES1    0.0000
      9 H2         2.3818   10.8722    1.4617 H         1 RES1    0.0000
     10 C3         0.7533    9.8364    0.7979 C.ar      1 RES1    0.0000
     11 C4        -0.5791    9.4499    1.0171 C.ar      1 RES1    0.0000
     12 C5        -1.1477    9.9568    2.1906 C.ar      1 RES1    0.0000
     13 H3        -2.0460    9.7268    2.3996 H         1 RES1    0.0000
     14 C6        -0.4545   10.7796    3.0588 C.ar      1 RES1    0.0000
     15 H4        -0.8879   11.0982    3.8421 H         1 RES1    0.0000
     16 C7        -1.4314    8.5781    0.1262 C.3       1 RES1    0.0000
     17 H5        -2.3092    8.4472    0.5411 H         1 RES1    0.0000
     18 H6        -0.9947    7.7090    0.0050 H         1 RES1    0.0000
     19 H7        -1.5430    9.0132   -0.7450 H         1 RES1    0.0000
     20 C8         2.6833   12.4599    3.5917 C.2       1 RES1    0.0000
     21 H8         3.1843   12.1809    2.8347 H         1 RES1    0.0000
     22 C9         3.2825   13.3634    4.5311 C.ar      1 RES1    0.0000
     23 C10        2.5973   13.8073    5.6937 C.ar      1 RES1    0.0000
     24 C11        3.1798   14.7072    6.5750 C.ar      1 RES1    0.0000
     25 H9         2.6886   15.0063    7.3310 H         1 RES1    0.0000
     26 C12        4.4859   15.1842    6.3649 C.ar      1 RES1    0.0000
     27 C13        5.1719   14.7336    5.1959 C.ar      1 RES1    0.0000
     28 H10        6.0541   15.0399    5.0232 H         1 RES1    0.0000
     29 C14        4.5762   13.8668    4.3209 C.ar      1 RES1    0.0000
     30 H11        5.0538   13.5970    3.5453 H         1 RES1    0.0000
     31 N3         5.0891   16.0352    7.2542 N.3       1 RES1    0.0000
     32 C15        4.4004   16.5662    8.4192 C.3       1 RES1    0.0000
     33 H12        5.0779   16.8653    9.0764 H         1 RES1    0.0000
     34 H13        3.8820   15.8341    8.8391 H         1 RES1    0.0000
     35 C16        3.4705   17.7098    8.1375 C.3       1 RES1    0.0000
     36 H14        3.0500   18.0018    8.9734 H         1 RES1    0.0000
     37 H15        2.7783   17.4201    7.5076 H         1 RES1    0.0000
     38 H16        3.9762   18.4537    7.7489 H         1 RES1    0.0000
     39 C17        6.5917   16.2855    7.2088 C.3       1 RES1    0.0000
     40 H17        6.9423   16.4918    8.1113 H         1 RES1    0.0000
     41 H18        7.0701   15.4963    6.8514 H         1 RES1    0.0000
     42 C18        6.7493   17.4741    6.2861 C.3       1 RES1    0.0000
     43 H19        7.6996   17.6975    6.2013 H         1 RES1    0.0000
     44 H20        6.2656   18.2412    6.6566 H         1 RES1    0.0000
     45 H21        6.3851   17.2524    5.4038 Du        2 SUP2    0.0000
     46 C19        6.0751   17.1025    6.6001 Du        2 SUP2    0.0000
     47 H22        5.9762   17.1450    5.6158 H         1 RES1    0.0000
     48 H23        5.9559   18.0040    6.9877 Du        2 SUP2    0.0000
     49 C20        7.4003   16.4716    7.0140 Du        2 SUP2    0.0000
     50 H24        8.1406   17.0242    6.6839 Du        2 SUP2    0.0000
     51 H25        7.4678   15.5723    6.6314 Du        2 SUP2    0.0000
     52 H26        7.4446   16.4157    7.9912 Du        2 SUP2    0.0000
@<TRIPOS>BOND
     1    1    2 1
     2    3    6 2
     3    4    6 2
     4    5    7 1
     5    6   10 1
     6    7    8 ar
     7    8    9 1
     8   10    8 ar
     9   11   10 ar
    10   12   11 ar
    11   13   12 1
    12   14    7 ar
    13   15   14 1
    14   16   11 1
    15   17   16 1
    16   18   16 1
    17   19   16 1
    18   20    5 2
    19   21   20 1
    20   22   20 1
    21   23    1 1
    22   24   23 ar
    23   25   24 1
    24   26   24 ar
    25   27   26 ar
    26   28   27 1
    27   29   22 ar
    28   30   29 1
    29   31   26 1
    30   32   31 1
    31   33   32 1
    32   34   32 1
    33   35   32 1
    34   36   35 1
    35   37   35 1
    36   38   35 1
    37   39   31 1
    38   40   39 1
    39   41   39 1
    40   42   39 1
    41   43   42 1
    42   44   42 1
    43   47   42 1
    44   12   14 ar
    45   22   23 ar
    46   27   29 ar
@<TRIPOS>SUBSTRUCTURE
     1 RES1 1
     2 SUP2 45

@<TRIPOS>CRYSIN
   7.3157   22.3708   10.3849  90.0000 103.5710  90.0000 231 1

