# MOL2 file generated by ConQuest
# Please check atom types

@<TRIPOS>MOLECULE
HISBIV01
    90    46     2
SMALL
NO_CHARGES
****
Generated from CSD

@<TRIPOS>ATOM
      1 O1         0.0411    2.1580   10.9832 O.3       1 RES1    0.0000
      2 H1        -0.2691    1.7544   10.3157 H         1 RES1    0.0000
      3 C1         1.2955    2.5661   10.7188 C.ar      1 RES1    0.0000
      4 C2         1.8886    3.4932   11.5572 C.ar      1 RES1    0.0000
      5 H2         1.4512    3.7305   12.3654 H         1 RES1    0.0000
      6 C3         3.1336    4.1054   11.2476 C.ar      1 RES1    0.0000
      7 C4         3.8160    3.6547   10.0704 C.ar      1 RES1    0.0000
      8 H3         4.6737    3.9989    9.8543 H         1 RES1    0.0000
      9 C5         3.2217    2.7214    9.2582 C.ar      1 RES1    0.0000
     10 H4         3.6881    2.4375    8.4802 H         1 RES1    0.0000
     11 C6         1.9556    2.1603    9.5196 C.ar      1 RES1    0.0000
     12 C7         1.4114    1.2199    8.5827 C.2       1 RES1    0.0000
     13 H5         1.9422    0.9360    7.8479 H         1 RES1    0.0000
     14 N1         0.2095    0.7452    8.7184 N.2       1 RES1    0.0000
     15 C8        -0.4119   -0.1065    7.7695 C.ar      1 RES1    0.0000
     16 C9         0.1778   -0.6011    6.6144 C.ar      1 RES1    0.0000
     17 H6         1.0786   -0.3793    6.4094 H         1 RES1    0.0000
     18 C10       -0.5438   -1.4128    5.7600 C.ar      1 RES1    0.0000
     19 C11       -1.8656   -1.8209    5.9962 C.ar      1 RES1    0.0000
     20 C12       -2.4356   -1.2509    7.1332 C.ar      1 RES1    0.0000
     21 H7        -3.3584   -1.4128    7.2940 H         1 RES1    0.0000
     22 C13       -1.7510   -0.4658    8.0439 C.ar      1 RES1    0.0000
     23 H8        -2.1751   -0.1730    8.8421 H         1 RES1    0.0000
     24 N2         3.6948    5.0480   12.0558 N.3       1 RES1    0.0000
     25 C14        5.3554    5.0586   12.2352 C.3       1 RES1    0.0000
     26 H9         5.6439    5.2543   13.1615 H         1 RES1    0.0000
     27 H10        5.7860    4.2318   11.9050 H         1 RES1    0.0000
     28 C15        5.5354    6.2441   11.2918 C.3       1 RES1    0.0000
     29 H11        6.4890    6.4586   11.2164 H         1 RES1    0.0000
     30 H12        5.0524    7.0197   11.6457 H         1 RES1    0.0000
     31 H13        5.1814    6.0150   10.4072 H         1 RES1    0.0000
     32 C16        3.0885    5.4295   13.3294 C.3       1 RES1    0.0000
     33 H14        3.8000    5.7222   13.9537 H         1 RES1    0.0000
     34 H15        2.6415    4.6399   13.7265 H         1 RES1    0.0000
     35 C17        2.0860    6.5362   13.1756 C.3       1 RES1    0.0000
     36 H16        1.7077    6.7580   14.0522 H         1 RES1    0.0000
     37 H17        1.3689    6.2457   12.5745 H         1 RES1    0.0000
     38 H18        2.5269    7.3280   12.8007 H         1 RES1    0.0000
     39 C18       -2.6930   -2.7125    5.1307 C.3       1 RES1    0.0000
     40 H19       -3.5836   -2.8168    5.5268 H         1 RES1    0.0000
     41 H20       -2.2624   -3.5908    5.0604 H         1 RES1    0.0000
     42 H21       -2.7764   -2.3177    4.2381 H         1 RES1    0.0000
     43 N3         0.2230   -1.8342    4.5738 N.pl3     1 RES1    0.0000
     44 O2         1.4071   -1.5392    4.4934 O.2       1 RES1    0.0000
     45 O3        -0.3009   -2.6349    3.8219 O.2       1 RES1    0.0000
     46 O4         0.2179    2.1359   10.9772 Du        2 SUP2    0.0000
     47 H22        0.0355    1.5082   10.4454 Du        2 SUP2    0.0000
     48 C19        1.4630    2.6415   10.6736 Du        2 SUP2    0.0000
     49 C20        2.0066    3.4932   11.6105 Du        2 SUP2    0.0000
     50 H23        1.4732    3.8614   12.2991 Du        2 SUP2    0.0000
     51 C21        3.3879    3.8093   11.5120 Du        2 SUP2    0.0000
     52 C22        4.0807    3.3646   10.3549 Du        2 SUP2    0.0000
     53 H24        4.9842    3.6285   10.2253 Du        2 SUP2    0.0000
     54 C23        3.4825    2.5684    9.4271 Du        2 SUP2    0.0000
     55 H25        3.9799    2.2933    8.6651 Du        2 SUP2    0.0000
     56 C24        2.1644    2.1425    9.5618 Du        2 SUP2    0.0000
     57 C25        1.4956    1.3086    8.6430 Du        2 SUP2    0.0000
     58 H26        1.9628    1.0269    7.8650 Du        2 SUP2    0.0000
     59 N4         0.2691    0.9071    8.8079 Du        2 SUP2    0.0000
     60 C26       -0.3254    0.0311    7.8770 Du        2 SUP2    0.0000
     61 C27        0.2832   -0.4680    6.7190 Du        2 SUP2    0.0000
     62 H27        1.1893   -0.2595    6.5250 Du        2 SUP2    0.0000
     63 C28       -0.4398   -1.2664    5.8645 Du        2 SUP2    0.0000
     64 C29       -1.7848   -1.6235    6.0616 Du        2 SUP2    0.0000
     65 C30       -2.3254   -1.2065    7.2960 Du        2 SUP2    0.0000
     66 H28       -3.1752   -1.5259    7.5755 Du        2 SUP2    0.0000
     67 C31       -1.6187   -0.3393    8.0921 Du        2 SUP2    0.0000
     68 H29       -2.0632    0.0288    8.8461 Du        2 SUP2    0.0000
     69 N5         4.0032    4.5935   12.4529 Du        2 SUP2    0.0000
     70 C32        4.8515    5.8912   11.5803 Du        2 SUP2    0.0000
     71 H30        4.7015    5.8864   10.6022 Du        2 SUP2    0.0000
     72 H31        4.7098    6.7935   11.9613 Du        2 SUP2    0.0000
     73 C33        6.1327    5.2385   12.0085 Du        2 SUP2    0.0000
     74 H32        6.8924    5.7511   11.6627 Du        2 SUP2    0.0000
     75 H33        6.1685    4.3249   11.6557 Du        2 SUP2    0.0000
     76 H34        6.1747    5.2121   12.9876 Du        2 SUP2    0.0000
     77 C34        3.2631    5.2232   13.5476 Du        2 SUP2    0.0000
     78 H35        3.9087    5.5226   14.2361 Du        2 SUP2    0.0000
     79 H36        2.6739    4.5467   13.9637 Du        2 SUP2    0.0000
     80 C35        2.4173    6.4120   13.1244 Du        2 SUP2    0.0000
     81 H37        1.9482    6.7735   13.9044 Du        2 SUP2    0.0000
     82 H38        1.7629    6.1237   12.4539 Du        2 SUP2    0.0000
     83 H39        2.9957    7.1040   12.7404 Du        2 SUP2    0.0000
     84 C36       -2.6632   -2.4508    5.1518 Du        2 SUP2    0.0000
     85 H40       -3.5558   -2.5351    5.5469 Du        2 SUP2    0.0000
     86 H41       -2.2699   -3.3424    5.0403 Du        2 SUP2    0.0000
     87 H42       -2.7324   -2.0117    4.2783 Du        2 SUP2    0.0000
     88 N6         0.2205   -1.7300    4.6140 Du        2 SUP2    0.0000
     89 O5         1.3874   -1.4039    4.4281 Du        2 SUP2    0.0000
     90 O6        -0.4500   -2.2193    3.6963 Du        2 SUP2    0.0000
@<TRIPOS>BOND
     1    1    2 1
     2    3    1 1
     3    4    3 ar
     4    5    4 1
     5    6    4 ar
     6    7    6 ar
     7    8    7 1
     8    9    7 ar
     9   10    9 1
    10   11    3 ar
    11   12   11 1
    12   13   12 1
    13   14   12 2
    14   15   14 1
    15   16   15 ar
    16   17   16 1
    17   18   16 ar
    18   19   18 ar
    19   20   19 ar
    20   21   20 1
    21   22   15 ar
    22   23   22 1
    23   24    6 1
    24   25   24 1
    25   26   25 1
    26   27   25 1
    27   28   25 1
    28   29   28 1
    29   30   28 1
    30   31   28 1
    31   32   24 1
    32   33   32 1
    33   34   32 1
    34   35   32 1
    35   36   35 1
    36   37   35 1
    37   38   35 1
    38   39   19 1
    39   40   39 1
    40   41   39 1
    41   42   39 1
    42   43   18 1
    43   44   43 2
    44   45   43 2
    45    9   11 ar
    46   20   22 ar
@<TRIPOS>SUBSTRUCTURE
     1 RES1 1
     2 SUP2 46

@<TRIPOS>CRYSIN
   7.2777   22.1792   10.3473  90.0000 103.7130  90.0000 231 1

