# MOL2 file generated by ConQuest
# Please check atom types

@<TRIPOS>MOLECULE
HISDIY
   120   122     2
SMALL
NO_CHARGES
****
Generated from CSD

@<TRIPOS>ATOM
      1 C1         3.3324    3.2383    5.4893 C.ar      1 RES1    0.0000
      2 C2         4.1235    2.9652    4.3612 C.ar      1 RES1    0.0000
      3 H1         4.4300    2.0779    4.2139 H         1 RES1    0.0000
      4 C3         4.4684    3.9611    3.4560 C.ar      1 RES1    0.0000
      5 C4         4.0167    5.2685    3.6604 C.ar      1 RES1    0.0000
      6 C5         3.2459    5.5850    4.8121 C.ar      1 RES1    0.0000
      7 C6         2.9245    4.5518    5.6821 C.ar      1 RES1    0.0000
      8 H2         2.3985    4.7538    6.4469 H         1 RES1    0.0000
      9 C7         2.9141    2.2193    6.4455 C.2       1 RES1    0.0000
     10 H3         2.4246    2.5180    7.2030 H         1 RES1    0.0000
     11 C8         3.1506    0.9093    6.3649 C.2       1 RES1    0.0000
     12 H4         3.6687    0.6150    5.6257 H         1 RES1    0.0000
     13 C9         2.6939   -0.1205    7.2987 C.ar      1 RES1    0.0000
     14 C10        2.0342    0.1792    8.4997 C.ar      1 RES1    0.0000
     15 H5         1.9026    1.0863    8.7487 H         1 RES1    0.0000
     16 C11        1.5734   -0.8282    9.3255 C.ar      1 RES1    0.0000
     17 H6         1.1274   -0.6202   10.1370 H         1 RES1    0.0000
     18 C12        1.7708   -2.1376    8.9527 C.ar      1 RES1    0.0000
     19 C13        2.4288   -2.4801    7.7839 C.ar      1 RES1    0.0000
     20 H7         2.5658   -3.3886    7.5456 H         1 RES1    0.0000
     21 C14        2.8782   -1.4542    6.9767 C.ar      1 RES1    0.0000
     22 H8         3.3314   -1.6719    6.1712 H         1 RES1    0.0000
     23 C15        5.3672    3.6195    2.2753 C.3       1 RES1    0.0000
     24 H9         5.3038    4.3742    1.6225 H         1 RES1    0.0000
     25 C16        6.8174    3.5294    2.7282 C.3       1 RES1    0.0000
     26 H10        7.0687    4.3609    3.1840 H         1 RES1    0.0000
     27 H11        7.3961    3.3981    1.9474 H         1 RES1    0.0000
     28 H12        6.9215    2.7747    3.3435 H         1 RES1    0.0000
     29 C17        4.9503    2.3516    1.5475 C.3       1 RES1    0.0000
     30 H13        5.0630    1.5822    2.1424 H         1 RES1    0.0000
     31 H14        5.5084    2.2339    0.7502 H         1 RES1    0.0000
     32 H15        4.0105    2.4233    1.2799 H         1 RES1    0.0000
     33 N1         4.3327    6.2554    2.6689 N.3       1 RES1    0.0000
     34 C18        3.2319    6.7390    1.8439 C.3       1 RES1    0.0000
     35 H16        3.5898    7.3489    1.1519 H         1 RES1    0.0000
     36 H17        2.6058    7.2548    2.4102 H         1 RES1    0.0000
     37 C19        2.4756    5.6154    1.1681 C.3       1 RES1    0.0000
     38 H18        3.0865    5.1081    0.5927 H         1 RES1    0.0000
     39 H19        1.7510    5.9891    0.6242 H         1 RES1    0.0000
     40 H20        2.0982    5.0191    1.8490 H         1 RES1    0.0000
     41 C20        5.3474    7.2513    2.9999 C.3       1 RES1    0.0000
     42 H21        5.8208    6.9751    3.8240 H         1 RES1    0.0000
     43 H22        4.9067    8.1201    3.1781 H         1 RES1    0.0000
     44 C21        6.3585    7.4233    1.8736 C.3       1 RES1    0.0000
     45 H23        6.7955    6.5658    1.6934 H         1 RES1    0.0000
     46 H24        7.0321    8.0849    2.1365 H         1 RES1    0.0000
     47 H25        5.8972    7.7307    1.0653 H         1 RES1    0.0000
     48 C22        2.7661    6.9855    5.1339 C.3       1 RES1    0.0000
     49 H26        3.0923    7.5934    4.4108 H         1 RES1    0.0000
     50 C23        1.2438    7.0484    5.1433 C.3       1 RES1    0.0000
     51 H27        0.8985    6.4998    5.8778 H         1 RES1    0.0000
     52 H28        0.8978    6.7109    4.2907 H         1 RES1    0.0000
     53 H29        0.9561    7.9777    5.2674 H         1 RES1    0.0000
     54 C24        3.3434    7.4845    6.4545 C.3       1 RES1    0.0000
     55 H30        3.0730    6.8804    7.1774 H         1 RES1    0.0000
     56 H31        3.0078    8.3859    6.6379 H         1 RES1    0.0000
     57 H32        4.3217    7.5061    6.3957 H         1 RES1    0.0000
     58 N2         1.2713   -3.2085    9.8097 N.pl3     1 RES1    0.0000
     59 O1         1.4253   -4.3690    9.4551 O.2       1 RES1    0.0000
     60 O2         0.7058   -2.8950   10.8632 O.2       1 RES1    0.0000
     61 C25       -0.3113   -0.6378    5.4729 C.ar      2 RES2    0.0000
     62 C26       -0.7238   -1.9483    5.6452 C.ar      2 RES2    0.0000
     63 H33       -1.2542   -2.1603    6.4055 H         2 RES2    0.0000
     64 C27       -0.3989   -2.9677    4.7599 C.ar      2 RES2    0.0000
     65 C28        0.3754   -2.6459    3.6253 C.ar      2 RES2    0.0000
     66 C29        0.8451   -1.3378    3.4400 C.ar      2 RES2    0.0000
     67 C30        0.5007   -0.3531    4.3602 C.ar      2 RES2    0.0000
     68 H34        0.8214    0.5330    4.2336 H         2 RES2    0.0000
     69 C31       -0.7315    0.3699    6.4358 C.2       2 RES2    0.0000
     70 H35       -1.2018    0.0561    7.1991 H         2 RES2    0.0000
     71 C32       -0.5295    1.6834    6.3636 C.2       2 RES2    0.0000
     72 H36       -0.0233    1.9924    5.6218 H         2 RES2    0.0000
     73 C33       -1.0022    2.7034    7.3009 C.ar      2 RES2    0.0000
     74 C34       -0.8311    4.0438    6.9872 C.ar      2 RES2    0.0000
     75 H37       -0.3705    4.2743    6.1889 H         2 RES2    0.0000
     76 C35       -1.3088    5.0532    7.7971 C.ar      2 RES2    0.0000
     77 H38       -1.1805    5.9659    7.5673 H         2 RES2    0.0000
     78 C36       -1.9800    4.6963    8.9531 C.ar      2 RES2    0.0000
     79 C37       -2.1632    3.3832    9.3113 C.ar      2 RES2    0.0000
     80 H39       -2.6199    3.1647   10.1153 H         2 RES2    0.0000
     81 C38       -1.6772    2.3799    8.4939 C.ar      2 RES2    0.0000
     82 H40       -1.7988    1.4701    8.7369 H         2 RES2    0.0000
     83 C39       -0.8989   -4.3758    5.0547 C.3       2 RES2    0.0000
     84 H41       -0.5860   -4.9705    4.3143 H         2 RES2    0.0000
     85 C40       -2.4194   -4.4258    5.0764 C.3       2 RES2    0.0000
     86 H42       -2.7150   -5.3553    5.1650 H         2 RES2    0.0000
     87 H43       -2.7703   -4.0497    4.2415 H         2 RES2    0.0000
     88 H44       -2.7527   -3.9017    5.8345 H         2 RES2    0.0000
     89 C41       -0.3179   -4.9101    6.3531 C.3       2 RES2    0.0000
     90 H45       -0.5682   -4.3159    7.0908 H         2 RES2    0.0000
     91 H46        0.6581   -4.9499    6.2815 H         2 RES2    0.0000
     92 H47       -0.6707   -5.8087    6.5237 H         2 RES2    0.0000
     93 N3         0.7061   -3.6204    2.6181 N.3       2 RES2    0.0000
     94 C42        1.6829   -4.6351    2.9722 C.3       2 RES2    0.0000
     95 H48        1.2111   -5.4746    3.2037 H         2 RES2    0.0000
     96 H49        2.1847   -4.3384    3.7728 H         2 RES2    0.0000
     97 C43        2.6545   -4.9049    1.8478 C.3       2 RES2    0.0000
     98 H50        2.1798   -5.3219    1.0988 H         2 RES2    0.0000
     99 H51        3.3606   -5.5056    2.1641 H         2 RES2    0.0000
    100 H52        3.0528   -4.0597    1.5517 H         2 RES2    0.0000
    101 C44       -0.3845   -4.0629    1.7553 C.3       2 RES2    0.0000
    102 H53       -1.0301   -4.5867    2.2920 H         2 RES2    0.0000
    103 H54       -0.0205   -4.6596    1.0535 H         2 RES2    0.0000
    104 C45       -1.1050   -2.9151    1.1013 C.3       2 RES2    0.0000
    105 H55       -1.4829   -2.3317    1.7919 H         2 RES2    0.0000
    106 H56       -1.8259   -3.2631    0.5356 H         2 RES2    0.0000
    107 H57       -0.4747   -2.4056    0.5514 H         2 RES2    0.0000
    108 C46        1.7598   -0.9970    2.2832 C.3       2 RES2    0.0000
    109 H58        1.6652   -1.7283    1.6068 H         2 RES2    0.0000
    110 C47        3.2063   -0.9818    2.7217 C.3       2 RES2    0.0000
    111 H59        3.3401   -0.2684    3.3810 H         2 RES2    0.0000
    112 H60        3.7815   -0.8214    1.9455 H         2 RES2    0.0000
    113 H61        3.4350   -1.8443    3.1250 H         2 RES2    0.0000
    114 C48        1.4059    0.3090    1.5843 C.3       2 RES2    0.0000
    115 H62        0.4671    0.2850    1.3055 H         2 RES2    0.0000
    116 H63        1.9778    0.4228    0.7975 H         2 RES2    0.0000
    117 H64        1.5450    1.0566    2.2015 H         2 RES2    0.0000
    118 N4        -2.5025    5.7547    9.8113 N.pl3     2 RES2    0.0000
    119 O3        -3.0877    5.4200   10.8504 O.2       2 RES2    0.0000
    120 O4        -2.3630    6.9158    9.4740 O.2       2 RES2    0.0000
@<TRIPOS>BOND
     1    1    2 ar
     2    2    3 1
     3    4    2 ar
     4    5    4 ar
     5    6    5 ar
     6    7    1 ar
     7    8    7 1
     8    9    1 1
     9   10    9 1
    10   11    9 2
    11   12   11 1
    12   13   11 1
    13   14   13 ar
    14   15   14 1
    15   16   14 ar
    16   17   16 1
    17   18   16 ar
    18   19   18 ar
    19   20   19 1
    20   21   13 ar
    21   22   21 1
    22   23    4 1
    23   24   23 1
    24   25   23 1
    25   26   25 1
    26   27   25 1
    27   28   25 1
    28   29   23 1
    29   30   29 1
    30   31   29 1
    31   32   29 1
    32   33    5 1
    33   34   33 1
    34   35   34 1
    35   36   34 1
    36   37   34 1
    37   38   37 1
    38   39   37 1
    39   40   37 1
    40   41   33 1
    41   42   41 1
    42   43   41 1
    43   44   41 1
    44   45   44 1
    45   46   44 1
    46   47   44 1
    47   48    6 1
    48   49   48 1
    49   50   48 1
    50   51   50 1
    51   52   50 1
    52   53   50 1
    53   54   48 1
    54   55   54 1
    55   56   54 1
    56   57   54 1
    57   58   18 1
    58   59   58 2
    59   60   58 2
    60   61   62 ar
    61   62   63 1
    62   64   62 ar
    63   65   64 ar
    64   66   65 ar
    65   67   61 ar
    66   68   67 1
    67   69   61 1
    68   70   69 1
    69   71   69 2
    70   72   71 1
    71   73   71 1
    72   74   73 ar
    73   75   74 1
    74   76   74 ar
    75   77   76 1
    76   78   76 ar
    77   79   78 ar
    78   80   79 1
    79   81   73 ar
    80   82   81 1
    81   83   64 1
    82   84   83 1
    83   85   83 1
    84   86   85 1
    85   87   85 1
    86   88   85 1
    87   89   83 1
    88   90   89 1
    89   91   89 1
    90   92   89 1
    91   93   65 1
    92   94   93 1
    93   95   94 1
    94   96   94 1
    95   97   94 1
    96   98   97 1
    97   99   97 1
    98  100   97 1
    99  101   93 1
   100  102  101 1
   101  103  101 1
   102  104  101 1
   103  105  104 1
   104  106  104 1
   105  107  104 1
   106  108   66 1
   107  109  108 1
   108  110  108 1
   109  111  110 1
   110  112  110 1
   111  113  110 1
   112  114  108 1
   113  115  114 1
   114  116  114 1
   115  117  114 1
   116  118   78 1
   117  119  118 2
   118  120  118 2
   119    6    7 ar
   120   19   21 ar
   121   66   67 ar
   122   79   81 ar
@<TRIPOS>SUBSTRUCTURE
     1 RES1 1
     2 RES2 61

@<TRIPOS>CRYSIN
   7.3477   15.4143   20.3747 104.6420  92.4140  90.7930   2 1

