# MOL2 file generated by ConQuest
# Please check atom types

@<TRIPOS>MOLECULE
HISMUS
    70    74     2
SMALL
NO_CHARGES
****
Generated from CSD

@<TRIPOS>ATOM
      1 O1         0.7098   17.4877    6.6787 O.3       1 RES1    0.0000
      2 O2         2.7598   14.7891    5.4873 O.3       1 RES1    0.0000
      3 O3         1.0885   13.5325    6.5161 O.3       1 RES1    0.0000
      4 O4         0.3646   13.6893    3.8671 O.3       1 RES1    0.0000
      5 N1         0.7849   17.0238    5.2967 N.3       1 RES1    0.0000
      6 C1         1.9007   17.0480    7.3456 C.3       1 RES1    0.0000
      7 H1         1.9833   17.5030    8.2203 H         1 RES1    0.0000
      8 H2         2.6953   17.2762    6.8004 H         1 RES1    0.0000
      9 C2         1.8328   15.5477    7.5504 C.3       1 RES1    0.0000
     10 H3         2.6903   15.2236    7.9231 H         1 RES1    0.0000
     11 H4         1.1139   15.3316    8.1956 H         1 RES1    0.0000
     12 C3         1.5563   14.8589    6.2295 C.3       1 RES1    0.0000
     13 C4         0.5442   15.5684    5.3085 C.3       1 RES1    0.0000
     14 H5        -0.4020   15.3424    5.5414 H         1 RES1    0.0000
     15 C5         0.9614   14.9909    3.9420 C.3       1 RES1    0.0000
     16 H6         0.6751   15.5779    3.1845 H         1 RES1    0.0000
     17 C6         2.4789   14.9349    4.0769 C.3       1 RES1    0.0000
     18 H7         2.8430   14.1671    3.5705 H         1 RES1    0.0000
     19 H8         2.8878   15.7659    3.7275 H         1 RES1    0.0000
     20 C7        -0.3540   17.7027    4.6620 C.3       1 RES1    0.0000
     21 H9        -1.1772   17.4965    5.1721 H         1 RES1    0.0000
     22 H10       -0.4694   17.3496    3.7443 H         1 RES1    0.0000
     23 C8        -0.1807   19.2000    4.5928 C.ar      1 RES1    0.0000
     24 C9        -1.1836   20.0327    5.0806 C.ar      1 RES1    0.0000
     25 H11       -1.9585   19.6528    5.4782 H         1 RES1    0.0000
     26 C10       -1.0592   21.4236    4.9899 C.ar      1 RES1    0.0000
     27 H12       -1.7447   21.9841    5.3351 H         1 RES1    0.0000
     28 C11        0.0632   21.9886    4.3971 C.ar      1 RES1    0.0000
     29 H13        0.1443   22.9326    4.3249 H         1 RES1    0.0000
     30 C12        1.0696   21.1557    3.9089 C.ar      1 RES1    0.0000
     31 H14        1.8439   21.5347    3.5083 H         1 RES1    0.0000
     32 C13        0.9453   19.7729    4.0056 C.ar      1 RES1    0.0000
     33 H15        1.6352   19.2142    3.6673 H         1 RES1    0.0000
     34 O5         2.6916    9.4723    0.7926 O.3       2 RES2    0.0000
     35 O6         0.5928   12.2964    1.4382 O.3       2 RES2    0.0000
     36 O7         2.5811   13.4322    1.0391 O.3       2 RES2    0.0000
     37 O8         1.1076   13.4821   -1.3028 O.3       2 RES2    0.0000
     38 N2         1.6648   10.0455   -0.0712 N.3       2 RES2    0.0000
     39 C14        2.3859    9.9040    2.1216 C.3       2 RES2    0.0000
     40 H16        2.9431    9.4073    2.7727 H         2 RES2    0.0000
     41 H17        1.4344    9.7227    2.3244 H         2 RES2    0.0000
     42 C15        2.6626   11.3926    2.2355 C.3       2 RES2    0.0000
     43 H18        2.3321   11.7234    3.1084 H         2 RES2    0.0000
     44 H19        3.6391   11.5506    2.1970 H         2 RES2    0.0000
     45 C16        1.9830   12.1579    1.1161 C.3       2 RES2    0.0000
     46 C17        1.9815   11.4583   -0.2674 C.3       2 RES2    0.0000
     47 H20        2.8330   11.6003   -0.7751 H         2 RES2    0.0000
     48 C18        0.7703   12.1484   -0.9227 C.3       2 RES2    0.0000
     49 H21        0.4110   11.6197   -1.6924 H         2 RES2    0.0000
     50 C19       -0.2105   12.2039    0.2329 C.3       2 RES2    0.0000
     51 H22       -0.8017   12.9938    0.1481 H         2 RES2    0.0000
     52 H23       -0.7716   11.3885    0.2518 H         2 RES2    0.0000
     53 C20        1.7584    9.2338   -1.2817 C.3       2 RES2    0.0000
     54 H24        2.7066    9.1523   -1.5552 H         2 RES2    0.0000
     55 H25        1.2626    9.6752   -2.0163 H         2 RES2    0.0000
     56 C21        1.1822    7.8620   -1.0327 C.ar      2 RES2    0.0000
     57 C22        1.8713    6.7162   -1.4125 C.ar      2 RES2    0.0000
     58 H26        2.7138    6.7929   -1.8445 H         2 RES2    0.0000
     59 C23        1.3319    5.4488   -1.1628 C.ar      2 RES2    0.0000
     60 H27        1.8017    4.6691   -1.4347 H         2 RES2    0.0000
     61 C24        0.1133    5.3339   -0.5190 C.ar      2 RES2    0.0000
     62 H28       -0.2514    4.4746   -0.3426 H         2 RES2    0.0000
     63 C25       -0.5798    6.4768   -0.1297 C.ar      2 RES2    0.0000
     64 H29       -1.4147    6.3954    0.3170 H         2 RES2    0.0000
     65 C26       -0.0527    7.7356   -0.3937 C.ar      2 RES2    0.0000
     66 H30       -0.5344    8.5128   -0.1382 H         2 RES2    0.0000
     67 H31        0.8339   13.1797    5.7666 H         1 RES1    0.0000
     68 H32        2.3031   13.7717    0.3851 H         2 RES2    0.0000
     69 H33        1.6197   13.4173   -1.9255 H         2 RES2    0.0000
     70 H34        0.4632   13.4238    3.0511 H         1 RES1    0.0000
@<TRIPOS>BOND
     1    1    5 1
     2    2   12 1
     3    3   12 1
     4    4   15 1
     5    5   13 1
     6    6    1 1
     7    7    6 1
     8    8    6 1
     9    9    6 1
    10   10    9 1
    11   11    9 1
    12   12    9 1
    13   13   12 1
    14   14   13 1
    15   15   13 1
    16   16   15 1
    17   17    2 1
    18   18   17 1
    19   19   17 1
    20   20    5 1
    21   21   20 1
    22   22   20 1
    23   23   20 1
    24   24   23 ar
    25   25   24 1
    26   26   24 ar
    27   27   26 1
    28   28   26 ar
    29   29   28 1
    30   30   28 ar
    31   31   30 1
    32   32   23 ar
    33   33   32 1
    34   34   38 1
    35   35   45 1
    36   36   45 1
    37   37   48 1
    38   38   46 1
    39   39   34 1
    40   40   39 1
    41   41   39 1
    42   42   39 1
    43   43   42 1
    44   44   42 1
    45   45   42 1
    46   46   45 1
    47   47   46 1
    48   48   46 1
    49   49   48 1
    50   50   35 1
    51   51   50 1
    52   52   50 1
    53   53   38 1
    54   54   53 1
    55   55   53 1
    56   56   53 1
    57   57   56 ar
    58   58   57 1
    59   59   57 ar
    60   60   59 1
    61   61   59 ar
    62   62   61 1
    63   63   61 ar
    64   64   63 1
    65   65   56 ar
    66   66   65 1
    67   67    3 1
    68   68   36 1
    69   69   37 1
    70   70    4 1
    71   15   17 1
    72   30   32 ar
    73   48   50 1
    74   63   65 ar
@<TRIPOS>SUBSTRUCTURE
     1 RES1 1
     2 RES2 34

@<TRIPOS>CRYSIN
   5.7660   21.6060   10.0479  90.0000 100.6670  90.0000   4 1

