# MOL2 file generated by ConQuest
# Please check atom types

@<TRIPOS>MOLECULE
HISRUW01
    39    39     1
SMALL
NO_CHARGES
****
Generated from CSD

@<TRIPOS>ATOM
      1 O1         1.5783    0.3238   -0.0419 O.2       1 RES1    0.0000
      2 O2         0.7054    1.1177   -1.7732 O.2       1 RES1    0.0000
      3 O3         2.3337    4.5419    3.4573 O.2       1 RES1    0.0000
      4 O4         0.3377    4.6068    3.9394 O.2       1 RES1    0.0000
      5 N1         1.0727    1.2483   -0.6361 N.pl3     1 RES1    0.0000
      6 N2         1.2177    4.4255    3.1670 N.pl3     1 RES1    0.0000
      7 N3         1.5023    1.7058    2.1903 N.3       1 RES1    0.0000
      8 C1         0.5087    3.5711   -0.8290 C.ar      1 RES1    0.0000
      9 C2         0.9057    2.5341   -0.0042 C.ar      1 RES1    0.0000
     10 C3         1.1249    2.7129    1.3813 C.ar      1 RES1    0.0000
     11 C4         0.9218    4.0539    1.7868 C.ar      1 RES1    0.0000
     12 C5         0.5250    5.0978    0.9767 C.ar      1 RES1    0.0000
     13 C6         0.3035    4.8445   -0.3773 C.ar      1 RES1    0.0000
     14 C7         0.3457    6.4818    1.5374 C.3       1 RES1    0.0000
     15 C8        -0.1291    5.9234   -1.3330 C.3       1 RES1    0.0000
     16 C9         1.3447    1.5287    3.6407 C.3       1 RES1    0.0000
     17 C10       -0.0576    1.3922    4.0159 C.3       1 RES1    0.0000
     18 C11        2.1329    0.3068    4.0253 C.3       1 RES1    0.0000
     19 C12        3.5392    0.4464    3.7570 C.3       1 RES1    0.0000
     20 C13       -0.3004    1.4364    5.5061 C.3       1 RES1    0.0000
     21 H1         0.4376    3.2805   -1.7187 H         1 RES1    0.0000
     22 H2         1.5843    0.9485    1.6768 H         1 RES1    0.0000
     23 H3         0.6056    7.1414    0.8384 H         1 RES1    0.0000
     24 H4        -0.4654    6.6556    1.7082 H         1 RES1    0.0000
     25 H5         0.9778    6.7085    2.1798 H         1 RES1    0.0000
     26 H6        -0.2212    5.5017   -2.1798 H         1 RES1    0.0000
     27 H7         0.4534    6.5265   -1.4986 H         1 RES1    0.0000
     28 H8        -0.8517    6.4606   -1.0270 H         1 RES1    0.0000
     29 H9         1.6996    2.3228    4.0662 H         1 RES1    0.0000
     30 H10       -0.3842    0.5360    3.6365 H         1 RES1    0.0000
     31 H11       -0.5206    2.1744    3.5632 H         1 RES1    0.0000
     32 H12        1.8192   -0.4842    3.5003 H         1 RES1    0.0000
     33 H13        1.9512    0.1487    4.9780 H         1 RES1    0.0000
     34 H14        3.7230    0.4825    2.7667 H         1 RES1    0.0000
     35 H15        3.8623    1.2975    4.1920 H         1 RES1    0.0000
     36 H16        4.0212   -0.3060    4.0452 H         1 RES1    0.0000
     37 H17       -0.0727    2.3384    5.6906 H         1 RES1    0.0000
     38 H18       -1.2581    1.2749    5.7116 H         1 RES1    0.0000
     39 H19        0.2825    0.7903    5.9421 H         1 RES1    0.0000
@<TRIPOS>BOND
     1    1    5 2
     2    2    5 2
     3    3    6 2
     4    4    6 2
     5    5    9 1
     6    6   11 1
     7    7   10 1
     8    8    9 ar
     9    9   10 ar
    10   10   11 ar
    11   11   12 ar
    12   12   13 ar
    13   13    8 ar
    14   14   12 1
    15   15   13 1
    16   16    7 1
    17   17   16 1
    18   18   16 1
    19   19   18 1
    20   20   17 1
    21   21    8 1
    22   22    7 1
    23   23   14 1
    24   24   14 1
    25   25   14 1
    26   26   15 1
    27   27   15 1
    28   28   15 1
    29   29   16 1
    30   30   17 1
    31   31   17 1
    32   32   18 1
    33   33   18 1
    34   34   19 1
    35   35   19 1
    36   36   19 1
    37   37   20 1
    38   38   20 1
    39   39   20 1
@<TRIPOS>SUBSTRUCTURE
     1 RES1 1

@<TRIPOS>CRYSIN
   7.2670    9.5260   10.6120  98.6200  90.2000 106.3800   2 1

