# MOL2 file generated by ConQuest
# Please check atom types

@<TRIPOS>MOLECULE
HITMUS
    22    21     1
SMALL
NO_CHARGES
****
Generated from CSD

@<TRIPOS>ATOM
      1 C1         1.3371    4.5557    1.3498 C.3       1 RES1    0.0000
      2 C2         0.2019    3.9994    0.5574 C.2       1 RES1    0.0000
      3 C3        -0.4232    2.7862    1.1685 C.3       1 RES1    0.0000
      4 N1         2.5317    3.6482    1.3569 N.pl3     1 RES1    0.0000
      5 O1         3.2619    3.7066    2.3236 O.2       1 RES1    0.0000
      6 O2         2.7447    2.9330    0.4058 O.2       1 RES1    0.0000
      7 H1         1.0531    4.7120    2.2542 H         1 RES1    0.0000
      8 H2         1.5931    5.3989    0.9688 H         1 RES1    0.0000
      9 H3        -1.1381    2.4788    0.6062 H         1 RES1    0.0000
     10 H4         0.2377    2.0958    1.2521 H         1 RES1    0.0000
     11 H5        -0.7702    3.0042    2.0368 H         1 RES1    0.0000
     12 C2B       -0.2019    4.5866   -0.5574 C.2       1 RES1    0.0000
     13 C1B       -1.3371    4.0303   -1.3498 C.3       1 RES1    0.0000
     14 N1B       -2.5317    4.9378   -1.3569 N.pl3     1 RES1    0.0000
     15 O1B       -3.2619    4.8794   -2.3236 O.2       1 RES1    0.0000
     16 O2B       -2.7447    5.6530   -0.4058 O.2       1 RES1    0.0000
     17 H1B       -1.0531    3.8740   -2.2542 H         1 RES1    0.0000
     18 H2B       -1.5931    3.1871   -0.9688 H         1 RES1    0.0000
     19 C3B        0.4232    5.7998   -1.1685 C.3       1 RES1    0.0000
     20 H3B        1.1381    6.1072   -0.6062 H         1 RES1    0.0000
     21 H4B       -0.2377    6.4902   -1.2521 H         1 RES1    0.0000
     22 H5B        0.7702    5.5818   -2.0368 H         1 RES1    0.0000
@<TRIPOS>BOND
     1    1    2 1
     2    2    3 1
     3    3    9 1
     4    4    1 1
     5    5    4 2
     6    6    4 2
     7    7    1 1
     8    8    1 1
     9   10    3 1
    10   11    3 1
    11   12    2 2
    12   13   12 1
    13   14   13 1
    14   15   14 2
    15   16   14 2
    16   17   13 1
    17   18   13 1
    18   19   12 1
    19   20   19 1
    20   21   19 1
    21   22   19 1
@<TRIPOS>SUBSTRUCTURE
     1 RES1 1

@<TRIPOS>CRYSIN
   7.0290    8.5860    7.7730  90.0000 114.3400  90.0000  14 1

