# MOL2 file generated by ConQuest
# Please check atom types

@<TRIPOS>MOLECULE
HITNED
    76    76     2
SMALL
NO_CHARGES
****
Generated from CSD

@<TRIPOS>ATOM
      1 O1        -4.2176    0.2911   17.0542 O.2       1 RES1    0.0000
      2 O2        -5.1833    1.3143   15.4628 O.2       1 RES1    0.0000
      3 O3         0.9914   -1.7940   14.7646 O.2       1 RES1    0.0000
      4 O4        -0.1694   -1.8571   16.5979 O.2       1 RES1    0.0000
      5 N1        -4.2495    0.6718   15.9647 N.pl3     1 RES1    0.0000
      6 N2        -0.0255   -1.5076   15.4642 N.pl3     1 RES1    0.0000
      7 N3         0.0670   -0.6188   12.6700 N.3       1 RES1    0.0000
      8 N4         0.0247   -0.2540   11.3123 N.2       1 RES1    0.0000
      9 C1        -3.1025    0.3038   15.1006 C.ar      1 RES1    0.0000
     10 C2        -3.1107    0.7139   13.8258 C.ar      1 RES1    0.0000
     11 C3        -2.0772    0.3761   12.9645 C.ar      1 RES1    0.0000
     12 C4        -0.9614   -0.3633   13.4678 C.ar      1 RES1    0.0000
     13 C5        -1.0331   -0.7259   14.8172 C.ar      1 RES1    0.0000
     14 C6        -2.0889   -0.3800   15.5956 C.ar      1 RES1    0.0000
     15 C7         1.0014   -0.7224   10.6487 C.2       1 RES1    0.0000
     16 C8         1.1329   -0.4041    9.1887 C.3       1 RES1    0.0000
     17 C9         0.1351    0.6184    8.7172 C.3       1 RES1    0.0000
     18 C10        0.9859   -1.7229    8.4517 C.3       1 RES1    0.0000
     19 C11        2.5508   -0.0033    9.0131 C.2       1 RES1    0.0000
     20 C12        2.8969    1.0636    8.4490 C.2       1 RES1    0.0000
     21 C13        3.3073    2.2622    7.8876 C.2       1 RES1    0.0000
     22 C14        3.6951    3.3186    8.7504 C.3       1 RES1    0.0000
     23 O5         8.1723   -4.7014   10.5229 O.2       2 RES2    0.0000
     24 O6         9.1112   -5.6678   12.1889 O.2       2 RES2    0.0000
     25 O7         2.9186   -2.5875   12.8553 O.2       2 RES2    0.0000
     26 O8         4.0429   -2.5545   11.0676 O.2       2 RES2    0.0000
     27 N5         8.1960   -5.0618   11.7354 N.pl3     2 RES2    0.0000
     28 N6         3.9134   -2.9076   12.2345 N.pl3     2 RES2    0.0000
     29 N7         3.8988   -3.7374   15.0149 N.3       2 RES2    0.0000
     30 N8         3.8819   -4.1537   16.3021 N.2       2 RES2    0.0000
     31 C15        7.1030   -4.7442   12.5857 C.ar      2 RES2    0.0000
     32 C16        7.0760   -5.1004   13.9586 C.ar      2 RES2    0.0000
     33 C17        6.0121   -4.7974   14.6817 C.ar      2 RES2    0.0000
     34 C18        4.9169   -4.0974   14.2074 C.ar      2 RES2    0.0000
     35 C19        4.9692   -3.6804   12.8359 C.ar      2 RES2    0.0000
     36 C20        6.0631   -4.0030   12.0230 C.ar      2 RES2    0.0000
     37 C21        2.9845   -3.6929   17.0348 C.2       2 RES2    0.0000
     38 C22        2.7858   -3.9203   18.4824 C.3       2 RES2    0.0000
     39 C23        3.7481   -4.9952   18.9691 C.3       2 RES2    0.0000
     40 C24        3.0957   -2.5940   19.1986 C.3       2 RES2    0.0000
     41 C25        1.3531   -4.4031   18.6511 C.2       2 RES2    0.0000
     42 C26        0.9250   -5.5401   18.7976 C.2       2 RES2    0.0000
     43 C27        0.4565   -6.7228   19.2746 C.2       2 RES2    0.0000
     44 C28        0.2085   -7.7809   19.2553 C.3       2 RES2    0.0000
     45 H1         0.7648   -1.0111   12.9839 H         1 RES1    0.0000
     46 H2        -3.8177    1.2323   13.5134 H         1 RES1    0.0000
     47 H3        -2.1095    0.6277   12.0686 H         1 RES1    0.0000
     48 H4        -2.0978   -0.6290   16.4915 H         1 RES1    0.0000
     49 H5         0.4439    1.0128    7.8987 H         1 RES1    0.0000
     50 H6         0.0382    1.3014    9.3850 H         1 RES1    0.0000
     51 H7        -0.7125    0.1935    8.5693 H         1 RES1    0.0000
     52 H8         0.8967   -1.5558    7.5116 H         1 RES1    0.0000
     53 H9         0.2045   -2.1821    8.7711 H         1 RES1    0.0000
     54 H10        1.7621   -2.2658    8.6094 H         1 RES1    0.0000
     55 H11        3.2146   -0.5698    9.3352 H         1 RES1    0.0000
     56 H12        3.3276    2.3708    6.9641 H         1 RES1    0.0000
     57 H13        3.6088    3.0355    9.6629 H         1 RES1    0.0000
     58 H14        3.1305    4.0804    8.5969 H         1 RES1    0.0000
     59 H15        4.6081    3.5569    8.5734 H         1 RES1    0.0000
     60 H16        1.5392   -1.3019   10.9459 H         1 RES1    0.0000
     61 H17        3.2618   -3.2452   14.7121 H         2 RES2    0.0000
     62 H18        7.7974   -5.5431   14.3443 H         2 RES2    0.0000
     63 H19        5.9989   -5.0731   15.5693 H         2 RES2    0.0000
     64 H20        6.0954   -3.7313   11.1340 H         2 RES2    0.0000
     65 H21        3.6221   -5.1345   19.9106 H         2 RES2    0.0000
     66 H22        4.6518   -4.7148   18.8045 H         2 RES2    0.0000
     67 H23        3.5774   -5.8147   18.4990 H         2 RES2    0.0000
     68 H24        2.8318   -2.6586   20.1180 H         2 RES2    0.0000
     69 H25        2.6114   -1.8818   18.7755 H         2 RES2    0.0000
     70 H26        4.0378   -2.4155   19.1474 H         2 RES2    0.0000
     71 H27        0.7063   -3.7355   18.6428 H         2 RES2    0.0000
     72 H28        0.1865   -6.4843   20.1318 H         2 RES2    0.0000
     73 H29        0.9859   -8.2879   19.0105 H         2 RES2    0.0000
     74 H30       -0.4891   -7.9341   18.6137 H         2 RES2    0.0000
     75 H31       -0.0907   -8.0555   20.1249 H         2 RES2    0.0000
     76 H32        2.1277   -3.6663   16.3283 H         2 RES2    0.0000
@<TRIPOS>BOND
     1    1    5 2
     2    2    5 2
     3    3    6 2
     4    4    6 2
     5    5    9 1
     6    6   13 1
     7    7    8 1
     8    8   15 2
     9    9   10 ar
    10   10   11 ar
    11   11   12 ar
    12   12    7 1
    13   13   12 ar
    14   14    9 ar
    15   15   16 1
    16   16   17 1
    17   17   49 1
    18   18   16 1
    19   19   16 1
    20   20   19 2
    21   21   20 2
    22   22   21 1
    23   23   27 2
    24   24   27 2
    25   25   28 2
    26   26   28 2
    27   27   31 1
    28   28   35 1
    29   29   30 1
    30   30   37 2
    31   31   32 ar
    32   32   33 ar
    33   33   34 ar
    34   34   29 1
    35   35   34 ar
    36   36   31 ar
    37   37   38 1
    38   38   39 1
    39   39   65 1
    40   40   38 1
    41   41   38 1
    42   42   41 2
    43   43   42 2
    44   44   43 1
    45   45    7 1
    46   46   10 1
    47   47   11 1
    48   48   14 1
    49   50   17 1
    50   51   17 1
    51   52   18 1
    52   53   18 1
    53   54   18 1
    54   55   19 1
    55   56   21 1
    56   57   22 1
    57   58   22 1
    58   59   22 1
    59   60   15 1
    60   61   29 1
    61   62   32 1
    62   63   33 1
    63   64   36 1
    64   66   39 1
    65   67   39 1
    66   68   40 1
    67   69   40 1
    68   70   40 1
    69   71   41 1
    70   72   43 1
    71   73   44 1
    72   74   44 1
    73   75   44 1
    74   76   37 1
    75   13   14 ar
    76   35   36 ar
@<TRIPOS>SUBSTRUCTURE
     1 RES1 1
     2 RES2 23

@<TRIPOS>CRYSIN
   6.5910    8.5410   14.0620  98.2400  95.4200  97.0800   1 1

