# MOL2 file generated by ConQuest
# Please check atom types

@<TRIPOS>MOLECULE
HITRAD
    70    71     3
SMALL
NO_CHARGES
****
Generated from CSD

@<TRIPOS>ATOM
      1 O1         0.9319   -0.3852    3.5485 O.3       1 RES1    0.0000
      2 O2         0.2398    3.0631    3.5051 O.3       1 RES1    0.0000
      3 O3        -1.1333    2.6748    4.0150 Du        3 SUP3    0.0000
      4 O4         2.0475    1.7942    9.3351 O.3       1 RES1    0.0000
      5 O5         4.5013    5.4576    5.1914 O.3       2 RES2    0.0000
      6 O6         6.7709    2.7304    4.7147 Du        3 SUP3    0.0000
      7 O7         5.4150    2.3431    5.2386 O.3       2 RES2    0.0000
      8 O8         3.5692    3.5777   -0.6679 O.3       2 RES2    0.0000
      9 N1         0.0092    1.7215    3.2846 N.3       1 RES1    0.0000
     10 N2         5.6363    3.4408    5.3622 N.3       2 RES2    0.0000
     11 C1        -0.2099    1.5021    1.8928 C.ar      1 RES1    0.0000
     12 C2         0.0995    0.2792    1.3676 C.ar      1 RES1    0.0000
     13 C3        -0.2360   -0.0107    0.0408 C.ar      1 RES1    0.0000
     14 C4        -0.8976    0.9533   -0.7507 C.ar      1 RES1    0.0000
     15 C5        -1.1658    2.1815   -0.2256 C.ar      1 RES1    0.0000
     16 C6        -0.8297    2.4725    1.1089 C.ar      1 RES1    0.0000
     17 C7         0.8396   -0.7457    2.1719 C.3       1 RES1    0.0000
     18 C8         1.1752    0.9073    3.7447 C.3       1 RES1    0.0000
     19 C9         1.3919    1.1084    5.2360 C.ar      1 RES1    0.0000
     20 C10        0.3760    0.9586    6.1117 C.ar      1 RES1    0.0000
     21 C11        0.5450    1.1630    7.6284 C.ar      1 RES1    0.0000
     22 C12        1.8350    1.5706    7.9700 C.ar      1 RES1    0.0000
     23 C13        2.7878    1.7546    7.0153 C.ar      1 RES1    0.0000
     24 C14        2.5443    1.5588    5.6719 C.ar      1 RES1    0.0000
     25 C15        3.3346    2.3174    9.6818 C.3       1 RES1    0.0000
     26 C16        5.9462    3.7553    6.7286 C.ar      2 RES2    0.0000
     27 C17        5.6211    4.9579    7.2843 C.ar      2 RES2    0.0000
     28 C18        5.9322    5.2265    8.6111 C.ar      2 RES2    0.0000
     29 C19        6.5459    4.3085    9.3925 C.ar      2 RES2    0.0000
     30 C20        6.8442    3.0728    8.8342 C.ar      2 RES2    0.0000
     31 C21        6.5804    2.7636    7.5265 C.ar      2 RES2    0.0000
     32 C22        4.8981    5.9872    6.4469 C.3       2 RES2    0.0000
     33 C23        5.4234    4.6230    4.5146 C.3       2 RES2    0.0000
     34 C24        4.8734    4.2721    3.1329 C.ar      2 RES2    0.0000
     35 C25        5.6436    4.5021    2.0534 C.ar      2 RES2    0.0000
     36 C26        5.1769    4.2443    0.8603 C.ar      2 RES2    0.0000
     37 C27        3.8928    3.7725    0.6411 C.ar      2 RES2    0.0000
     38 C28        3.0037    3.5371    1.7029 C.ar      2 RES2    0.0000
     39 C29        3.5551    3.8324    3.0017 C.ar      2 RES2    0.0000
     40 C30        2.2700    3.0449   -0.9674 C.3       2 RES2    0.0000
     41 H1        -0.4934    3.4996    4.2495 H         1 RES1    0.0000
     42 H2        -0.0099   -0.8848   -0.3403 H         1 RES1    0.0000
     43 H3        -1.1628    0.7393   -1.6697 H         1 RES1    0.0000
     44 H4        -1.5950    2.8652   -0.7800 H         1 RES1    0.0000
     45 H5        -1.0308    3.3541    1.4862 H         1 RES1    0.0000
     46 H6         0.3749   -1.6038    2.0993 H         1 RES1    0.0000
     47 H7         1.7491   -0.8356    1.8086 H         1 RES1    0.0000
     48 H8         1.9815    1.1726    3.2528 H         1 RES1    0.0000
     49 H9        -0.5046    0.7083    5.7675 H         1 RES1    0.0000
     50 H10       -0.1731    1.0239    8.2759 H         1 RES1    0.0000
     51 H11        3.6846    2.0371    7.2932 H         1 RES1    0.0000
     52 H12        3.2484    1.7632    5.0244 H         1 RES1    0.0000
     53 H13        3.4728    3.1733    9.2242 H         1 RES1    0.0000
     54 H14        3.3810    2.4544   10.6505 H         1 RES1    0.0000
     55 H15        4.0290    1.6840    9.4065 H         1 RES1    0.0000
     56 H16        6.3756    1.9643    4.2826 Du        3 SUP3    0.0000
     57 H17        5.7126    6.1027    8.9871 H         2 RES2    0.0000
     58 H18        6.7627    4.5075   10.3255 H         2 RES2    0.0000
     59 H19        7.2637    2.3923    9.4014 H         2 RES2    0.0000
     60 H20        6.8190    1.8894    7.1543 H         2 RES2    0.0000
     61 H21        5.4946    6.7500    6.2965 H         2 RES2    0.0000
     62 H22        4.1006    6.2878    6.9312 H         2 RES2    0.0000
     63 H23        6.2727    5.1002    4.4101 H         2 RES2    0.0000
     64 H24        6.5530    4.8595    2.1630 H         2 RES2    0.0000
     65 H25        5.7642    4.3909    0.0867 H         2 RES2    0.0000
     66 H26        2.0932    3.2022    1.5728 H         2 RES2    0.0000
     67 H27        2.9964    3.7243    3.7996 H         2 RES2    0.0000
     68 H28        2.1781    2.1580   -0.5595 H         2 RES2    0.0000
     69 H29        2.1631    2.9711   -1.9387 H         2 RES2    0.0000
     70 H30        1.5807    3.6419   -0.6080 H         2 RES2    0.0000
@<TRIPOS>BOND
     1    1   17 1
     2    2    9 1
     3    4   22 1
     4    5   32 1
     5    7   10 1
     6    8   37 1
     7    9   11 1
     8   10   26 1
     9   11   12 ar
    10   12   13 ar
    11   13   14 ar
    12   14   15 ar
    13   15   16 ar
    14   16   11 ar
    15   17   12 1
    16   18    1 1
    17   19   18 1
    18   20   19 ar
    19   21   20 ar
    20   22   21 ar
    21   23   22 ar
    22   24   19 ar
    23   25    4 1
    24   26   27 ar
    25   27   28 ar
    26   28   29 ar
    27   29   30 ar
    28   30   31 ar
    29   31   26 ar
    30   32   27 1
    31   33    5 1
    32   34   33 1
    33   35   34 ar
    34   36   35 ar
    35   37   36 ar
    36   38   37 ar
    37   39   34 ar
    38   40    8 1
    39   41    2 1
    40   42   13 1
    41   43   14 1
    42   44   15 1
    43   45   16 1
    44   46   17 1
    45   47   17 1
    46   48   18 1
    47   49   20 1
    48   50   21 1
    49   51   23 1
    50   52   24 1
    51   53   25 1
    52   54   25 1
    53   55   25 1
    54   57   28 1
    55   58   29 1
    56   59   30 1
    57   60   31 1
    58   61   32 1
    59   62   32 1
    60   63   33 1
    61   64   35 1
    62   65   36 1
    63   66   38 1
    64   67   39 1
    65   68   40 1
    66   69   40 1
    67   70   40 1
    68    9   18 1
    69   10   33 1
    70   23   24 ar
    71   38   39 ar
@<TRIPOS>SUBSTRUCTURE
     1 RES1 1
     2 RES2 5
     3 SUP3 3

@<TRIPOS>CRYSIN
   9.3790   10.6990   12.9392  90.0000  99.9160  90.0000   7 2

