# MOL2 file generated by ConQuest
# Please check atom types

@<TRIPOS>MOLECULE
HITREH
    41    39     2
SMALL
USER_CHARGES
****
Generated from CSD

@<TRIPOS>ATOM
      1 O1         0.3158    3.2527    3.3269 O.2       1 RES1   -1.0000
      2 O2         0.4012    0.9737    6.3320 O.3       1 RES1    0.0000
      3 O3         0.4688   -0.4024    4.2749 Du        2 SUP2    0.0000
      4 N1        -0.4432    2.3641    2.7304 N.pl3     1 RES1    1.0000
      5 N2         4.0240    2.7398   -2.0375 N.3       1 RES1    0.0000
      6 C1        -1.5673    1.8639    3.5268 C.ar      1 RES1    0.0000
      7 C2        -1.3248    1.0621    4.6277 C.ar      1 RES1    0.0000
      8 C3        -2.4370    0.6463    5.3529 C.ar      1 RES1    0.0000
      9 C4        -3.7175    1.0408    5.0184 C.ar      1 RES1    0.0000
     10 C5        -3.9241    1.8512    3.9221 C.ar      1 RES1    0.0000
     11 C6        -2.8336    2.2545    3.1683 C.ar      1 RES1    0.0000
     12 C7         0.0510    0.5824    5.0276 C.3       1 RES1    0.0000
     13 C8        -0.2597    1.9380    1.5169 C.2       1 RES1    0.0000
     14 C9         0.7982    2.3026    0.6102 C.ar      1 RES1    0.0000
     15 C10        1.8768    3.1509    0.9101 C.ar      1 RES1    0.0000
     16 C11        2.9153    3.3197    0.0230 C.ar      1 RES1    0.0000
     17 C12        2.9507    2.6506   -1.2124 C.ar      1 RES1    0.0000
     18 C13        1.8258    1.8788   -1.5537 C.ar      1 RES1    0.0000
     19 C14        0.8009    1.7084   -0.6619 C.ar      1 RES1    0.0000
     20 C15        5.2324    3.4231   -1.6111 C.3       1 RES1    0.0000
     21 C16        4.0913    1.9964   -3.2809 C.3       1 RES1    0.0000
     22 H1        -0.1379    0.3235    6.9525 H         1 RES1    0.0000
     23 H2        -2.3077    0.0560    6.1251 H         1 RES1    0.0000
     24 H3        -4.4787    0.7457    5.5597 H         1 RES1    0.0000
     25 H4        -4.8294    2.1369    3.6797 H         1 RES1    0.0000
     26 H5        -2.9666    2.8195    2.3776 H         1 RES1    0.0000
     27 H6         0.7071    0.9524    4.4013 H         1 RES1    0.0000
     28 H7         0.6803    1.3296    4.9529 Du        2 SUP2    0.0000
     29 H8         0.0687   -0.3961    4.9782 H         1 RES1    0.0000
     30 H9         0.0196    0.2730    5.9573 Du        2 SUP2    0.0000
     31 H10       -0.9175    1.2949    1.1802 H         1 RES1    0.0000
     32 H11        1.8898    3.6306    1.7651 H         1 RES1    0.0000
     33 H12        3.6510    3.9226    0.2597 H         1 RES1    0.0000
     34 H13        1.7757    1.4590   -2.4374 H         1 RES1    0.0000
     35 H14        0.0386    1.1497   -0.9216 H         1 RES1    0.0000
     36 H15        5.5950    2.9804   -0.8159 H         1 RES1    0.0000
     37 H16        5.8955    3.3931   -2.3328 H         1 RES1    0.0000
     38 H17        5.0223    4.3566   -1.3997 H         1 RES1    0.0000
     39 H18        4.0436    1.0361   -3.0901 H         1 RES1    0.0000
     40 H19        3.3413    2.2529   -3.8566 H         1 RES1    0.0000
     41 H20        4.9359    2.1969   -3.7360 H         1 RES1    0.0000
@<TRIPOS>BOND
     1    1    4 1
     2    2   12 1
     3    4    6 1
     4    5   17 1
     5    6    7 ar
     6    7    8 ar
     7    8    9 ar
     8    9   10 ar
     9   10   11 ar
    10   11    6 ar
    11   12    7 1
    12   13    4 2
    13   14   13 1
    14   15   14 ar
    15   16   15 ar
    16   17   16 ar
    17   18   17 ar
    18   19   14 ar
    19   20    5 1
    20   21    5 1
    21   22    2 1
    22   23    8 1
    23   24    9 1
    24   25   10 1
    25   26   11 1
    26   27   12 1
    27   29   12 1
    28   31   13 1
    29   32   15 1
    30   33   16 1
    31   34   18 1
    32   35   19 1
    33   36   20 1
    34   37   20 1
    35   38   20 1
    36   39   21 1
    37   40   21 1
    38   41   21 1
    39   18   19 ar
@<TRIPOS>SUBSTRUCTURE
     1 RES1 1
     2 SUP2 3

@<TRIPOS>CRYSIN
   7.6870    7.8910   11.5053  90.0000  92.7810  90.0000   4 1

