# MOL2 file generated by ConQuest
# Please check atom types

@<TRIPOS>MOLECULE
HIVKUU
    99    96     3
SMALL
NO_CHARGES
****
Generated from CSD

@<TRIPOS>ATOM
      1 O1         2.8984   -0.5958    7.0700 O.3       1 RES1    0.0000
      2 O2         5.1071    6.9503    4.1137 O.3       1 RES1    0.0000
      3 N1         2.4938    0.7644    7.1709 N.2       1 RES1    0.0000
      4 N2         4.6505    0.5170    7.7765 N.2       1 RES1    0.0000
      5 N3         5.2896    6.0369    5.1787 N.2       1 RES1    0.0000
      6 N4         3.1855    6.6724    5.0630 N.2       1 RES1    0.0000
      7 C1         3.8794    5.0489    6.8646 C.ar      1 RES1    0.0000
      8 C2         3.7666    3.6628    6.6588 C.ar      1 RES1    0.0000
      9 C3         3.6260    2.8223    7.7765 C.ar      1 RES1    0.0000
     10 C4         3.5388    3.3525    9.0695 C.ar      1 RES1    0.0000
     11 C5         3.6046    4.7347    9.2005 C.ar      1 RES1    0.0000
     12 H1         3.5068    5.1013   10.0494 H         1 RES1    0.0000
     13 C6         3.8088    5.5989    8.1372 C.ar      1 RES1    0.0000
     14 C7         3.5800    1.3571    7.5758 C.2       1 RES1    0.0000
     15 C8         4.1810   -0.6469    7.4448 C.2       1 RES1    0.0000
     16 C9         4.8465   -1.9622    7.4073 C.3       1 RES1    0.0000
     17 H2         4.2188   -2.6307    7.1215 H         1 RES1    0.0000
     18 H3         5.1701   -2.1823    8.2835 H         1 RES1    0.0000
     19 H4         5.5830   -1.9320    6.7932 H         1 RES1    0.0000
     20 C10        4.1250    5.9308    5.6993 C.2       1 RES1    0.0000
     21 C11        3.8396    7.2725    4.1324 C.2       1 RES1    0.0000
     22 C12        3.3717    8.2289    3.0929 C.3       1 RES1    0.0000
     23 H5         4.1155    8.4981    2.5502 H         1 RES1    0.0000
     24 H6         2.9888    9.0005    3.5165 H         1 RES1    0.0000
     25 H7         2.7101    7.8033    2.5434 H         1 RES1    0.0000
     26 C13        3.7722    3.0873    5.2603 C.3       1 RES1    0.0000
     27 H8         3.0972    2.3930    5.2025 H         1 RES1    0.0000
     28 H9         3.5347    3.7858    4.6309 H         1 RES1    0.0000
     29 C14        5.0631    2.5269    4.8861 C.3       1 RES1    0.0000
     30 H10        5.0121    2.1757    3.9929 H         1 RES1    0.0000
     31 H11        5.2955    1.8225    5.4951 H         1 RES1    0.0000
     32 H12        5.7321    3.2155    4.9201 H         1 RES1    0.0000
     33 C15        3.3506    2.4811   10.2944 C.3       1 RES1    0.0000
     34 H13        2.6276    2.8433   10.8303 H         1 RES1    0.0000
     35 H14        3.0913    1.5918   10.0103 H         1 RES1    0.0000
     36 C16        4.5127    2.3859   11.0974 C.3       1 RES1    0.0000
     37 H15        4.3309    1.8336   11.8596 H         1 RES1    0.0000
     38 H16        4.7714    3.2627   11.3917 H         1 RES1    0.0000
     39 H17        5.2249    1.9986   10.5836 H         1 RES1    0.0000
     40 C17        4.2094    7.1076    8.2818 C.3       1 RES1    0.0000
     41 H18        5.1160    7.2166    7.9552 H         1 RES1    0.0000
     42 H19        3.6290    7.6347    7.7102 H         1 RES1    0.0000
     43 C18        4.1358    7.6430    9.6207 C.3       1 RES1    0.0000
     44 H20        4.0488    8.5987    9.5782 H         1 RES1    0.0000
     45 H21        4.9406    7.4181   10.0971 H         1 RES1    0.0000
     46 H22        3.3800    7.2703   10.0749 H         1 RES1    0.0000
     47 C19        3.5937    7.0799    8.4111 Du        3 SUP3    0.0000
     48 H23        3.3500    7.5574    7.6030 Du        3 SUP3    0.0000
     49 H24        2.9134    7.2200    9.0865 Du        3 SUP3    0.0000
     50 C20        4.9678    7.4982    8.9096 Du        3 SUP3    0.0000
     51 H25        5.0178    8.4567    8.9402 Du        3 SUP3    0.0000
     52 H26        5.6407    7.1602    8.3158 Du        3 SUP3    0.0000
     53 H27        5.1096    7.1435    9.7908 Du        3 SUP3    0.0000
     54 O3        -1.1495   -5.7393   -1.9343 O.3       2 RES2    0.0000
     55 O4        -0.7633    0.8382    3.4264 O.3       2 RES2    0.0000
     56 N5        -1.9004   -5.2333   -0.8574 N.2       2 RES2    0.0000
     57 N6        -1.4627   -3.6528   -2.2899 N.2       2 RES2    0.0000
     58 N7        -1.3783    0.4418    2.2440 N.2       2 RES2    0.0000
     59 N8        -1.8106   -1.0445    3.8126 N.2       2 RES2    0.0000
     60 C21       -2.7262   -1.4457    1.5158 C.ar      2 RES2    0.0000
     61 C22       -2.0221   -2.3389    0.7145 C.ar      2 RES2    0.0000
     62 C23       -2.7532   -3.0936   -0.2280 C.ar      2 RES2    0.0000
     63 C24       -4.1414   -2.9493   -0.3624 C.ar      2 RES2    0.0000
     64 C25       -4.7690   -2.0320    0.4423 C.ar      2 RES2    0.0000
     65 H28       -5.6861   -1.9154    0.3454 H         2 RES2    0.0000
     66 C26       -4.1056   -1.2725    1.3899 C.ar      2 RES2    0.0000
     67 C27       -2.0163   -4.0095   -1.1109 C.2       2 RES2    0.0000
     68 C28       -0.9271   -4.7375   -2.7339 C.2       2 RES2    0.0000
     69 C29       -0.1814   -5.1270   -3.9061 C.3       2 RES2    0.0000
     70 H29        0.0330   -6.0616   -3.8534 H         2 RES2    0.0000
     71 H30        0.6297   -4.6159   -3.9538 H         2 RES2    0.0000
     72 H31       -0.7101   -4.9637   -4.6904 H         2 RES2    0.0000
     73 C30       -1.9773   -0.6646    2.5281 C.2       2 RES2    0.0000
     74 C31       -1.0809   -0.1303    4.3502 C.2       2 RES2    0.0000
     75 C32       -0.4825    0.1082    5.6295 C.3       2 RES2    0.0000
     76 H32       -0.0104    0.9446    5.6091 H         2 RES2    0.0000
     77 H33        0.1308   -0.6017    5.8320 H         2 RES2    0.0000
     78 H34       -1.1670    0.1428    6.3015 H         2 RES2    0.0000
     79 C33       -0.5465   -2.5339    0.8694 C.3       2 RES2    0.0000
     80 H35       -0.1648   -2.7520    0.0034 H         2 RES2    0.0000
     81 H36       -0.1473   -1.7012    1.1671 H         2 RES2    0.0000
     82 C34       -0.1983   -3.6161    1.8408 C.3       2 RES2    0.0000
     83 H37        0.7566   -3.7008    1.8969 H         2 RES2    0.0000
     84 H38       -0.5759   -4.4474    1.5431 H         2 RES2    0.0000
     85 H39       -0.5523   -3.3965    2.7050 H         2 RES2    0.0000
     86 C35       -4.9314   -3.7616   -1.3712 C.3       2 RES2    0.0000
     87 H40       -5.5268   -3.1581   -1.8408 H         2 RES2    0.0000
     88 H41       -4.3076   -4.1166   -2.0228 H         2 RES2    0.0000
     89 C36       -5.6683   -4.7869   -0.9034 C.3       2 RES2    0.0000
     90 H42       -6.1304   -5.2089   -1.6315 H         2 RES2    0.0000
     91 H43       -6.3079   -4.4577   -0.2671 H         2 RES2    0.0000
     92 H44       -5.0935   -5.4269   -0.4764 H         2 RES2    0.0000
     93 C37       -4.8824   -0.2899    2.2321 C.3       2 RES2    0.0000
     94 H45       -4.2905    0.4321    2.4958 H         2 RES2    0.0000
     95 H46       -5.5908    0.0927    1.6911 H         2 RES2    0.0000
     96 C38       -5.4711   -0.8729    3.4315 C.3       2 RES2    0.0000
     97 H47       -5.9380   -0.1934    3.9231 H         2 RES2    0.0000
     98 H48       -4.7770   -1.2446    3.9810 H         2 RES2    0.0000
     99 H49       -6.0862   -1.5663    3.1814 H         2 RES2    0.0000
@<TRIPOS>BOND
     1    1    3 1
     2    2    5 1
     3    3   14 2
     4    4   14 1
     5    5   20 2
     6    6   20 1
     7    7    8 ar
     8    8    9 ar
     9    9   10 ar
    10   10   11 ar
    11   11   12 1
    12   13    7 ar
    13   14    9 1
    14   15    1 1
    15   16   15 1
    16   17   16 1
    17   18   16 1
    18   19   16 1
    19   20    7 1
    20   21    2 1
    21   22   21 1
    22   23   22 1
    23   24   22 1
    24   25   22 1
    25   26    8 1
    26   27   26 1
    27   28   26 1
    28   29   26 1
    29   30   29 1
    30   31   29 1
    31   32   29 1
    32   33   10 1
    33   34   33 1
    34   35   33 1
    35   36   33 1
    36   37   36 1
    37   38   36 1
    38   39   36 1
    39   40   13 1
    40   41   40 1
    41   42   40 1
    42   43   40 1
    43   44   43 1
    44   45   43 1
    45   46   43 1
    46   54   56 1
    47   55   58 1
    48   56   67 2
    49   57   67 1
    50   58   73 2
    51   59   73 1
    52   60   61 ar
    53   61   62 ar
    54   62   63 ar
    55   63   64 ar
    56   64   65 1
    57   66   60 ar
    58   67   62 1
    59   68   54 1
    60   69   68 1
    61   70   69 1
    62   71   69 1
    63   72   69 1
    64   73   60 1
    65   74   55 1
    66   75   74 1
    67   76   75 1
    68   77   75 1
    69   78   75 1
    70   79   61 1
    71   80   79 1
    72   81   79 1
    73   82   79 1
    74   83   82 1
    75   84   82 1
    76   85   82 1
    77   86   63 1
    78   87   86 1
    79   88   86 1
    80   89   86 1
    81   90   89 1
    82   91   89 1
    83   92   89 1
    84   93   66 1
    85   94   93 1
    86   95   93 1
    87   96   93 1
    88   97   96 1
    89   98   96 1
    90   99   96 1
    91    4   15 2
    92    6   21 2
    93   11   13 ar
    94   57   68 2
    95   59   74 2
    96   64   66 ar
@<TRIPOS>SUBSTRUCTURE
     1 RES1 1
     2 RES2 54
     3 SUP3 47

@<TRIPOS>CRYSIN
   8.2930   12.9260   17.4670  93.9700 102.1800  93.5900   2 1

