# MOL2 file generated by ConQuest
# Please check atom types

@<TRIPOS>MOLECULE
HIVLAA
    56    54     2
SMALL
USER_CHARGES
****
Generated from CSD

@<TRIPOS>ATOM
      1 O1         3.3416    1.1599    0.2096 O.co2     1 RES1    0.0000
      2 O2         5.4426    1.1577   -0.5560 O.co2     1 RES1   -1.0000
      3 O3         4.1706    7.0537    6.2860 O.2       1 RES1    0.0000
      4 O4         2.8223    7.8746    4.8484 O.2       1 RES1    0.0000
      5 N1         6.3221   -0.2952    1.5293 N.4       1 RES1    1.0000
      6 N2         5.3694    4.5620    3.4062 N.3       1 RES1    0.0000
      7 N3         5.8821    5.3644    5.4768 N.3       1 RES1    0.0000
      8 N4         4.0780    6.2414    4.1589 N.2       1 RES1    0.0000
      9 N5         3.7115    7.0665    5.1402 N.pl3     1 RES1    0.0000
     10 C1         4.5739    0.9457    0.3100 C.2       1 RES1    0.0000
     11 C2         5.0276    0.4374    1.6746 C.3       1 RES1    0.0000
     12 C3         5.1503    1.6119    2.6530 C.3       1 RES1    0.0000
     13 C4         6.3018    2.5510    2.3455 C.3       1 RES1    0.0000
     14 C5         6.4919    3.6399    3.3747 C.3       1 RES1    0.0000
     15 C6         5.1358    5.3913    4.4028 C.2       1 RES1    0.0000
     16 O5         6.0901    6.7197   12.1255 O.co2     2 RES2    0.0000
     17 O6         4.0821    6.4274   13.0476 O.co2     2 RES2   -1.0000
     18 O7        -1.0166   11.0834    6.2894 O.2       2 RES2    0.0000
     19 O8        -1.7791   12.1536    8.0111 O.2       2 RES2    0.0000
     20 N6         3.0867    5.1188   10.9088 N.4       2 RES2    1.0000
     21 N7         1.6552    9.4978    8.8479 N.3       2 RES2    0.0000
     22 N8         1.0433    9.5653    6.6465 N.3       2 RES2    0.0000
     23 N9        -0.0399   10.8884    8.3457 N.2       2 RES2    0.0000
     24 N10       -0.9425   11.3672    7.5121 N.pl3     2 RES2    0.0000
     25 C7         4.8804    6.3710   12.1064 C.2       2 RES2    0.0000
     26 C8         4.3999    5.8238   10.7514 C.3       2 RES2    0.0000
     27 C9         4.3088    6.8853    9.6652 C.3       2 RES2    0.0000
     28 C10        3.2763    7.9958    9.9195 C.3       2 RES2    0.0000
     29 C11        2.6454    8.4580    8.6239 C.3       2 RES2    0.0000
     30 C12        0.8851    9.9736    7.8877 C.2       2 RES2    0.0000
     31 H1         4.3727   -0.1429    1.9495 H         1 RES1    0.0000
     32 H2         6.7174   -0.5269    2.3370 H         1 RES1    0.0000
     33 H3         6.1060   -1.0630    1.1624 H         1 RES1    0.0000
     34 H4         6.9411    0.1237    0.9687 H         1 RES1    0.0000
     35 H5         5.2118    1.2731    3.5600 H         1 RES1    0.0000
     36 H6         4.3175    2.1224    2.5671 H         1 RES1    0.0000
     37 H7         7.0810    2.0478    2.2886 H         1 RES1    0.0000
     38 H8         6.1804    2.9660    1.4773 H         1 RES1    0.0000
     39 H9         7.3801    4.0558    3.1362 H         1 RES1    0.0000
     40 H10        6.6300    3.2854    4.2744 H         1 RES1    0.0000
     41 H11        4.9375    4.7052    2.7971 H         1 RES1    0.0000
     42 H12        6.5452    4.8216    5.5700 H         1 RES1    0.0000
     43 H13        5.7157    5.8954    6.1271 H         1 RES1    0.0000
     44 H14        5.0515    5.1261   10.4983 H         2 RES2    0.0000
     45 H15        3.1908    4.2991   11.3823 H         2 RES2    0.0000
     46 H16        2.8391    4.8839   10.0745 H         2 RES2    0.0000
     47 H17        2.4712    5.6640   11.3581 H         2 RES2    0.0000
     48 H18        4.1001    6.4334    8.7910 H         2 RES2    0.0000
     49 H19        5.1406    7.2808    9.5877 H         2 RES2    0.0000
     50 H20        3.6572    8.7041   10.3772 H         2 RES2    0.0000
     51 H21        2.5896    7.6917   10.5468 H         2 RES2    0.0000
     52 H22        2.2576    7.7238    8.1613 H         2 RES2    0.0000
     53 H23        3.3278    8.7955    7.9918 H         2 RES2    0.0000
     54 H24        1.5295    9.8064    9.6144 H         2 RES2    0.0000
     55 H25        1.7109    8.9629    6.4419 H         2 RES2    0.0000
     56 H26        0.5101    9.8128    6.0544 H         2 RES2    0.0000
@<TRIPOS>BOND
     1    1   10 2
     2    2   10 1
     3    3    9 2
     4    4    9 2
     5    5   11 1
     6    6   14 1
     7    7   15 1
     8    8    9 1
     9   10   11 1
    10   11   12 1
    11   12   13 1
    12   13   14 1
    13   14   39 1
    14   15    6 1
    15   16   25 2
    16   17   25 1
    17   18   24 2
    18   19   24 2
    19   20   26 1
    20   21   29 1
    21   22   30 1
    22   23   24 1
    23   25   26 1
    24   26   27 1
    25   27   28 1
    26   28   29 1
    27   29   52 1
    28   30   21 1
    29   31   11 1
    30   32    5 1
    31   33    5 1
    32   34    5 1
    33   35   12 1
    34   36   12 1
    35   37   13 1
    36   38   13 1
    37   40   14 1
    38   41    6 1
    39   42    7 1
    40   43    7 1
    41   44   26 1
    42   45   20 1
    43   46   20 1
    44   47   20 1
    45   48   27 1
    46   49   27 1
    47   50   28 1
    48   51   28 1
    49   53   29 1
    50   54   21 1
    51   55   22 1
    52   56   22 1
    53    8   15 2
    54   23   30 2
@<TRIPOS>SUBSTRUCTURE
     1 RES1 1
     2 RES2 16

@<TRIPOS>CRYSIN
   5.1071    7.4594   12.2210  82.2300  89.0100  82.5200   1 1

