# MOL2 file generated by ConQuest
# Please check atom types

@<TRIPOS>MOLECULE
HIVLAA01
    56    54     2
SMALL
USER_CHARGES
****
Generated from CSD

@<TRIPOS>ATOM
      1 O1         2.0511    1.2323    5.7837 O.co2     1 RES1    0.0000
      2 O2         4.0657    1.5437    4.8452 O.co2     1 RES1   -1.0000
      3 O3        -3.1184    5.8408   -0.9800 O.2       1 RES1    0.0000
      4 O4        -3.8696    6.9256    0.7485 O.2       1 RES1    0.0000
      5 N1         1.0508   -0.0642    3.6267 N.4       1 RES1    1.0000
      6 N2        -0.4055    4.2866    1.5784 N.3       1 RES1    0.0000
      7 N3        -2.1121    5.6716    1.0739 N.2       1 RES1    0.0000
      8 N4        -3.0319    6.1407    0.2479 N.pl3     1 RES1    0.0000
      9 N5        -1.0517    4.3261   -0.6379 N.3       1 RES1    0.0000
     10 C1         2.8554    1.1870    4.8238 C.2       1 RES1    0.0000
     11 C2         2.3681    0.6314    3.4749 C.3       1 RES1    0.0000
     12 C3         2.2860    1.7024    2.3807 C.3       1 RES1    0.0000
     13 C4         1.2511    2.8137    2.6395 C.3       1 RES1    0.0000
     14 C5         0.5907    3.2473    1.3366 C.3       1 RES1    0.0000
     15 C6        -1.1899    4.7527    0.6154 C.2       1 RES1    0.0000
     16 O5         2.4714    4.9662    5.0177 O.co2     2 RES2    0.0000
     17 O6         4.5892    5.0003    4.2635 O.co2     2 RES2   -1.0000
     18 O7         3.3145   10.9189   11.1016 O.2       2 RES2    0.0000
     19 O8         1.9396   11.7403    9.6522 O.2       2 RES2    0.0000
     20 N6         5.4682    3.5351    6.3607 N.4       2 RES2    1.0000
     21 N7         4.4718    8.3921    8.2049 N.3       2 RES2    0.0000
     22 N8         3.1914   10.0849    8.9794 N.2       2 RES2    0.0000
     23 N9         2.8346   10.9247    9.9523 N.pl3     2 RES2    0.0000
     24 N10        5.0514    9.2384   10.2709 N.3       2 RES2    0.0000
     25 C7         3.7154    4.7649    5.1211 C.2       2 RES2    0.0000
     26 C8         4.1678    4.2603    6.4964 C.3       2 RES2    0.0000
     27 C9         4.2677    5.4435    7.4681 C.3       2 RES2    0.0000
     28 C10        5.4294    6.3849    7.1493 C.3       2 RES2    0.0000
     29 C11        5.6135    7.4800    8.1874 C.3       2 RES2    0.0000
     30 C12        4.2558    9.2390    9.2092 C.2       2 RES2    0.0000
     31 H1         0.3948    0.5295    4.0935 H         1 RES1    0.0000
     32 H2         0.7208   -0.3642    2.7314 H         1 RES1    0.0000
     33 H3         1.1578   -0.9273    4.1188 H         1 RES1    0.0000
     34 H4        -0.5551    4.6436    2.4990 H         1 RES1    0.0000
     35 H5        -1.7488    4.6838   -1.3344 H         1 RES1    0.0000
     36 H6        -0.3468    3.6555   -0.8719 H         1 RES1    0.0000
     37 H7         3.0701   -0.1337    3.1794 H         1 RES1    0.0000
     38 H8         2.0539    1.1925    1.4572 H         1 RES1    0.0000
     39 H9         3.2574    2.1635    2.2786 H         1 RES1    0.0000
     40 H10        0.4699    2.4468    3.2890 H         1 RES1    0.0000
     41 H11        1.7126    3.6589    3.1277 H         1 RES1    0.0000
     42 H12        1.3592    3.5877    0.6588 H         1 RES1    0.0000
     43 H13        0.0832    2.4105    0.8780 H         1 RES1    0.0000
     44 H14        5.9301    3.3453    7.2272 H         2 RES2    0.0000
     45 H15        6.1262    4.0409    5.8025 H         2 RES2    0.0000
     46 H16        5.2518    2.6771    5.8964 H         2 RES2    0.0000
     47 H17        3.8978    8.5173    7.3970 H         2 RES2    0.0000
     48 H18        5.7978    8.5761   10.3188 H         2 RES2    0.0000
     49 H19        4.7709    9.8437   11.0811 H         2 RES2    0.0000
     50 H20        3.4359    3.5497    6.8515 H         2 RES2    0.0000
     51 H21        3.3389    5.9883    7.3826 H         2 RES2    0.0000
     52 H22        4.3412    5.0469    8.4689 H         2 RES2    0.0000
     53 H23        5.3237    6.8245    6.1698 H         2 RES2    0.0000
     54 H24        6.3253    5.7837    7.1200 H         2 RES2    0.0000
     55 H25        6.5178    8.0231    7.9522 H         2 RES2    0.0000
     56 H26        5.6916    7.0589    9.1782 H         2 RES2    0.0000
@<TRIPOS>BOND
     1    1   10 2
     2    2   10 1
     3    3    8 2
     4    4    8 2
     5    5   11 1
     6    6   14 1
     7    7    8 1
     8    9   15 1
     9   10   11 1
    10   11   12 1
    11   12   13 1
    12   13   14 1
    13   14   42 1
    14   15    6 1
    15   16   25 2
    16   17   25 1
    17   18   23 2
    18   19   23 2
    19   20   26 1
    20   21   29 1
    21   22   23 1
    22   24   30 1
    23   25   26 1
    24   26   27 1
    25   27   28 1
    26   28   29 1
    27   29   55 1
    28   30   21 1
    29   31    5 1
    30   32    5 1
    31   33    5 1
    32   34    6 1
    33   35    9 1
    34   36    9 1
    35   37   11 1
    36   38   12 1
    37   39   12 1
    38   40   13 1
    39   41   13 1
    40   43   14 1
    41   44   20 1
    42   45   20 1
    43   46   20 1
    44   47   21 1
    45   48   24 1
    46   49   24 1
    47   50   26 1
    48   51   27 1
    49   52   27 1
    50   53   28 1
    51   54   28 1
    52   56   29 1
    53    7   15 2
    54   22   30 2
@<TRIPOS>SUBSTRUCTURE
     1 RES1 1
     2 RES2 16

@<TRIPOS>CRYSIN
   5.0847    7.3940   12.1779  81.4901  88.4779  83.0205   1 1

