# MOL2 file generated by ConQuest
# Please check atom types

@<TRIPOS>MOLECULE
HIVWIU
    40    41     1
SMALL
NO_CHARGES
****
Generated from CSD

@<TRIPOS>ATOM
      1 O1         3.7902    1.4439    1.9957 O.3       1 RES1    0.0000
      2 O2         5.7006    3.8022    3.7022 O.2       1 RES1    0.0000
      3 O3         5.1925   -0.9553    2.5668 O.3       1 RES1    0.0000
      4 O4         3.7661   -2.5406    1.9054 O.2       1 RES1    0.0000
      5 O5         4.3978   -2.8424    9.0983 O.2       1 RES1    0.0000
      6 O6         3.7925   -4.8011    8.4500 O.2       1 RES1    0.0000
      7 N1         4.1162   -3.6441    8.2254 N.pl3     1 RES1    0.0000
      8 C1         3.8210    2.7406    2.6055 C.3       1 RES1    0.0000
      9 C2         5.2794    2.9100    3.0083 C.2       1 RES1    0.0000
     10 C3         6.0690    1.7990    2.3993 C.3       1 RES1    0.0000
     11 H1         6.3634    1.1683    3.0745 H         1 RES1    0.0000
     12 H2         6.8433    2.1393    1.9243 H         1 RES1    0.0000
     13 C4         5.0821    1.1556    1.4444 C.3       1 RES1    0.0000
     14 H3         5.1578    1.5914    0.5700 H         1 RES1    0.0000
     15 C5         5.1935   -0.3297    1.2564 C.3       1 RES1    0.0000
     16 H4         4.4461   -0.6553    0.7313 H         1 RES1    0.0000
     17 H5         6.0145   -0.5447    0.7865 H         1 RES1    0.0000
     18 C6         4.3946   -1.9988    2.7726 C.2       1 RES1    0.0000
     19 C7         2.9000    2.7137    3.8129 C.3       1 RES1    0.0000
     20 H6         1.9987    2.5529    3.5249 H         1 RES1    0.0000
     21 H7         2.9441    3.5580    4.2685 H         1 RES1    0.0000
     22 H8         3.1742    2.0131    4.4095 H         1 RES1    0.0000
     23 C8         3.4377    3.8303    1.5833 C.3       1 RES1    0.0000
     24 H9         3.5514    4.6998    1.9979 H         1 RES1    0.0000
     25 H10        4.0489    3.7807    0.8314 H         1 RES1    0.0000
     26 C9         2.0458    3.7210    1.0756 C.2       1 RES1    0.0000
     27 H11        1.8032    2.9142    0.6823 H         1 RES1    0.0000
     28 C10        1.1363    4.6455    1.1287 C.2       1 RES1    0.0000
     29 H12        1.3324    5.4698    1.5127 H         1 RES1    0.0000
     30 H13        0.2883    4.4834    0.7834 H         1 RES1    0.0000
     31 C11        4.3606   -2.4087    4.2046 C.ar      1 RES1    0.0000
     32 C12        4.7495   -1.5423    5.2233 C.ar      1 RES1    0.0000
     33 H14        5.0724   -0.6962    5.0152 H         1 RES1    0.0000
     34 C13        4.6578   -1.9384    6.5408 C.ar      1 RES1    0.0000
     35 H15        4.9045   -1.3620    7.2275 H         1 RES1    0.0000
     36 C14        4.1913   -3.2062    6.8207 C.ar      1 RES1    0.0000
     37 C15        3.7966   -4.0839    5.8286 C.ar      1 RES1    0.0000
     38 H16        3.4858   -4.9349    6.0407 H         1 RES1    0.0000
     39 C16        3.8747   -3.6685    4.5205 C.ar      1 RES1    0.0000
     40 H17        3.5991   -4.2393    3.8395 H         1 RES1    0.0000
@<TRIPOS>BOND
     1    1    8 1
     2    2    9 2
     3    3   15 1
     4    4   18 2
     5    5    7 2
     6    6    7 2
     7    7   36 1
     8    8    9 1
     9    9   10 1
    10   10   11 1
    11   12   10 1
    12   13    1 1
    13   14   13 1
    14   15   13 1
    15   16   15 1
    16   17   15 1
    17   18    3 1
    18   19    8 1
    19   20   19 1
    20   21   19 1
    21   22   19 1
    22   23    8 1
    23   24   23 1
    24   25   23 1
    25   26   23 1
    26   27   26 1
    27   28   26 2
    28   29   28 1
    29   30   28 1
    30   31   18 1
    31   32   31 ar
    32   33   32 1
    33   34   32 ar
    34   35   34 1
    35   36   34 ar
    36   37   36 ar
    37   38   37 1
    38   39   31 ar
    39   40   39 1
    40   10   13 1
    41   37   39 ar
@<TRIPOS>SUBSTRUCTURE
     1 RES1 1

@<TRIPOS>CRYSIN
   7.5175   10.5792   11.8536 115.1530 102.9500  96.9010   2 1

