# MOL2 file generated by ConQuest
# Please check atom types

@<TRIPOS>MOLECULE
HIVZES
    20    20     1
SMALL
NO_CHARGES
****
Generated from CSD

@<TRIPOS>ATOM
      1 N1         2.4842   -1.2042    0.4890 N.2       1 RES1    0.0000
      2 N2         1.9723   -0.0771    0.9858 N.3       1 RES1    0.0000
      3 N3         1.7577   -1.6982   -0.4202 N.pl3     1 RES1    0.0000
      4 C1         2.0694    1.7435    2.4752 C.ar      1 RES1    0.0000
      5 H1         1.3363    2.0974    2.0264 H         1 RES1    0.0000
      6 C2         3.6852    1.9196    4.2075 C.ar      1 RES1    0.0000
      7 H2         4.0420    2.3753    4.9352 H         1 RES1    0.0000
      8 C3         2.6032    0.5600    2.0651 C.ar      1 RES1    0.0000
      9 C4         3.7074    0.0442    2.7144 C.ar      1 RES1    0.0000
     10 H3         4.0894   -0.7561    2.4340 H         1 RES1    0.0000
     11 O1         0.6941   -1.1812   -0.8136 O.2       1 RES1    0.0000
     12 C5         2.1995   -2.9318   -1.0717 C.3       1 RES1    0.0000
     13 H4         1.5320   -3.6113   -0.9564 H         1 RES1    0.0000
     14 H5         3.0249   -3.2233   -0.6777 H         1 RES1    0.0000
     15 H6         2.3319   -2.7693   -2.0074 H         1 RES1    0.0000
     16 C6         4.2389    0.7431    3.7930 C.ar      1 RES1    0.0000
     17 H7         4.9809    0.4033    4.2385 H         1 RES1    0.0000
     18 C7         2.6038    2.4201    3.5453 C.ar      1 RES1    0.0000
     19 H8         2.2263    3.2244    3.8171 H         1 RES1    0.0000
     20 H9         1.1645    0.1766    0.7397 H         1 RES1    0.0000
@<TRIPOS>BOND
     1    1    2 1
     2    2    8 1
     3    3    1 2
     4    4    5 1
     5    6    7 1
     6    8    4 ar
     7    9    8 ar
     8   10    9 1
     9   11    3 1
    10   12    3 1
    11   13   12 1
    12   14   12 1
    13   15   12 1
    14   16    6 ar
    15   17   16 1
    16   18    4 ar
    17   19   18 1
    18   20    2 1
    19    6   18 ar
    20    9   16 ar
@<TRIPOS>SUBSTRUCTURE
     1 RES1 1

@<TRIPOS>CRYSIN
   7.8875    5.8883   17.2298  90.0000  93.2700  90.0000 231 1

