# MOL2 file generated by ConQuest
# Please check atom types

@<TRIPOS>MOLECULE
HIWSUD
    62    63     1
SMALL
NO_CHARGES
****
Generated from CSD

@<TRIPOS>ATOM
      1 O1         2.2114   14.0071   24.4184 O.2       1 RES1    0.0000
      2 O2         0.4425   14.7518   23.4304 O.2       1 RES1    0.0000
      3 O3        -0.0010   14.2286   18.6211 O.2       1 RES1    0.0000
      4 O4         1.7007   13.4531   17.5234 O.2       1 RES1    0.0000
      5 O5         4.0900   14.5638   15.2634 O.2       1 RES1    0.0000
      6 O6         5.8749   14.7497   14.0769 O.2       1 RES1    0.0000
      7 O7         8.4160   10.8676   12.9220 O.2       1 RES1    0.0000
      8 O8         7.6383    8.9078   13.4077 O.2       1 RES1    0.0000
      9 O9         5.2109   10.9059   21.9986 O.2       1 RES1    0.0000
     10 O10        4.5906   10.3763   19.8969 O.3       1 RES1    0.0000
     11 O11        2.9274   10.2197   17.2806 O.2       1 RES1    0.0000
     12 O12        4.6452    8.7525   17.3256 O.3       1 RES1    0.0000
     13 O13        6.0403    7.1259   19.4515 O.3       1 RES1    0.0000
     14 H1         5.7276    6.2543   19.4615 H         1 RES1    0.0000
     15 N1         1.5073   14.1501   23.4352 N.pl3     1 RES1    0.0000
     16 N2         1.0979   13.6956   18.5650 N.pl3     1 RES1    0.0000
     17 N3         5.0781   14.0941   14.7239 N.pl3     1 RES1    0.0000
     18 N4         7.5987   10.1264   13.4596 N.pl3     1 RES1    0.0000
     19 C1         1.9583   13.5607   22.1612 C.ar      1 RES1    0.0000
     20 C2         1.2984   13.9230   21.0049 C.ar      1 RES1    0.0000
     21 H2         0.5793   14.5428   21.0098 H         1 RES1    0.0000
     22 C3         1.7443   13.3310   19.8369 C.ar      1 RES1    0.0000
     23 C4         2.7545   12.3921   19.8110 C.ar      1 RES1    0.0000
     24 H3         3.0141   11.9840   18.9930 H         1 RES1    0.0000
     25 C5         3.3864   12.0523   20.9994 C.ar      1 RES1    0.0000
     26 C6         2.9966   12.6633   22.1942 C.ar      1 RES1    0.0000
     27 H4         3.4401   12.4629   23.0104 H         1 RES1    0.0000
     28 C7         4.4879   11.0621   21.0490 C.2       1 RES1    0.0000
     29 C8         5.5898    9.3374   19.8253 C.3       1 RES1    0.0000
     30 H5         6.1214    9.3274   20.6614 H         1 RES1    0.0000
     31 H6         6.2046    9.5168   19.0692 H         1 RES1    0.0000
     32 C9         4.9113    7.9805   19.6283 C.3       1 RES1    0.0000
     33 C10        4.0088    7.9693   18.3885 C.3       1 RES1    0.0000
     34 H7         3.1309    8.3884   18.6215 H         1 RES1    0.0000
     35 C11        4.0023    9.8375   16.8951 C.2       1 RES1    0.0000
     36 C12        4.8055   10.5743   15.8858 C.ar      1 RES1    0.0000
     37 C13        4.5425   11.9336   15.7376 C.ar      1 RES1    0.0000
     38 H8         3.8515   12.3525   16.2356 H         1 RES1    0.0000
     39 C14        5.3082   12.6548   14.8511 C.ar      1 RES1    0.0000
     40 C15        6.3184   12.0985   14.0901 C.ar      1 RES1    0.0000
     41 H9         6.8450   12.6211   13.4943 H         1 RES1    0.0000
     42 C16        6.5188   10.7435   14.2428 C.ar      1 RES1    0.0000
     43 C17        5.8052    9.9640   15.1296 C.ar      1 RES1    0.0000
     44 H10        5.9896    9.0359   15.2226 H         1 RES1    0.0000
     45 C18        4.0694    7.5949   20.8510 C.3       1 RES1    0.0000
     46 H11        3.4496    8.3405   21.0490 H         1 RES1    0.0000
     47 H12        3.5187    6.8081   20.6129 H         1 RES1    0.0000
     48 C19        4.8421    7.2706   22.1146 C.3       1 RES1    0.0000
     49 H13        5.3202    8.0782   22.4289 H         1 RES1    0.0000
     50 H14        5.5156    6.5708   21.9213 H         1 RES1    0.0000
     51 C20        3.9016    6.7827   23.2021 C.3       1 RES1    0.0000
     52 H15        3.4070    6.0003   22.8789 H         1 RES1    0.0000
     53 H16        3.2707    7.4973   23.4327 H         1 RES1    0.0000
     54 H17        4.4202    6.5375   23.9957 H         1 RES1    0.0000
     55 C21        3.7572    6.5818   17.7959 C.3       1 RES1    0.0000
     56 H18        4.6136    6.2085   17.4701 H         1 RES1    0.0000
     57 H19        3.4140    5.9837   18.5062 H         1 RES1    0.0000
     58 C22        2.7716    6.6183   16.6620 C.2       1 RES1    0.0000
     59 H20        1.8551    6.7394   16.8817 H         1 RES1    0.0000
     60 C23        3.0788    6.4958   15.3956 C.2       1 RES1    0.0000
     61 H21        3.9842    6.3730   15.1372 H         1 RES1    0.0000
     62 H22        2.3958    6.5292   14.7357 H         1 RES1    0.0000
@<TRIPOS>BOND
     1    1   15 2
     2    2   15 2
     3    3   16 2
     4    4   16 2
     5    5   17 2
     6    6   17 2
     7    7   18 2
     8    8   18 2
     9    9   28 2
    10   10   28 1
    11   11   35 2
    12   12   33 1
    13   13   14 1
    14   15   19 1
    15   16   22 1
    16   17   39 1
    17   18   42 1
    18   19   20 ar
    19   20   21 1
    20   22   20 ar
    21   23   22 ar
    22   24   23 1
    23   25   23 ar
    24   26   19 ar
    25   27   26 1
    26   28   25 1
    27   29   10 1
    28   30   29 1
    29   31   29 1
    30   32   13 1
    31   33   32 1
    32   34   33 1
    33   35   12 1
    34   36   35 1
    35   37   36 ar
    36   38   37 1
    37   39   37 ar
    38   40   39 ar
    39   41   40 1
    40   42   40 ar
    41   43   36 ar
    42   44   43 1
    43   45   32 1
    44   46   45 1
    45   47   45 1
    46   48   45 1
    47   49   48 1
    48   50   48 1
    49   51   48 1
    50   52   51 1
    51   53   51 1
    52   54   51 1
    53   55   33 1
    54   56   55 1
    55   57   55 1
    56   58   55 1
    57   59   58 1
    58   60   58 2
    59   61   60 1
    60   62   60 1
    61   25   26 ar
    62   29   32 1
    63   42   43 ar
@<TRIPOS>SUBSTRUCTURE
     1 RES1 1

@<TRIPOS>CRYSIN
   5.0110   20.8200   23.0750  90.0000  90.0000  90.0000  19 1

