# MOL2 file generated by ConQuest
# Please check atom types

@<TRIPOS>MOLECULE
HIXDOI
    47    49     1
SMALL
NO_CHARGES
****
Generated from CSD

@<TRIPOS>ATOM
      1 C1         5.2439    5.0732   10.3074 C.3       1 RES1    0.0000
      2 N1         4.1557   12.4033    6.0736 N.pl3     1 RES1    0.0000
      3 O1         3.7186   11.9473    5.0138 O.2       1 RES1    0.0000
      4 C2         4.3651    5.4346    9.0833 C.3       1 RES1    0.0000
      5 H1         4.4960    4.8444    8.3783 H         1 RES1    0.0000
      6 H2         3.5008    5.3122    9.3633 H         1 RES1    0.0000
      7 O2         4.3420   13.5964    6.2751 O.2       1 RES1    0.0000
      8 C3         4.8021    6.8828    8.7818 C.3       1 RES1    0.0000
      9 H3         5.6747    6.8380    8.2953 H         1 RES1    0.0000
     10 O3         7.6397    5.4124   10.1240 O.2       1 RES1    0.0000
     11 C4         3.8482    7.7755    7.9476 C.3       1 RES1    0.0000
     12 O4         6.6999    3.6473    9.0898 O.3       1 RES1    0.0000
     13 C5         4.3583    9.2079    8.0271 C.ar      1 RES1    0.0000
     14 O5         3.6547    3.3381   10.9449 O.2       1 RES1    0.0000
     15 O6         5.5966    3.5516   12.0585 O.3       1 RES1    0.0000
     16 C6         4.1290   10.1251    6.9958 C.ar      1 RES1    0.0000
     17 H4         3.6082    9.9197    6.1829 H         1 RES1    0.0000
     18 C7         4.4696   11.4510    7.1584 C.ar      1 RES1    0.0000
     19 C8         5.0419   11.9468    8.3202 C.ar      1 RES1    0.0000
     20 H5         5.2321   12.7995    8.4377 H         1 RES1    0.0000
     21 C9         5.2779   11.0340    9.3443 C.ar      1 RES1    0.0000
     22 H6         5.6702   11.4426   10.2178 H         1 RES1    0.0000
     23 C10        4.9412    9.6976    9.2292 C.ar      1 RES1    0.0000
     24 C11        5.1660    8.7673   10.3566 C.2       1 RES1    0.0000
     25 H7         5.3774    9.1887   11.2146 H         1 RES1    0.0000
     26 C12        5.0767    7.4628   10.1571 C.2       1 RES1    0.0000
     27 C13        5.2164    6.3338   11.1648 C.3       1 RES1    0.0000
     28 H8         6.0844    6.4051   11.7724 H         1 RES1    0.0000
     29 H9         4.3368    6.2775   11.7724 H         1 RES1    0.0000
     30 C14        2.4153    7.7779    8.5113 C.3       1 RES1    0.0000
     31 H10        1.9793    6.8902    8.4021 H         1 RES1    0.0000
     32 H11        1.9066    8.2386    7.9274 H         1 RES1    0.0000
     33 H12        2.4759    8.0063    9.4583 H         1 RES1    0.0000
     34 C15        3.8086    7.2383    6.5057 C.3       1 RES1    0.0000
     35 H13        4.7103    7.4243    6.0642 H         1 RES1    0.0000
     36 H14        3.5591    6.2714    6.4914 H         1 RES1    0.0000
     37 H15        2.9443    7.7614    6.0405 H         1 RES1    0.0000
     38 C16        6.6711    4.7499    9.8526 C.2       1 RES1    0.0000
     39 C17        8.0065    3.2768    8.5872 C.3       1 RES1    0.0000
     40 H16        8.6347    3.2081    9.3040 H         1 RES1    0.0000
     41 H17        7.8183    2.4148    8.0461 H         1 RES1    0.0000
     42 H18        8.3408    3.9278    7.9867 H         1 RES1    0.0000
     43 C18        4.7081    3.8775   11.1043 C.2       1 RES1    0.0000
     44 C19        5.1920    2.5012   12.9817 C.3       1 RES1    0.0000
     45 H19        4.3682    2.7680   13.3745 H         1 RES1    0.0000
     46 H20        5.6334    2.6706   13.7424 H         1 RES1    0.0000
     47 H21        4.8597    1.8716   12.5200 H         1 RES1    0.0000
@<TRIPOS>BOND
     1    1    4 1
     2    2    3 2
     3    4    5 1
     4    6    4 1
     5    7    2 2
     6    8    4 1
     7    9    8 1
     8   10   38 2
     9   11    8 1
    10   12   38 1
    11   13   11 1
    12   14   43 2
    13   15   43 1
    14   16   13 ar
    15   17   16 1
    16   18    2 1
    17   19   18 ar
    18   20   19 1
    19   21   19 ar
    20   22   21 1
    21   23   13 ar
    22   24   23 1
    23   25   24 1
    24   26    8 1
    25   27    1 1
    26   28   27 1
    27   29   27 1
    28   30   11 1
    29   31   30 1
    30   32   30 1
    31   33   30 1
    32   34   11 1
    33   35   34 1
    34   36   34 1
    35   37   34 1
    36   38    1 1
    37   39   12 1
    38   40   39 1
    39   41   39 1
    40   42   39 1
    41   43    1 1
    42   44   15 1
    43   45   44 1
    44   46   44 1
    45   47   44 1
    46   16   18 ar
    47   21   23 ar
    48   24   26 2
    49   26   27 1
@<TRIPOS>SUBSTRUCTURE
     1 RES1 1

@<TRIPOS>CRYSIN
   6.8152   10.6690   12.3890  81.1930  75.2970  85.6500   2 1

