# MOL2 file generated by ConQuest
# Please check atom types

@<TRIPOS>MOLECULE
HIXLUX
    40    41     1
SMALL
NO_CHARGES
****
Generated from CSD

@<TRIPOS>ATOM
      1 C1         0.6026    2.5834    4.5129 C.2       1 RES1    0.0000
      2 N1         0.3996    1.6423    3.5626 N.3       1 RES1    0.0000
      3 N2         1.5594    3.5600    4.2095 N.pl3     1 RES1    0.0000
      4 N3        -0.0246    2.4777    5.6441 N.2       1 RES1    0.0000
      5 C2         1.3410    1.3600    2.4957 C.3       1 RES1    0.0000
      6 H1         0.9871    1.6809    1.6623 H         1 RES1    0.0000
      7 H2         1.4854    0.4119    2.4383 H         1 RES1    0.0000
      8 H3         2.1748    1.7997    2.6800 H         1 RES1    0.0000
      9 C3        -0.7291    0.7382    3.6812 C.3       1 RES1    0.0000
     10 H4        -0.4605   -0.0471    4.1642 H         1 RES1    0.0000
     11 H5        -1.0322    0.4875    2.8051 H         1 RES1    0.0000
     12 H6        -1.4409    1.1764    4.1514 H         1 RES1    0.0000
     13 C4         2.6040    3.8447    5.1846 C.3       1 RES1    0.0000
     14 H7         2.4548    3.3216    5.9748 H         1 RES1    0.0000
     15 H8         2.5846    4.7781    5.4109 H         1 RES1    0.0000
     16 H9         3.4598    3.6233    4.8108 H         1 RES1    0.0000
     17 C5         1.4845    4.3121    3.0184 C.ar      1 RES1    0.0000
     18 C6         0.2649    4.4695    2.3560 C.ar      1 RES1    0.0000
     19 H10       -0.5061    4.0861    2.7076 H         1 RES1    0.0000
     20 C7         0.2013    5.1946    1.1808 C.ar      1 RES1    0.0000
     21 H11       -0.6137    5.2818    0.7400 H         1 RES1    0.0000
     22 C8         1.3229    5.7870    0.6537 C.ar      1 RES1    0.0000
     23 H12        1.2745    6.2676   -0.1421 H         1 RES1    0.0000
     24 C9         2.5199    5.6574    1.3226 C.ar      1 RES1    0.0000
     25 H13        3.2815    6.0686    0.9796 H         1 RES1    0.0000
     26 C10        2.6125    4.9300    2.4904 C.ar      1 RES1    0.0000
     27 H14        3.4297    4.8529    2.9259 H         1 RES1    0.0000
     28 C11       -0.1361    3.5446    6.5234 C.ar      1 RES1    0.0000
     29 C12       -0.2045    3.2453    7.8909 C.ar      1 RES1    0.0000
     30 H15       -0.1787    2.3559    8.1608 H         1 RES1    0.0000
     31 C13       -0.3071    4.2304    8.8414 C.ar      1 RES1    0.0000
     32 H16       -0.3421    4.0113    9.7446 H         1 RES1    0.0000
     33 C14       -0.3582    5.5502    8.4379 C.ar      1 RES1    0.0000
     34 C15       -0.3566    5.8935    7.0948 C.ar      1 RES1    0.0000
     35 H17       -0.4181    6.7845    6.8357 H         1 RES1    0.0000
     36 C16       -0.2611    4.8976    6.1510 C.ar      1 RES1    0.0000
     37 H18       -0.2798    5.1213    5.2497 H         1 RES1    0.0000
     38 N4        -0.4359    6.5970    9.4410 N.pl3     1 RES1    0.0000
     39 O1        -0.6257    6.2800   10.6095 O.2       1 RES1    0.0000
     40 O2        -0.3160    7.7611    9.0859 O.2       1 RES1    0.0000
@<TRIPOS>BOND
     1    1    2 1
     2    2    5 1
     3    3    1 1
     4    4    1 2
     5    5    6 1
     6    7    5 1
     7    8    5 1
     8    9    2 1
     9   10    9 1
    10   11    9 1
    11   12    9 1
    12   13    3 1
    13   14   13 1
    14   15   13 1
    15   16   13 1
    16   17    3 1
    17   18   17 ar
    18   19   18 1
    19   20   18 ar
    20   21   20 1
    21   22   20 ar
    22   23   22 1
    23   24   22 ar
    24   25   24 1
    25   26   17 ar
    26   27   26 1
    27   28    4 1
    28   29   28 ar
    29   30   29 1
    30   31   29 ar
    31   32   31 1
    32   33   31 ar
    33   34   33 ar
    34   35   34 1
    35   36   28 ar
    36   37   36 1
    37   38   33 1
    38   39   38 2
    39   40   38 2
    40   24   26 ar
    41   34   36 ar
@<TRIPOS>SUBSTRUCTURE
     1 RES1 1

@<TRIPOS>CRYSIN
  18.4090    7.7140   22.4930  90.0000 109.5030  90.0000  15 1

