# MOL2 file generated by ConQuest
# Please check atom types

@<TRIPOS>MOLECULE
HIYDIC
    35    36     1
SMALL
NO_CHARGES
****
Generated from CSD

@<TRIPOS>ATOM
      1 C1         1.2119    6.4073    7.0691 C.ar      1 RES1    0.0000
      2 C2         2.5101    6.6941    6.6398 C.ar      1 RES1    0.0000
      3 C3         3.4624    7.1418    7.5276 C.ar      1 RES1    0.0000
      4 C4         3.1495    7.2997    8.8628 C.ar      1 RES1    0.0000
      5 C5         1.8775    7.0219    9.3052 C.ar      1 RES1    0.0000
      6 C6         0.9119    6.5884    8.4165 C.ar      1 RES1    0.0000
      7 C7         0.1772    5.8821    6.1719 C.2       1 RES1    0.0000
      8 C8         0.3440    5.5168    4.9047 C.2       1 RES1    0.0000
      9 C9        -0.7848    4.9211    4.1464 C.2       1 RES1    0.0000
     10 O1        -1.8781    4.7346    4.6704 O.2       1 RES1    0.0000
     11 N1        -0.5827    4.5896    2.8442 N.am      1 RES1    0.0000
     12 C10        0.6661    4.6956    2.0957 C.3       1 RES1    0.0000
     13 C11       -1.6895    4.0206    2.1306 C.ar      1 RES1    0.0000
     14 C12       -2.3113    4.7663    1.1376 C.ar      1 RES1    0.0000
     15 C13       -3.3629    4.2304    0.4126 C.ar      1 RES1    0.0000
     16 C14       -3.8280    2.9576    0.6880 C.ar      1 RES1    0.0000
     17 C15       -3.2554    2.2177    1.7027 C.ar      1 RES1    0.0000
     18 C16       -2.1754    2.7465    2.3920 C.ar      1 RES1    0.0000
     19 N2        -1.5502    1.8954    3.4312 N.pl3     1 RES1    0.0000
     20 O2        -0.3369    1.8550    3.4817 O.2       1 RES1    0.0000
     21 O3        -2.2962    1.2749    4.1562 O.2       1 RES1    0.0000
     22 H1         2.7890    6.5239    5.7145 H         1 RES1    0.0000
     23 H2         4.3343    7.3181    7.2142 H         1 RES1    0.0000
     24 H3         1.6074    7.1716   10.2650 H         1 RES1    0.0000
     25 H4         1.1809    5.6384    4.4501 H         1 RES1    0.0000
     26 H5         3.8368    7.6030    9.5079 H         1 RES1    0.0000
     27 H6         0.0188    6.4081    8.7217 H         1 RES1    0.0000
     28 H7        -0.6718    5.7276    6.5786 H         1 RES1    0.0000
     29 H8         1.3441    5.1558    2.5501 H         1 RES1    0.0000
     30 H9         0.9776    3.8389    1.8234 H         1 RES1    0.0000
     31 H10        0.5589    5.2736    1.2618 H         1 RES1    0.0000
     32 H11       -2.0235    5.7051    0.9830 H         1 RES1    0.0000
     33 H12       -3.7896    4.7428   -0.2550 H         1 RES1    0.0000
     34 H13       -4.7603    2.6399    0.1150 H         1 RES1    0.0000
     35 H14       -3.5736    1.3538    1.9370 H         1 RES1    0.0000
@<TRIPOS>BOND
     1    1    2 ar
     2    2    3 ar
     3    3    4 ar
     4    4    5 ar
     5    5    6 ar
     6    6    1 ar
     7    7    1 1
     8    8    7 2
     9    9    8 1
    10   10    9 2
    11   11    9 1
    12   12   11 1
    13   13   11 1
    14   14   13 ar
    15   15   14 ar
    16   16   15 ar
    17   17   16 ar
    18   18   13 ar
    19   19   18 1
    20   20   19 2
    21   21   19 2
    22   22    2 1
    23   23    3 1
    24   24    5 1
    25   25    8 1
    26   26    4 1
    27   27    6 1
    28   28    7 1
    29   29   12 1
    30   30   12 1
    31   31   12 1
    32   32   14 1
    33   33   15 1
    34   34   16 1
    35   35   17 1
    36   17   18 ar
@<TRIPOS>SUBSTRUCTURE
     1 RES1 1

@<TRIPOS>CRYSIN
  10.3870   10.2480   13.8570  90.0000 107.5400  90.0000 231 1

