# MOL2 file generated by ConQuest
# Please check atom types

@<TRIPOS>MOLECULE
HIYMIL
    12    12     1
SMALL
USER_CHARGES
****
Generated from CSD

@<TRIPOS>ATOM
      1 N1         3.6219    6.5490    1.6392 N.ar      1 RES1    0.0000
      2 N2         4.7897    6.0996    1.1000 N.pl3     1 RES1    1.0000
      3 H1         5.5514    6.6982    0.9738 H         1 RES1    0.0000
      4 C1         4.6907    4.8663    0.6755 C.ar      1 RES1    0.0000
      5 H2         5.3190    4.4027    0.2236 H         1 RES1    0.0000
      6 N3         3.4330    4.4835    0.9388 N.pl3     1 RES1    0.0000
      7 C2         2.8112    5.5390    1.5241 C.ar      1 RES1    0.0000
      8 H3         1.9063    5.5103    1.8466 H         1 RES1    0.0000
      9 N4         2.7285    3.3312    0.5453 N.2       1 RES1   -1.0000
     10 N5         3.3523    2.2431    0.9521 N.pl3     1 RES1    0.0000
     11 O1         2.7422    1.1774    0.6744 O.2       1 RES1    0.0000
     12 O2         4.4331    2.2481    1.5494 O.2       1 RES1    0.0000
@<TRIPOS>BOND
     1    1    2 ar
     2    2    3 1
     3    4    2 ar
     4    5    4 1
     5    6    4 ar
     6    7    1 ar
     7    8    7 1
     8    9    6 1
     9   10    9 1
    10   11   10 2
    11   12   10 2
    12    6    7 ar
@<TRIPOS>SUBSTRUCTURE
     1 RES1 1

@<TRIPOS>CRYSIN
   9.2989   14.0570    3.6066  90.0000  90.0000  90.0000  19 1

