# MOL2 file generated by ConQuest
# Please check atom types

@<TRIPOS>MOLECULE
HIYROX
    65    68     1
SMALL
NO_CHARGES
****
Generated from CSD

@<TRIPOS>ATOM
      1 O1         2.3339   10.1510    2.5500 O.3       1 RES1    0.0000
      2 O2         0.9874   12.5509    3.0912 O.3       1 RES1    0.0000
      3 O3         2.2977   11.6898    6.3748 O.3       1 RES1    0.0000
      4 O4         2.6858    8.3837    4.7868 O.3       1 RES1    0.0000
      5 O5         4.6084    8.2600    5.9394 O.2       1 RES1    0.0000
      6 O6         2.4679    1.5255    4.4748 O.2       1 RES1    0.0000
      7 O7         4.4824    1.4251    5.2368 O.2       1 RES1    0.0000
      8 O8         0.2034   10.2479    1.5970 O.3       1 RES1    0.0000
      9 O9         2.6350   12.8092    1.4608 O.3       1 RES1    0.0000
     10 O10        0.0966   11.9629    5.6230 O.3       1 RES1    0.0000
     11 N1         3.4914    2.0456    4.8901 N.pl3     1 RES1    0.0000
     12 C1         2.7566    9.8274    4.8982 C.3       1 RES1    0.0000
     13 H1         3.6982   10.1347    4.7539 H         1 RES1    0.0000
     14 C2         1.8496   10.4416    3.8588 C.3       1 RES1    0.0000
     15 H2         0.9196   10.0881    3.9654 H         1 RES1    0.0000
     16 C3         1.5337   10.7352    1.5258 C.3       1 RES1    0.0000
     17 C4         1.3657   12.2696    1.7369 C.3       1 RES1    0.0000
     18 C5         1.8570   11.9486    4.0492 C.3       1 RES1    0.0000
     19 H3         2.7850   12.2852    3.8945 H         1 RES1    0.0000
     20 C6         1.4308   12.3346    5.4491 C.3       1 RES1    0.0000
     21 H4         1.5127   13.3251    5.5572 H         1 RES1    0.0000
     22 C7         2.2758   10.2619    6.2686 C.3       1 RES1    0.0000
     23 H5         1.3542    9.9327    6.4166 H         1 RES1    0.0000
     24 H6         2.8584    9.8691    6.9658 H         1 RES1    0.0000
     25 C8         3.7056    7.7215    5.3554 C.2       1 RES1    0.0000
     26 C9         3.6006    6.2408    5.1902 C.ar      1 RES1    0.0000
     27 C10        4.7511    5.4877    5.4722 C.ar      1 RES1    0.0000
     28 H7         5.5510    5.9243    5.7403 H         1 RES1    0.0000
     29 C11        4.7196    4.1087    5.3614 C.ar      1 RES1    0.0000
     30 H8         5.4912    3.5845    5.5407 H         1 RES1    0.0000
     31 C12        3.5355    3.5224    4.9826 C.ar      1 RES1    0.0000
     32 C13        2.3913    4.2260    4.7115 C.ar      1 RES1    0.0000
     33 H9         1.5935    3.7767    4.4586 H         1 RES1    0.0000
     34 C14        2.4249    5.6135    4.8151 C.ar      1 RES1    0.0000
     35 H10        1.6470    6.1263    4.6301 H         1 RES1    0.0000
     36 C15        0.0420    8.8405    1.4648 C.3       1 RES1    0.0000
     37 H11        0.3527    8.5579    0.5790 H         1 RES1    0.0000
     38 H12       -0.9049    8.6088    1.5670 H         1 RES1    0.0000
     39 H13        0.5679    8.3856    2.1542 H         1 RES1    0.0000
     40 C16        2.2338   10.3919    0.2384 C.3       1 RES1    0.0000
     41 H14        3.1230   10.8044    0.2309 H         1 RES1    0.0000
     42 H15        1.7111   10.7296   -0.5179 H         1 RES1    0.0000
     43 H16        2.3252    9.4184    0.1650 H         1 RES1    0.0000
     44 C17        2.6978   14.2392    1.3691 C.3       1 RES1    0.0000
     45 H17        2.3126   14.5303    0.5163 H         1 RES1    0.0000
     46 H18        3.6321   14.5289    1.4219 H         1 RES1    0.0000
     47 H19        2.1908   14.6362    2.1081 H         1 RES1    0.0000
     48 C18        0.2614   12.8574    0.8896 C.3       1 RES1    0.0000
     49 H20        0.1533   13.8069    1.1068 H         1 RES1    0.0000
     50 H21       -0.5774   12.3827    1.0705 H         1 RES1    0.0000
     51 H22        0.4913   12.7627   -0.0577 H         1 RES1    0.0000
     52 C19       -0.4146   12.2724    6.9332 C.3       1 RES1    0.0000
     53 H23       -0.1785   13.2007    7.1819 H         1 RES1    0.0000
     54 H24       -0.0262   11.6578    7.6058 H         1 RES1    0.0000
     55 C20       -1.8958   12.1128    6.8852 C.ar      1 RES1    0.0000
     56 C21       -2.7461   13.2078    6.8156 C.ar      1 RES1    0.0000
     57 H25       -2.3882   14.0866    6.8487 H         1 RES1    0.0000
     58 C22       -4.1139   13.0269    6.6986 C.ar      1 RES1    0.0000
     59 H26       -4.6913   13.7800    6.6491 H         1 RES1    0.0000
     60 C23       -4.6409   11.7454    6.6514 C.ar      1 RES1    0.0000
     61 H27       -5.5794   11.6197    6.5733 H         1 RES1    0.0000
     62 C24       -3.8022   10.6533    6.7192 C.ar      1 RES1    0.0000
     63 H28       -4.1633    9.7744    6.6838 H         1 RES1    0.0000
     64 C25       -2.4459   10.8313    6.8387 C.ar      1 RES1    0.0000
     65 H29       -1.8748   10.0740    6.8900 H         1 RES1    0.0000
@<TRIPOS>BOND
     1    1   14 1
     2    2   17 1
     3    3   20 1
     4    4   12 1
     5    5   25 2
     6    6   11 2
     7    7   11 2
     8    8   16 1
     9    9   17 1
    10   10   20 1
    11   11   31 1
    12   12   13 1
    13   14   12 1
    14   15   14 1
    15   16    1 1
    16   17   16 1
    17   18    2 1
    18   19   18 1
    19   20   18 1
    20   21   20 1
    21   22    3 1
    22   23   22 1
    23   24   22 1
    24   25    4 1
    25   26   25 1
    26   27   26 ar
    27   28   27 1
    28   29   27 ar
    29   30   29 1
    30   31   29 ar
    31   32   31 ar
    32   33   32 1
    33   34   26 ar
    34   35   34 1
    35   36    8 1
    36   37   36 1
    37   38   36 1
    38   39   36 1
    39   40   16 1
    40   41   40 1
    41   42   40 1
    42   43   40 1
    43   44    9 1
    44   45   44 1
    45   46   44 1
    46   47   44 1
    47   48   17 1
    48   49   48 1
    49   50   48 1
    50   51   48 1
    51   52   10 1
    52   53   52 1
    53   54   52 1
    54   55   52 1
    55   56   55 ar
    56   57   56 1
    57   58   56 ar
    58   59   58 1
    59   60   58 ar
    60   61   60 1
    61   62   60 ar
    62   63   62 1
    63   64   55 ar
    64   65   64 1
    65   12   22 1
    66   14   18 1
    67   32   34 ar
    68   62   64 ar
@<TRIPOS>SUBSTRUCTURE
     1 RES1 1

@<TRIPOS>CRYSIN
  10.4974   14.1290   16.4950  90.0000  90.0000  90.0000  19 1

