# MOL2 file generated by ConQuest
# Please check atom types

@<TRIPOS>MOLECULE
HIZGUU
    36    38     1
SMALL
NO_CHARGES
****
Generated from CSD

@<TRIPOS>ATOM
      1 C1         2.0630    3.0376    2.5144 C.3       1 RES1    0.0000
      2 H1         2.8785    3.3464    3.0043 H         1 RES1    0.0000
      3 C2         0.8047    2.9234    3.3576 C.3       1 RES1    0.0000
      4 H2         0.3781    3.8163    3.5020 H         1 RES1    0.0000
      5 C3        -0.0934    2.0026    2.5489 C.3       1 RES1    0.0000
      6 H3        -0.9287    2.4631    2.2863 H         1 RES1    0.0000
      7 H4        -0.3215    1.1879    3.0639 H         1 RES1    0.0000
      8 C4         0.7517    1.6596    1.3269 C.3       1 RES1    0.0000
      9 H5         0.4823    0.8218    0.8528 H         1 RES1    0.0000
     10 C5         0.8379    2.9168    0.4277 C.3       1 RES1    0.0000
     11 H6         1.2789    2.7135   -0.4355 H         1 RES1    0.0000
     12 H7        -0.0593    3.2979    0.2540 H         1 RES1    0.0000
     13 C6         1.6894    3.8635    1.2792 C.3       1 RES1    0.0000
     14 H8         1.1720    4.6677    1.5372 H         1 RES1    0.0000
     15 H9         2.5004    4.1469    0.7880 H         1 RES1    0.0000
     16 C7         2.1537    1.6363    1.9195 C.3       1 RES1    0.0000
     17 H10        2.8596    1.5575    1.2313 H         1 RES1    0.0000
     18 H11        2.2669    0.9340    2.6077 H         1 RES1    0.0000
     19 C8         0.2702    2.3312    5.6066 C.2       1 RES1    0.0000
     20 C9         0.7224    1.6117    6.8402 C.ar      1 RES1    0.0000
     21 C10        1.4449    0.4189    6.8356 C.ar      1 RES1    0.0000
     22 C11        1.8723   -0.2072    7.9818 C.ar      1 RES1    0.0000
     23 H12        2.3800   -1.0096    7.9502 H         1 RES1    0.0000
     24 C12        1.5295    0.3848    9.1843 C.ar      1 RES1    0.0000
     25 C13        0.8128    1.5592    9.2574 C.ar      1 RES1    0.0000
     26 H13        0.5928    1.9424   10.0991 H         1 RES1    0.0000
     27 C14        0.4185    2.1697    8.0725 C.ar      1 RES1    0.0000
     28 H14       -0.0674    2.9850    8.1083 H         1 RES1    0.0000
     29 N1         1.7164   -0.2922    5.5721 N.pl3     1 RES1    0.0000
     30 N2         1.9372   -0.2956   10.4262 N.pl3     1 RES1    0.0000
     31 O1         1.1764    2.2877    4.6379 O.3       1 RES1    0.0000
     32 O2        -0.7879    2.9111    5.5501 O.2       1 RES1    0.0000
     33 O3         0.7665   -0.5063    4.8256 O.2       1 RES1    0.0000
     34 O4         2.8638   -0.6460    5.3622 O.2       1 RES1    0.0000
     35 O5         2.6733   -1.2660   10.3272 O.2       1 RES1    0.0000
     36 O6         1.5178    0.1491   11.4799 O.2       1 RES1    0.0000
@<TRIPOS>BOND
     1    1    2 1
     2    3    1 1
     3    4    3 1
     4    5    3 1
     5    6    5 1
     6    7    5 1
     7    8    5 1
     8    9    8 1
     9   10    8 1
    10   11   10 1
    11   12   10 1
    12   13    1 1
    13   14   13 1
    14   15   13 1
    15   16    1 1
    16   17   16 1
    17   18   16 1
    18   19   20 1
    19   20   21 ar
    20   21   22 ar
    21   22   23 1
    22   24   22 ar
    23   25   24 ar
    24   26   25 1
    25   27   20 ar
    26   28   27 1
    27   29   21 1
    28   30   24 1
    29   31    3 1
    30   32   19 2
    31   33   29 2
    32   34   29 2
    33   35   30 2
    34   36   30 2
    35    8   16 1
    36   10   13 1
    37   19   31 1
    38   25   27 ar
@<TRIPOS>SUBSTRUCTURE
     1 RES1 1

@<TRIPOS>CRYSIN
   8.9812   11.8079   25.9217  90.0000  90.0000  90.0000  61 1

