# MOL2 file generated by ConQuest
# Please check atom types

@<TRIPOS>MOLECULE
HIZHEF
    64    66     2
SMALL
NO_CHARGES
****
Generated from CSD

@<TRIPOS>ATOM
      1 O1         5.2868   12.1657    3.3375 O.3       1 RES1    0.0000
      2 C1         4.1405    8.1586    0.6991 C.ar      1 RES1    0.0000
      3 C2         5.1369   10.5287    1.6308 C.ar      1 RES1    0.0000
      4 N1         3.2412   14.6962    8.8045 N.pl3     1 RES1    0.0000
      5 C3         3.9527   14.3065    7.5745 C.ar      1 RES1    0.0000
      6 O2         3.5426   15.7610    9.3522 O.2       1 RES1    0.0000
      7 O3         6.7269   12.3302    1.6126 O.2       1 RES1    0.0000
      8 N2         3.6054    6.8928    0.1992 N.pl3     1 RES1    0.0000
      9 O4         2.3655   13.9395    9.2226 O.2       1 RES1    0.0000
     10 O5         3.8891    6.5349   -0.9521 O.2       1 RES1    0.0000
     11 C4         4.0906    9.9132    2.3045 C.ar      1 RES1    0.0000
     12 H1         3.7264   10.3085    3.0634 H         1 RES1    0.0000
     13 C5         3.5895    8.7047    1.8392 C.ar      1 RES1    0.0000
     14 H2         2.8983    8.2725    2.2872 H         1 RES1    0.0000
     15 C6         5.2240   13.6175    5.2274 C.ar      1 RES1    0.0000
     16 C7         4.2925   12.7558    5.7975 C.ar      1 RES1    0.0000
     17 H3         4.0998   11.9436    5.3864 H         1 RES1    0.0000
     18 C8         5.6737    9.9526    0.4849 C.ar      1 RES1    0.0000
     19 H4         6.3776   10.3686    0.0426 H         1 RES1    0.0000
     20 C9         5.7884   11.7634    2.1490 C.2       1 RES1    0.0000
     21 C10        3.6449   13.1063    6.9826 C.ar      1 RES1    0.0000
     22 H5         3.0171   12.5363    7.3649 H         1 RES1    0.0000
     23 C11        4.8874   15.1818    7.0494 C.ar      1 RES1    0.0000
     24 H6         5.0831   15.9872    7.4720 H         1 RES1    0.0000
     25 O6         2.9010    6.2214    0.9513 O.2       1 RES1    0.0000
     26 C12        5.1593    8.7537   -0.0046 C.ar      1 RES1    0.0000
     27 H7         5.4943    8.3676   -0.7820 H         1 RES1    0.0000
     28 C13        5.9518   13.3017    3.9422 C.3       1 RES1    0.0000
     29 H8         5.9235   14.0647    3.3445 H         1 RES1    0.0000
     30 H9         6.8810   13.0878    4.1264 H         1 RES1    0.0000
     31 C14        5.5242   14.8188    5.8701 C.ar      1 RES1    0.0000
     32 H10        6.1624   15.3881    5.5027 H         1 RES1    0.0000
     33 O7         8.4584    9.3993    2.4376 O.3       2 RES2    0.0000
     34 C15       10.8507    8.4013   -1.7770 C.ar      2 RES2    0.0000
     35 O8         8.4166   10.8333    4.1767 O.2       2 RES2    0.0000
     36 C16        6.8774    9.0031    4.1310 C.ar      2 RES2    0.0000
     37 C17        4.8103    7.5431    5.1745 C.ar      2 RES2    0.0000
     38 C18       10.8914   10.1924   -0.2292 C.ar      2 RES2    0.0000
     39 H11       11.2201   11.0217    0.0357 H         2 RES2    0.0000
     40 C19        9.9251    9.5459    0.5482 C.ar      2 RES2    0.0000
     41 O9        10.8570    6.6718   -3.3322 O.2       2 RES2    0.0000
     42 O10        3.2495    7.0871    6.8419 O.2       2 RES2    0.0000
     43 N3        11.3466    7.7494   -2.9990 N.pl3     2 RES2    0.0000
     44 C20       11.3602    9.6078   -1.3855 C.ar      2 RES2    0.0000
     45 H12       12.0160   10.0283   -1.8933 H         2 RES2    0.0000
     46 O11       12.2330    8.3247   -3.6429 O.2       2 RES2    0.0000
     47 N4         3.6912    6.7524    5.7388 N.pl3     2 RES2    0.0000
     48 C21        5.4699    7.0507    4.0585 C.ar      2 RES2    0.0000
     49 H13        5.2177    6.2431    3.6704 H         2 RES2    0.0000
     50 C22        9.8767    7.7379   -1.0434 C.ar      2 RES2    0.0000
     51 H14        9.5446    6.9155   -1.3233 H         2 RES2    0.0000
     52 C23        9.4842   10.2135    1.8312 C.3       2 RES2    0.0000
     53 H15       10.2379   10.3043    2.4358 H         2 RES2    0.0000
     54 H16        9.1357   11.0995    1.6423 H         2 RES2    0.0000
     55 C24        5.1445    8.7334    5.7825 C.ar      2 RES2    0.0000
     56 H17        4.6771    9.0337    6.5277 H         2 RES2    0.0000
     57 C25        9.4124    8.3380    0.1255 C.ar      2 RES2    0.0000
     58 H18        8.7490    7.9195    0.6254 H         2 RES2    0.0000
     59 O12        3.2640    5.8197    5.0858 O.2       2 RES2    0.0000
     60 C26        7.9843    9.8484    3.6105 C.2       2 RES2    0.0000
     61 C27        6.1925    9.4720    5.2562 C.ar      2 RES2    0.0000
     62 H19        6.4396   10.2772    5.6513 H         2 RES2    0.0000
     63 C28        6.5122    7.7943    3.5391 C.ar      2 RES2    0.0000
     64 H20        6.9722    7.4879    2.7905 H         2 RES2    0.0000
@<TRIPOS>BOND
     1    1   20 1
     2    2    8 1
     3    3   11 ar
     4    4    5 1
     5    5   21 ar
     6    6    4 2
     7    7   20 2
     8    8   10 2
     9    9    4 2
    10   11   12 1
    11   13    2 ar
    12   14   13 1
    13   15   16 ar
    14   16   17 1
    15   18    3 ar
    16   19   18 1
    17   20    3 1
    18   21   16 ar
    19   22   21 1
    20   23    5 ar
    21   24   23 1
    22   25    8 2
    23   26    2 ar
    24   27   26 1
    25   28    1 1
    26   29   28 1
    27   30   28 1
    28   31   15 ar
    29   32   31 1
    30   33   52 1
    31   34   43 1
    32   35   60 2
    33   36   60 1
    34   37   47 1
    35   38   39 1
    36   40   38 ar
    37   41   43 2
    38   42   47 2
    39   43   46 2
    40   44   34 ar
    41   45   44 1
    42   47   59 2
    43   48   37 ar
    44   49   48 1
    45   50   34 ar
    46   51   50 1
    47   52   40 1
    48   53   52 1
    49   54   52 1
    50   55   37 ar
    51   56   55 1
    52   57   40 ar
    53   58   57 1
    54   60   33 1
    55   61   36 ar
    56   62   61 1
    57   63   36 ar
    58   64   63 1
    59   11   13 ar
    60   15   28 1
    61   18   26 ar
    62   23   31 ar
    63   38   44 ar
    64   48   63 ar
    65   50   57 ar
    66   55   61 ar
@<TRIPOS>SUBSTRUCTURE
     1 RES1 1
     2 RES2 33

@<TRIPOS>CRYSIN
   9.5000   12.1777   13.0403  70.5570  69.6940  87.0760   2 1

