# MOL2 file generated by ConQuest
# Please check atom types

@<TRIPOS>MOLECULE
HIZQEO
    30    32     1
SMALL
NO_CHARGES
****
Generated from CSD

@<TRIPOS>ATOM
      1 C1         9.1265    4.4446   11.2880 C.ar      1 RES1    0.0000
      2 C2         8.3748    3.5496   10.5227 C.ar      1 RES1    0.0000
      3 H1         8.7643    2.9608    9.9173 H         1 RES1    0.0000
      4 C3         7.0163    3.6032   10.7305 C.ar      1 RES1    0.0000
      5 C4         6.3860    4.4807   11.6168 C.ar      1 RES1    0.0000
      6 H2         5.4603    4.4737   11.7034 H         1 RES1    0.0000
      7 C5         7.1433    5.3505   12.3557 C.ar      1 RES1    0.0000
      8 H3         6.7376    5.9351   12.9548 H         1 RES1    0.0000
      9 C6         8.5488    5.3503   12.1995 C.ar      1 RES1    0.0000
     10 C7         9.6719    6.0139   12.7958 C.2       1 RES1    0.0000
     11 C8         9.7143    7.0365   13.8465 C.ar      1 RES1    0.0000
     12 C9         8.5646    7.7232   14.2340 C.ar      1 RES1    0.0000
     13 H4         7.7559    7.5344   13.8146 H         1 RES1    0.0000
     14 C10        8.6055    8.6785   15.2297 C.ar      1 RES1    0.0000
     15 H5         7.8231    9.1230   15.4655 H         1 RES1    0.0000
     16 C11        9.7893    8.9901   15.8863 C.ar      1 RES1    0.0000
     17 C12       10.9434    8.3109   15.4860 C.ar      1 RES1    0.0000
     18 H6        11.7530    8.5087   15.9002 H         1 RES1    0.0000
     19 C13       10.9126    7.3543   14.4935 C.ar      1 RES1    0.0000
     20 H7        11.6968    6.9163   14.2513 H         1 RES1    0.0000
     21 C14        9.8317   10.0141   16.9834 C.3       1 RES1    0.0000
     22 H8         9.1921   10.7068   16.7992 H         1 RES1    0.0000
     23 H9        10.7115   10.3952   17.0322 H         1 RES1    0.0000
     24 H10        9.6175    9.5956   17.8214 H         1 RES1    0.0000
     25 N1        10.8124    5.5507   12.2815 N.2       1 RES1    0.0000
     26 N2        10.4726    4.6083   11.3734 N.pl3     1 RES1    0.0000
     27 N3         6.1726    2.6490   10.0133 N.pl3     1 RES1    0.0000
     28 O1         6.7039    1.8670    9.2262 O.2       1 RES1    0.0000
     29 O2         4.9624    2.6572   10.2270 O.2       1 RES1    0.0000
     30 H11       11.1271    4.1525   10.9494 H         1 RES1    0.0000
@<TRIPOS>BOND
     1    1    2 ar
     2    2    3 1
     3    4    2 ar
     4    5    4 ar
     5    6    5 1
     6    7    5 ar
     7    8    7 1
     8    9    1 ar
     9   10    9 1
    10   11   10 1
    11   12   11 ar
    12   13   12 1
    13   14   12 ar
    14   15   14 1
    15   16   14 ar
    16   17   16 ar
    17   18   17 1
    18   19   11 ar
    19   20   19 1
    20   21   16 1
    21   22   21 1
    22   23   21 1
    23   24   21 1
    24   25   10 2
    25   26    1 1
    26   27    4 1
    27   28   27 2
    28   29   27 2
    29   30   26 1
    30    7    9 ar
    31   17   19 ar
    32   25   26 1
@<TRIPOS>SUBSTRUCTURE
     1 RES1 1

@<TRIPOS>CRYSIN
  12.2236    9.7043   19.5840  90.0000  90.0000  90.0000  61 1

