# MOL2 file generated by ConQuest
# Please check atom types

@<TRIPOS>MOLECULE
HMBQOX10
    29    23     2
SMALL
NO_CHARGES
****
Generated from CSD

@<TRIPOS>ATOM
      1 C1         1.7100    1.2499    1.1953 C.2       1 RES1    0.0000
      2 C2         2.6584    2.3035    1.4501 C.2       1 RES1    0.0000
      3 C3         3.2750    2.3927    2.6553 C.2       1 RES1    0.0000
      4 C4         2.9960    1.4008    3.6957 C.2       1 RES1    0.0000
      5 C5         2.0683    0.3404    3.4518 C.2       1 RES1    0.0000
      6 C6         1.4503    0.2675    2.2686 C.2       1 RES1    0.0000
      7 C7         2.9412    3.2949    0.3548 C.3       1 RES1    0.0000
      8 C8         4.0418    0.6045    6.9986 C.3       1 RES1    0.0000
      9 N1         3.6379    1.4938    4.8480 N.pl3     1 RES1    0.0000
     10 O1         4.4602    2.3769    5.1988 O.2       1 RES1    0.0000
     11 O2         3.3642    0.4670    5.7574 O.3       1 RES1    0.0000
     12 O3         4.1440    3.3924    2.8662 O.3       1 RES1    0.0000
     13 O4         1.0987    1.1413    0.1249 O.2       1 RES1    0.0000
     14 O5         0.5703   -0.7109    2.0008 O.3       1 RES1    0.0000
     15 H1         4.4905    3.2889    3.6637 H         1 RES1    0.0000
     16 H2         0.2340   -0.5789    1.1733 H         1 RES1    0.0000
     17 H3         1.8683   -0.2505    4.1014 H         1 RES1    0.0000
     18 H4         3.7115   -0.2161    7.6172 H         1 RES1    0.0000
     19 H5         3.7833    1.5402    7.4723 H         1 RES1    0.0000
     20 H6         5.1120    0.5506    6.8697 H         1 RES1    0.0000
     21 H7         2.3661    3.1032   -0.5387 H         1 RES1    0.0000
     22 H8         3.9944    3.2491    0.1219 H         1 RES1    0.0000
     23 H9         2.6988    4.2763    0.7355 H         1 RES1    0.0000
     24 H10        3.2923    0.6998    7.7702 Du        2 SUP2    0.0000
     25 H11        4.6929    1.4655    7.0226 Du        2 SUP2    0.0000
     26 H12        4.6214   -0.2898    7.1675 Du        2 SUP2    0.0000
     27 H13        3.3408    2.8093   -0.5227 Du        2 SUP2    0.0000
     28 H14        3.6735    3.9825    0.7515 Du        2 SUP2    0.0000
     29 H15        2.0454    3.8368    0.0899 Du        2 SUP2    0.0000
@<TRIPOS>BOND
     1    1    2 1
     2    2    3 2
     3    3    4 1
     4    4    5 1
     5    5    6 2
     6    6    1 1
     7    7    2 1
     8    8   11 1
     9    9    4 2
    10   10    9 1
    11   11    9 1
    12   12    3 1
    13   13    1 2
    14   14    6 1
    15   15   12 1
    16   16   14 1
    17   17    5 1
    18   18    8 1
    19   19    8 1
    20   20    8 1
    21   21    7 1
    22   22    7 1
    23   23    7 1
@<TRIPOS>SUBSTRUCTURE
     1 RES1 1
     2 SUP2 24

@<TRIPOS>CRYSIN
   4.4700    9.7330   10.5260 103.8800 100.2000  95.8400   2 1

