# MOL2 file generated by ConQuest
# Please check atom types

@<TRIPOS>MOLECULE
HMBZAP
    38    42     2
SMALL
NO_CHARGES
****
Generated from CSD

@<TRIPOS>ATOM
      1 C1         3.8968   10.1672    1.2696 C.ar      1 RES1    0.0000
      2 C2         3.3682   11.4253    1.4211 C.ar      1 RES1    0.0000
      3 C3         2.0683   11.7149    0.9958 C.ar      1 RES1    0.0000
      4 C4         1.3343   10.7106    0.4116 C.ar      1 RES1    0.0000
      5 C5         1.8141    9.4884    0.2388 C.ar      1 RES1    0.0000
      6 C6         3.1053    9.1723    0.6835 C.ar      1 RES1    0.0000
      7 N1         4.1641   12.3859    2.1524 N.3       1 RES1    0.0000
      8 O1         3.3175   13.4104    2.6981 O.3       1 RES1    0.0000
      9 C7         5.2090   13.0850    1.3284 C.3       1 RES1    0.0000
     10 C8         6.1025   13.8869    2.2902 C.3       1 RES1    0.0000
     11 C9         5.2714    9.9150    1.7464 C.ar      1 RES1    0.0000
     12 C10        6.2993   10.8227    1.5296 C.ar      1 RES1    0.0000
     13 C11        7.5713   10.6047    2.0045 C.ar      1 RES1    0.0000
     14 C12        7.8373    9.4416    2.7100 C.ar      1 RES1    0.0000
     15 C13        6.8547    8.5090    2.9011 C.ar      1 RES1    0.0000
     16 C14        5.5954    8.7441    2.4399 C.ar      1 RES1    0.0000
     17 N2         5.9317   11.9422    0.6734 N.3       1 RES1    0.0000
     18 O2         7.1445   12.5214    0.1286 O.3       1 RES1    0.0000
     19 C15        4.6009   13.9352    0.2039 C.3       1 RES1    0.0000
     20 C16       13.3557    9.4074    1.2558 C.ar      2 RES2    0.0000
     21 C17       14.7386    9.1941    1.7473 C.ar      2 RES2    0.0000
     22 C18       12.7459   10.6359    1.3954 C.ar      2 RES2    0.0000
     23 C19       15.6806   10.1890    1.5167 C.ar      2 RES2    0.0000
     24 C20       11.4360   10.8741    0.9756 C.ar      2 RES2    0.0000
     25 C21       16.9586   10.0458    2.0118 C.ar      2 RES2    0.0000
     26 C22       10.7660    9.8184    0.3785 C.ar      2 RES2    0.0000
     27 C23       17.3207    8.9372    2.6834 C.ar      2 RES2    0.0000
     28 C24       11.3474    8.5682    0.2434 C.ar      2 RES2    0.0000
     29 C25       16.4416    7.9469    2.8910 C.ar      2 RES2    0.0000
     30 C26       12.6329    8.4016    0.6798 C.ar      2 RES2    0.0000
     31 C27       15.1370    8.0715    2.4344 C.ar      2 RES2    0.0000
     32 N3        13.5119   11.6526    2.1221 N.3       2 RES2    0.0000
     33 N4        15.2924   11.2836    0.6688 N.3       2 RES2    0.0000
     34 O3        12.6258   12.6662    2.6595 O.3       2 RES2    0.0000
     35 O4        16.4713   11.8846    0.0992 O.3       2 RES2    0.0000
     36 C28       14.5165   12.4124    1.2999 C.3       2 RES2    0.0000
     37 C29       15.3976   13.2361    2.2351 C.3       2 RES2    0.0000
     38 C30       13.8871   13.2392    0.1727 C.3       2 RES2    0.0000
@<TRIPOS>BOND
     1    1    2 ar
     2    2    3 ar
     3    3    4 ar
     4    4    5 ar
     5    5    6 ar
     6    6    1 ar
     7    7    2 1
     8    8    7 1
     9    9    7 1
    10   10    9 1
    11   11    1 1
    12   12   11 ar
    13   13   12 ar
    14   14   13 ar
    15   15   14 ar
    16   16   11 ar
    17   17    9 1
    18   18   17 1
    19   19    9 1
    20   20   21 1
    21   21   23 ar
    22   22   20 ar
    23   23   25 ar
    24   24   22 ar
    25   25   27 ar
    26   26   24 ar
    27   27   29 ar
    28   28   26 ar
    29   29   31 ar
    30   30   20 ar
    31   31   21 ar
    32   32   22 1
    33   33   23 1
    34   34   32 1
    35   35   33 1
    36   36   32 1
    37   37   36 1
    38   38   36 1
    39   12   17 1
    40   15   16 ar
    41   28   30 ar
    42   33   36 1
@<TRIPOS>SUBSTRUCTURE
     1 RES1 1
     2 RES2 20

@<TRIPOS>CRYSIN
  18.8000   15.5700   10.0700  90.0000 114.1800  90.0000 231 1

