# MOL2 file generated by ConQuest
# Please check atom types

@<TRIPOS>MOLECULE
HMNHKT
    35    36     1
SMALL
NO_CHARGES
****
Generated from CSD

@<TRIPOS>ATOM
      1 O1         3.6411    0.6423    1.4236 O.3       1 RES1    0.0000
      2 O2         4.6623    2.9443    1.1122 O.2       1 RES1    0.0000
      3 O3         1.4733    3.6482    6.4447 O.2       1 RES1    0.0000
      4 O4         0.4089    1.7782    6.6121 O.2       1 RES1    0.0000
      5 N1         1.2035    2.5158    6.0422 N.pl3     1 RES1    0.0000
      6 C1         3.2256    2.4705    2.9419 C.ar      1 RES1    0.0000
      7 C2         3.0385    1.1290    2.5292 C.ar      1 RES1    0.0000
      8 C3         2.1803    0.2671    3.2509 C.ar      1 RES1    0.0000
      9 C4         1.5996    0.7178    4.4201 C.ar      1 RES1    0.0000
     10 C5         1.8287    2.0384    4.8352 C.ar      1 RES1    0.0000
     11 C6         2.6245    2.9153    4.1093 C.ar      1 RES1    0.0000
     12 C7         1.9017   -1.1185    2.7517 C.3       1 RES1    0.0000
     13 C8         4.0321    3.3869    2.1008 C.2       1 RES1    0.0000
     14 C9         4.0952    4.8515    2.3906 C.3       1 RES1    0.0000
     15 C10        4.2203    5.7226    1.1236 C.3       1 RES1    0.0000
     16 C11        4.3134    7.1872    1.4848 C.3       1 RES1    0.0000
     17 C12        5.4634    7.4451    2.4458 C.3       1 RES1    0.0000
     18 C13        5.3567    6.6320    3.7074 C.3       1 RES1    0.0000
     19 C14        5.2674    5.1291    3.3216 C.3       1 RES1    0.0000
     20 H1         0.9876    0.0697    5.1051 H         1 RES1    0.0000
     21 H2         2.7689    3.8329    4.4633 H         1 RES1    0.0000
     22 H3         1.9931   -1.0453    1.7517 H         1 RES1    0.0000
     23 H4         1.4296   -1.5215    3.3774 H         1 RES1    0.0000
     24 H5         2.6128   -1.6609    2.8195 H         1 RES1    0.0000
     25 H6         3.3020    5.1453    2.9875 H         1 RES1    0.0000
     26 H7         3.3613    5.4706    0.4079 H         1 RES1    0.0000
     27 H8         5.0955    5.4589    0.7559 H         1 RES1    0.0000
     28 H9         4.4865    7.8516    0.5639 H         1 RES1    0.0000
     29 H10        3.5095    7.3754    1.9317 H         1 RES1    0.0000
     30 H11        5.5450    8.5020    2.5676 H         1 RES1    0.0000
     31 H12        6.3425    7.2476    1.9977 H         1 RES1    0.0000
     32 H13        6.3338    6.7946    4.2233 H         1 RES1    0.0000
     33 H14        4.5298    6.8876    4.2113 H         1 RES1    0.0000
     34 H15        5.1826    4.6691    3.9353 H         1 RES1    0.0000
     35 H16        6.0006    4.6924    2.8075 H         1 RES1    0.0000
@<TRIPOS>BOND
     1    1    7 1
     2    2   13 2
     3    3    5 2
     4    4    5 2
     5    5   10 1
     6    6    7 ar
     7    7    8 ar
     8    8    9 ar
     9    9   10 ar
    10   10   11 ar
    11   11    6 ar
    12   12    8 1
    13   13    6 1
    14   14   13 1
    15   15   14 1
    16   16   15 1
    17   17   16 1
    18   18   17 1
    19   19   14 1
    20   20    9 1
    21   21   11 1
    22   22   12 1
    23   23   12 1
    24   24   12 1
    25   25   14 1
    26   26   15 1
    27   27   15 1
    28   28   16 1
    29   29   16 1
    30   30   17 1
    31   31   17 1
    32   32   18 1
    33   33   18 1
    34   34   19 1
    35   35   19 1
    36   18   19 1
@<TRIPOS>SUBSTRUCTURE
     1 RES1 1

@<TRIPOS>CRYSIN
  37.6000   12.4920    5.9990  90.0000  90.0000 111.6000  15 3

