# MOL2 file generated by ConQuest
# Please check atom types

@<TRIPOS>MOLECULE
HMORBP
    28    31     1
SMALL
NO_CHARGES
****
Generated from CSD

@<TRIPOS>ATOM
      1 C1         5.6040    6.0692   11.4777 C.2       1 RES1    0.0000
      2 O1         6.3763    6.9378   11.9001 O.2       1 RES1    0.0000
      3 O2         4.6014    5.7197   12.3807 O.3       1 RES1    0.0000
      4 C2         3.7775    4.6075   12.0020 C.3       1 RES1    0.0000
      5 C3         3.4160    4.6817   10.5455 C.3       1 RES1    0.0000
      6 C4         4.7002    4.6181    9.6861 C.ar      1 RES1    0.0000
      7 C5         4.8157    3.9402    8.4480 C.ar      1 RES1    0.0000
      8 C6         6.0964    3.9508    7.8800 C.ar      1 RES1    0.0000
      9 C7         7.1695    4.6181    8.4626 C.ar      1 RES1    0.0000
     10 C8         7.0692    5.2536    9.6715 C.ar      1 RES1    0.0000
     11 C9         5.7656    5.2960   10.3270 C.ar      1 RES1    0.0000
     12 C10        2.5986    4.6075   12.8468 C.ar      1 RES1    0.0000
     13 C11        2.0650    5.7726   13.5023 C.ar      1 RES1    0.0000
     14 C12        0.9894    5.7515   14.2597 C.ar      1 RES1    0.0000
     15 C13        0.3826    4.5016   14.5073 C.ar      1 RES1    0.0000
     16 C14        0.8417    3.3259   13.9829 C.ar      1 RES1    0.0000
     17 C15        1.9401    3.4000   13.1381 C.ar      1 RES1    0.0000
     18 N1        -0.7600    4.4275   15.3375 N.pl3     1 RES1    0.0000
     19 O3        -1.4110    3.3788   15.4832 O.2       1 RES1    0.0000
     20 O4        -1.0868    5.4549   15.9930 O.2       1 RES1    0.0000
     21 C16        2.5901    5.9633   10.1813 C.2       1 RES1    0.0000
     22 O5         3.2776    7.0437   10.1085 O.2       1 RES1    0.0000
     23 N2         1.2992    5.9633   10.0357 N.am      1 RES1    0.0000
     24 C17        0.6785    7.2555    9.8609 C.3       1 RES1    0.0000
     25 C18       -0.5853    7.2026   10.1231 C.3       1 RES1    0.0000
     26 O6        -1.3675    6.1222    9.3365 O.3       1 RES1    0.0000
     27 C19       -0.7024    4.8405    9.7881 C.3       1 RES1    0.0000
     28 C20        0.5235    4.7664    9.9920 C.3       1 RES1    0.0000
@<TRIPOS>BOND
     1    1    2 2
     2    3    1 1
     3    4    3 1
     4    5    4 1
     5    6    5 1
     6    7    6 ar
     7    8    7 ar
     8    9    8 ar
     9   10    9 ar
    10   11    1 1
    11   12    4 1
    12   13   12 ar
    13   14   13 ar
    14   15   14 ar
    15   16   15 ar
    16   17   12 ar
    17   18   15 1
    18   19   18 2
    19   20   18 2
    20   21    5 1
    21   22   21 2
    22   23   21 1
    23   24   23 1
    24   25   24 1
    25   26   25 1
    26   27   26 1
    27   28   23 1
    28    6   11 ar
    29   10   11 ar
    30   16   17 ar
    31   27   28 1
@<TRIPOS>SUBSTRUCTURE
     1 RES1 1

@<TRIPOS>CRYSIN
  11.4910   10.5920   14.6890  90.0000  97.4330  90.0000  14 1

