# MOL2 file generated by ConQuest
# Please check atom types

@<TRIPOS>MOLECULE
HMPNPR
    26    26     1
SMALL
NO_CHARGES
****
Generated from CSD

@<TRIPOS>ATOM
      1 C1         0.2338    3.3956    2.5297 C.3       1 RES1    0.0000
      2 C2         0.6194    2.4020    1.5161 C.2       1 RES1    0.0000
      3 C3         1.6757    1.5767    1.4807 C.2       1 RES1    0.0000
      4 C1'        2.7329    1.3934    2.4783 C.ar      1 RES1    0.0000
      5 C2'        2.5907    1.7139    3.8392 C.ar      1 RES1    0.0000
      6 C3'        3.6352    1.5232    4.7061 C.ar      1 RES1    0.0000
      7 O3'        3.6215    1.7888    6.0511 O.3       1 RES1    0.0000
      8 C4'        4.8430    1.0007    4.2550 C.ar      1 RES1    0.0000
      9 O4'        5.8810    0.8178    5.1041 O.3       1 RES1    0.0000
     10 C5'        4.9915    0.6656    2.9269 C.ar      1 RES1    0.0000
     11 C6'        3.9432    0.8487    2.0634 C.ar      1 RES1    0.0000
     12 C7'        2.4993    2.4541    6.5924 C.3       1 RES1    0.0000
     13 N1        -0.2777    2.3411    0.3567 N.pl3     1 RES1    0.0000
     14 O2        -1.2416    3.0901    0.3415 O.2       1 RES1    0.0000
     15 O3        -0.0199    1.5706   -0.5709 O.2       1 RES1    0.0000
     16 H11        1.1386    3.7386    3.0019 H         1 RES1    0.0000
     17 H12       -0.1176    4.4098    2.1081 H         1 RES1    0.0000
     18 H13       -0.3183    3.0621    3.1368 H         1 RES1    0.0000
     19 H3         1.8098    1.0078    0.6746 H         1 RES1    0.0000
     20 H2'        1.7721    1.9698    4.1656 H         1 RES1    0.0000
     21 H4'        5.6463    0.9138    5.7424 H         1 RES1    0.0000
     22 H5'        5.8419    0.2193    2.5550 H         1 RES1    0.0000
     23 H6'        4.0548    0.5976    1.1299 H         1 RES1    0.0000
     24 H71'       2.6248    2.4963    7.5217 H         1 RES1    0.0000
     25 H72'       1.5804    1.9635    6.4086 H         1 RES1    0.0000
     26 H73'       2.3736    3.3300    6.1809 H         1 RES1    0.0000
@<TRIPOS>BOND
     1    1    2 1
     2    2    3 2
     3    3    4 1
     4    4    5 ar
     5    5    6 ar
     6    6    7 1
     7    7   12 1
     8    8    6 ar
     9    9    8 1
    10   10    8 ar
    11   11    4 ar
    12   12   24 1
    13   13    2 1
    14   14   13 2
    15   15   13 2
    16   16    1 1
    17   17    1 1
    18   18    1 1
    19   19    3 1
    20   20    5 1
    21   21    9 1
    22   22   10 1
    23   23   11 1
    24   25   12 1
    25   26   12 1
    26   10   11 ar
@<TRIPOS>SUBSTRUCTURE
     1 RES1 1

@<TRIPOS>CRYSIN
   7.1050    8.2380    8.4760  93.8700  94.2800  90.8300   2 1

