# MOL2 file generated by ConQuest
# Please check atom types

@<TRIPOS>MOLECULE
HMPROX
    43    43     2
SMALL
NO_CHARGES
****
Generated from CSD

@<TRIPOS>ATOM
      1 N1        -0.3051    1.8408   -1.3921 N.2       1 RES1    0.0000
      2 C1        -0.3555    2.6959   -2.3463 C.2       1 RES1    0.0000
      3 C2        -1.3965    2.3251   -3.3376 C.3       1 RES1    0.0000
      4 C3        -2.1894    1.1820   -2.6669 C.3       1 RES1    0.0000
      5 C4        -1.2373    0.6733   -1.5753 C.2       1 RES1    0.0000
      6 O1         0.5149    1.8795   -0.3701 O.2       1 RES1    0.0000
      7 C5         0.5568    3.8498   -2.4116 C.3       1 RES1    0.0000
      8 C6        -3.4440    1.7407   -2.0226 C.3       1 RES1    0.0000
      9 C7        -2.5381    0.0868   -3.6701 C.3       1 RES1    0.0000
     10 N2         2.0711   -6.0758    1.1926 N.pl3     2 RES2    0.0000
     11 C8         1.4886   -5.9468    0.0627 C.2       2 RES2    0.0000
     12 C9         0.9089   -7.2605   -0.3463 C.3       2 RES2    0.0000
     13 C10        0.9106   -8.1088    0.9084 C.3       2 RES2    0.0000
     14 C11        2.0214   -7.4628    1.7510 C.3       2 RES2    0.0000
     15 O2         2.6959   -5.1329    1.8307 O.2       2 RES2    0.0000
     16 C12        1.4768   -4.6844   -0.7033 C.3       2 RES2    0.0000
     17 C13       -0.4216   -8.0220    1.6236 C.3       2 RES2    0.0000
     18 C14        1.2321   -9.5988    0.6631 C.3       2 RES2    0.0000
     19 O3         1.7977   -7.4652    3.0822 O.3       2 RES2    0.0000
     20 H1        -1.9700    3.1179   -3.5760 H         1 RES1    0.0000
     21 H2        -0.9885    2.0459   -4.2096 H         1 RES1    0.0000
     22 H3         1.2823    3.8309   -1.7441 H         1 RES1    0.0000
     23 H4         0.0603    4.6326   -2.6475 H         1 RES1    0.0000
     24 H5         1.0664    3.7647   -3.0929 H         1 RES1    0.0000
     25 H6        -3.2387    2.4987   -1.3865 H         1 RES1    0.0000
     26 H7        -3.9139    1.0326   -1.5747 H         1 RES1    0.0000
     27 H8        -4.0385    2.0806   -2.7102 H         1 RES1    0.0000
     28 H9        -2.9566   -0.6381   -3.2498 H         1 RES1    0.0000
     29 H10       -1.7202   -0.2524   -4.0967 H         1 RES1    0.0000
     30 H11       -3.2170    0.4123   -4.4041 H         1 RES1    0.0000
     31 H12        0.0194   -7.1351   -0.7779 H         2 RES2    0.0000
     32 H13        1.5217   -7.5826   -1.0352 H         2 RES2    0.0000
     33 H14        2.9773   -7.9250    1.9888 H         2 RES2    0.0000
     34 H15        2.0018   -4.0139   -0.3764 H         2 RES2    0.0000
     35 H16        0.5731   -4.1425   -0.6838 H         2 RES2    0.0000
     36 H17        1.7079   -4.8649   -1.5120 H         2 RES2    0.0000
     37 H18       -0.6755   -7.0184    1.7629 H         2 RES2    0.0000
     38 H19       -0.3932   -8.5723    2.5346 H         2 RES2    0.0000
     39 H20       -1.0770   -8.4526    1.1418 H         2 RES2    0.0000
     40 H21        1.2076  -10.1936    1.5935 H         2 RES2    0.0000
     41 H22        1.7918   -9.2707   -0.0627 H         2 RES2    0.0000
     42 H23        0.6220   -9.9776    0.1067 H         2 RES2    0.0000
     43 H24        2.8076   -7.4287    3.5446 H         2 RES2    0.0000
@<TRIPOS>BOND
     1    1    2 1
     2    2    3 1
     3    3    4 1
     4    4    5 1
     5    5    1 1
     6    6    1 1
     7    7    2 1
     8    8    4 1
     9    9    4 1
    10   10   11 2
    11   11   12 1
    12   12   13 1
    13   13   14 1
    14   14   10 1
    15   15   10 1
    16   16   11 1
    17   17   13 1
    18   18   13 1
    19   19   14 1
    20   20    3 1
    21   21    3 1
    22   22    7 1
    23   23    7 1
    24   24    7 1
    25   25    8 1
    26   26    8 1
    27   27    8 1
    28   28    9 1
    29   29    9 1
    30   30    9 1
    31   31   12 1
    32   32   12 1
    33   33   14 1
    34   34   16 1
    35   35   16 1
    36   36   16 1
    37   37   17 1
    38   38   17 1
    39   39   17 1
    40   40   18 1
    41   41   18 1
    42   42   18 1
    43   43   19 1
@<TRIPOS>SUBSTRUCTURE
     1 RES1 1
     2 RES2 10

@<TRIPOS>CRYSIN
  10.6330   12.4270    6.3790  98.9500  97.4100  75.2800   2 1

