# MOL2 file generated by ConQuest
# Please check atom types

@<TRIPOS>MOLECULE
HMPYRO10
    16    16     1
SMALL
USER_CHARGES
****
Generated from CSD

@<TRIPOS>ATOM
      1 C1         0.6582    1.1618    5.1653 C.ar      1 RES1    0.0000
      2 C2         0.8466    0.4120    6.3126 C.ar      1 RES1    0.0000
      3 C3         0.7564   -0.9591    6.2775 C.ar      1 RES1    0.0000
      4 C4         0.4654   -1.5778    5.0806 C.ar      1 RES1    0.0000
      5 C5         0.2733   -0.8271    3.9520 C.ar      1 RES1    0.0000
      6 C6         0.7164    2.6632    5.0910 C.3       1 RES1    0.0000
      7 H1         1.0424    0.9092    7.1253 H         1 RES1    0.0000
      8 H2         0.9032   -1.5368    7.1150 H         1 RES1    0.0000
      9 H3         0.3876   -2.4943    4.9671 H         1 RES1    0.0000
     10 H4         0.0033   -1.1828    3.1083 H         1 RES1    0.0000
     11 H5        -0.1544    2.9690    4.7089 H         1 RES1    0.0000
     12 H6         1.4226    2.9287    4.4404 H         1 RES1    0.0000
     13 H7         0.2432    3.1218    6.8465 H         1 RES1    0.0000
     14 N1         0.3810    0.5174    4.0036 N.pl3     1 RES1    1.0000
     15 O1         0.2063    1.2335    2.9069 O.2       1 RES1   -1.0000
     16 O2         1.0165    3.2578    6.3312 O.3       1 RES1    0.0000
@<TRIPOS>BOND
     1    1    2 ar
     2    2    3 ar
     3    3    4 ar
     4    4    5 ar
     5    5   10 1
     6    6    1 1
     7    7    2 1
     8    8    3 1
     9    9    4 1
    10   11    6 1
    11   12    6 1
    12   13   16 1
    13   14    1 ar
    14   15   14 1
    15   16    6 1
    16    5   14 ar
@<TRIPOS>SUBSTRUCTURE
     1 RES1 1

@<TRIPOS>CRYSIN
   7.0790    8.0460   10.5990  90.0000 103.0200  90.0000  14 1

