# MOL2 file generated by ConQuest
# Please check atom types

@<TRIPOS>MOLECULE
HNAFPY10
    35    36     1
SMALL
NO_CHARGES
****
Generated from CSD

@<TRIPOS>ATOM
      1 O1         7.7928   -1.1100   -8.2506 O.3       1 RES1    0.0000
      2 O2         9.3182    2.1574   -8.9679 O.3       1 RES1    0.0000
      3 O3        11.3600   -0.0096  -10.6759 O.2       1 RES1    0.0000
      4 O4        10.3403    1.3532  -11.9938 O.2       1 RES1    0.0000
      5 O5         8.4393   -1.4796  -11.8518 O.3       1 RES1    0.0000
      6 O6         9.2014   -0.1830   -6.0499 O.3       1 RES1    0.0000
      7 O7         8.7680    1.5723   -2.2546 O.2       1 RES1    0.0000
      8 N1        10.3608    0.5550  -11.0751 N.pl3     1 RES1    0.0000
      9 C1         7.9650    0.2950   -8.1229 C.3       1 RES1    0.0000
     10 C2         9.2195    0.7452   -8.9104 C.3       1 RES1    0.0000
     11 C3         9.0521    0.2769  -10.3757 C.3       1 RES1    0.0000
     12 C4         8.7499   -1.2135  -10.4674 C.3       1 RES1    0.0000
     13 C5         7.4846   -1.4880   -9.6062 C.3       1 RES1    0.0000
     14 C6         8.1492    0.5755   -6.6522 C.2       1 RES1    0.0000
     15 C7         9.2399    0.2191   -4.7429 C.2       1 RES1    0.0000
     16 C8         8.3021    1.1509   -4.5307 C.2       1 RES1    0.0000
     17 C9         7.5472    1.3953   -5.7946 C.2       1 RES1    0.0000
     18 C10       10.2404   -0.5237   -3.8619 C.3       1 RES1    0.0000
     19 C11        8.0818    1.8227   -3.2164 C.2       1 RES1    0.0000
     20 C12        6.9549    2.8087   -3.1931 C.3       1 RES1    0.0000
     21 H1         7.0067    0.7585   -8.4501 H         1 RES1    0.0000
     22 H2        10.0887    0.2889   -8.4322 H         1 RES1    0.0000
     23 H3         8.1986    0.7344  -10.8413 H         1 RES1    0.0000
     24 H4         9.5710   -1.9022  -10.1042 H         1 RES1    0.0000
     25 H5         7.1993   -2.4319   -9.6547 H         1 RES1    0.0000
     26 H6         6.5853   -0.9511   -9.9783 H         1 RES1    0.0000
     27 H7         6.8141    1.9503   -5.9870 H         1 RES1    0.0000
     28 H8        10.0044   -1.5410   -3.9014 H         1 RES1    0.0000
     29 H9        11.1602   -0.4454   -4.2610 H         1 RES1    0.0000
     30 H10       10.2813   -0.2889   -2.9126 H         1 RES1    0.0000
     31 H11        6.2844    2.5041   -2.4991 H         1 RES1    0.0000
     32 H12        7.3197    3.6960   -3.0205 H         1 RES1    0.0000
     33 H13        6.3205    3.0338   -3.9913 H         1 RES1    0.0000
     34 H14        9.8840    2.4921   -8.3243 H         1 RES1    0.0000
     35 H15        8.8246   -2.2272  -12.4055 H         1 RES1    0.0000
@<TRIPOS>BOND
     1    1    9 1
     2    2   10 1
     3    3    8 2
     4    4    8 2
     5    5   12 1
     6    6   14 1
     7    7   19 2
     8    8   11 1
     9    9   10 1
    10   10   11 1
    11   11   12 1
    12   12   13 1
    13   13    1 1
    14   14    9 1
    15   15    6 1
    16   16   15 2
    17   17   14 2
    18   18   15 1
    19   19   16 1
    20   20   19 1
    21   21    9 1
    22   22   10 1
    23   23   11 1
    24   24   12 1
    25   25   13 1
    26   26   13 1
    27   27   17 1
    28   28   18 1
    29   29   18 1
    30   30   18 1
    31   31   20 1
    32   32   20 1
    33   33   20 1
    34   34    2 1
    35   35    5 1
    36   16   17 1
@<TRIPOS>SUBSTRUCTURE
     1 RES1 1

@<TRIPOS>CRYSIN
  12.0390   12.0390   17.9790  90.0000  90.0000  90.0000  96 1

