# MOL2 file generated by ConQuest
# Please check atom types

@<TRIPOS>MOLECULE
HNBZPP
    30    32     1
SMALL
NO_CHARGES
****
Generated from CSD

@<TRIPOS>ATOM
      1 O1        -3.3095    3.8828    2.8757 O.3       1 RES1    0.0000
      2 C1        -3.0401    5.0277    2.0511 C.3       1 RES1    0.0000
      3 C2        -1.5672    5.1757    1.7660 C.3       1 RES1    0.0000
      4 C3        -0.7779    5.2246    3.0664 C.3       1 RES1    0.0000
      5 C4        -1.1333    4.0182    3.9408 C.3       1 RES1    0.0000
      6 C5        -0.5004    4.0828    5.3305 C.3       1 RES1    0.0000
      7 C6        -1.1706    5.1444    6.1637 C.ar      1 RES1    0.0000
      8 C7        -0.5471    5.7674    7.2236 C.ar      1 RES1    0.0000
      9 C8        -1.2172    6.7207    7.9657 C.ar      1 RES1    0.0000
     10 C9        -2.5085    7.1020    7.6651 C.ar      1 RES1    0.0000
     11 C10       -3.1376    6.5050    6.6000 C.ar      1 RES1    0.0000
     12 C11       -2.4822    5.5278    5.8699 C.ar      1 RES1    0.0000
     13 O2        -3.2011    4.9777    4.8495 O.3       1 RES1    0.0000
     14 C12       -2.6356    3.8859    4.0851 C.3       1 RES1    0.0000
     15 N1        -0.5352    7.3499    9.0926 N.pl3     1 RES1    0.0000
     16 O3         0.6616    7.1415    9.2403 O.2       1 RES1    0.0000
     17 O4        -1.1748    8.0719    9.8381 O.2       1 RES1    0.0000
     18 H1         0.4707    5.5090    7.4744 H         1 RES1    0.0000
     19 H2        -4.1420    6.7967    6.3320 H         1 RES1    0.0000
     20 H3        -2.7648    2.9368    4.5832 H         1 RES1    0.0000
     21 H4         0.2788    5.2069    2.8448 H         1 RES1    0.0000
     22 H5        -1.0184    6.1341    3.5972 H         1 RES1    0.0000
     23 H6        -3.0136    7.8531    8.2543 H         1 RES1    0.0000
     24 H7         0.5492    4.3172    5.2326 H         1 RES1    0.0000
     25 H8        -0.6118    3.1254    5.8166 H         1 RES1    0.0000
     26 H9        -0.7309    3.1535    3.4357 H         1 RES1    0.0000
     27 H10       -1.2323    4.3339    1.1784 H         1 RES1    0.0000
     28 H11       -1.4018    6.0893    1.2145 H         1 RES1    0.0000
     29 H12       -3.5678    4.9163    1.1149 H         1 RES1    0.0000
     30 H13       -3.3898    5.9143    2.5579 H         1 RES1    0.0000
@<TRIPOS>BOND
     1    1    2 1
     2    2    3 1
     3    3    4 1
     4    4    5 1
     5    5    6 1
     6    6    7 1
     7    7    8 ar
     8    8    9 ar
     9    9   10 ar
    10   10   11 ar
    11   11   12 ar
    12   12    7 ar
    13   13   12 1
    14   14    1 1
    15   15    9 1
    16   16   15 2
    17   17   15 2
    18   18    8 1
    19   19   11 1
    20   20   14 1
    21   21    4 1
    22   22    4 1
    23   23   10 1
    24   24    6 1
    25   25    6 1
    26   26    5 1
    27   27    3 1
    28   28    3 1
    29   29    2 1
    30   30    2 1
    31    5   14 1
    32   13   14 1
@<TRIPOS>SUBSTRUCTURE
     1 RES1 1

@<TRIPOS>CRYSIN
   6.2410   10.4180   17.6440  90.0000 103.1900  90.0000  14 1

