# MOL2 file generated by ConQuest
# Please check atom types

@<TRIPOS>MOLECULE
HNFMNO
    31    33     1
SMALL
NO_CHARGES
****
Generated from CSD

@<TRIPOS>ATOM
      1 C1         1.8559   -3.5344   -1.7978 C.ar      1 RES1    0.0000
      2 C2         1.2501   -4.7628   -2.0437 C.ar      1 RES1    0.0000
      3 C3         1.7862   -5.9030   -1.4526 C.ar      1 RES1    0.0000
      4 C4         2.9013   -5.8186   -0.6370 C.ar      1 RES1    0.0000
      5 C5         3.5206   -4.5992   -0.4131 C.ar      1 RES1    0.0000
      6 C6         2.9972   -3.4626   -0.9969 C.ar      1 RES1    0.0000
      7 C7         1.3093   -2.2960   -2.3929 C.2       1 RES1    0.0000
      8 O1         1.9308   -1.2474   -2.3289 O.2       1 RES1    0.0000
      9 C8        -0.0277   -2.3491   -3.0625 C.2       1 RES1    0.0000
     10 C9        -0.4060   -1.2301   -3.6942 C.2       1 RES1    0.0000
     11 C10       -1.6047   -0.9303   -4.4266 C.2       1 RES1    0.0000
     12 C11       -1.9230    0.2328   -5.0822 C.2       1 RES1    0.0000
     13 C12       -3.2046    0.0404   -5.6460 C.2       1 RES1    0.0000
     14 C13       -3.5608   -1.2079   -5.2908 C.2       1 RES1    0.0000
     15 O2        -2.6261   -1.8336   -4.5512 O.3       1 RES1    0.0000
     16 N1        -4.7103   -1.9583   -5.6366 N.pl3     1 RES1    0.0000
     17 O3        -4.8042   -3.1163   -5.2542 O.2       1 RES1    0.0000
     18 O4        -5.5603   -1.3789   -6.3143 O.2       1 RES1    0.0000
     19 C14       -0.8107   -3.6264   -2.9213 C.3       1 RES1    0.0000
     20 C15        0.0669   -4.8436   -2.9786 C.3       1 RES1    0.0000
     21 H1         1.3587   -6.7924   -1.6126 H         1 RES1    0.0000
     22 H2         3.2457   -6.6446   -0.2066 H         1 RES1    0.0000
     23 H3         4.3482   -4.5405    0.1733 H         1 RES1    0.0000
     24 H4         3.4499   -2.5728   -0.8396 H         1 RES1    0.0000
     25 H5         0.2425   -0.4756   -3.6649 H         1 RES1    0.0000
     26 H6        -1.3450    1.0374   -5.1442 H         1 RES1    0.0000
     27 H7        -3.7340    0.6852   -6.1970 H         1 RES1    0.0000
     28 H8        -1.5079   -3.7051   -3.6183 H         1 RES1    0.0000
     29 H9        -1.2876   -3.6271   -1.9791 H         1 RES1    0.0000
     30 H10        0.4048   -4.9125   -3.9848 H         1 RES1    0.0000
     31 H11       -0.4712   -5.6678   -2.7454 H         1 RES1    0.0000
@<TRIPOS>BOND
     1    1    2 ar
     2    2    3 ar
     3    3    4 ar
     4    4    5 ar
     5    5    6 ar
     6    6    1 ar
     7    7    1 1
     8    8    7 2
     9    9    7 1
    10   10    9 2
    11   11   10 1
    12   12   11 2
    13   13   12 1
    14   14   13 2
    15   15   11 1
    16   16   14 1
    17   17   16 2
    18   18   16 2
    19   19    9 1
    20   20    2 1
    21   21    3 1
    22   22    4 1
    23   23    5 1
    24   24    6 1
    25   25   10 1
    26   26   12 1
    27   27   13 1
    28   28   19 1
    29   29   19 1
    30   30   20 1
    31   31   20 1
    32   14   15 1
    33   19   20 1
@<TRIPOS>SUBSTRUCTURE
     1 RES1 1

@<TRIPOS>CRYSIN
   7.1220   13.3750    7.1420  93.8200 109.8100  98.9900   2 1

