# MOL2 file generated by ConQuest
# Please check atom types

@<TRIPOS>MOLECULE
HNIABZ21
    72    74     2
SMALL
NO_CHARGES
****
Generated from CSD

@<TRIPOS>ATOM
      1 N1         0.0966    0.0000   10.8830 N.2       1 RES1    0.0000
      2 C1         1.1129   -0.3850   11.8544 C.ar      1 RES1    0.0000
      3 C2         0.9205   -1.4285   12.7917 C.ar      1 RES1    0.0000
      4 C3         1.8855   -1.7903   13.6729 C.ar      1 RES1    0.0000
      5 H1         1.7531   -2.5107   14.2452 H         1 RES1    0.0000
      6 C4         3.0599   -1.0799   13.7082 C.ar      1 RES1    0.0000
      7 C5         3.2977   -0.0298   12.8518 C.ar      1 RES1    0.0000
      8 H2         4.0924    0.4519   12.8891 H         1 RES1    0.0000
      9 C6         2.3227    0.2790   11.9395 C.ar      1 RES1    0.0000
     10 N2        -0.3763   -2.1289   12.8871 N.pl3     1 RES1    0.0000
     11 O1        -1.3674   -1.4672   12.7896 O.2       1 RES1    0.0000
     12 O2        -0.3262   -3.3310   13.1131 O.2       1 RES1    0.0000
     13 N3         4.1073   -1.5174   14.6537 N.pl3     1 RES1    0.0000
     14 O3         3.9672   -2.6300   15.1763 O.2       1 RES1    0.0000
     15 O4         4.9976   -0.7115   14.8943 O.2       1 RES1    0.0000
     16 N4         2.6075    1.3744   10.9525 N.pl3     1 RES1    0.0000
     17 O5         3.4392    2.1991   11.3050 O.2       1 RES1    0.0000
     18 O6         2.0629    1.3705    9.9012 O.2       1 RES1    0.0000
     19 N5        -0.1732   -0.9772   10.1579 N.2       1 RES1    0.0000
     20 C7        -1.1546   -0.6491    9.1464 C.ar      1 RES1    0.0000
     21 C8        -2.1927    0.2458    9.2169 C.ar      1 RES1    0.0000
     22 C9        -3.0792    0.4292    8.1863 C.ar      1 RES1    0.0000
     23 H3        -3.7399    1.0810    8.2320 H         1 RES1    0.0000
     24 C10       -2.9569   -0.3861    7.0770 C.ar      1 RES1    0.0000
     25 C11       -1.9804   -1.3456    6.9692 C.ar      1 RES1    0.0000
     26 H4        -1.9359   -1.9030    6.2268 H         1 RES1    0.0000
     27 C12       -1.0801   -1.4545    7.9831 C.ar      1 RES1    0.0000
     28 N6        -2.4412    1.0717   10.4175 N.pl3     1 RES1    0.0000
     29 O7        -2.8495    0.5143   11.4093 O.2       1 RES1    0.0000
     30 O8        -2.2171    2.2538   10.3366 O.2       1 RES1    0.0000
     31 N7        -3.8788   -0.1834    5.9469 N.pl3     1 RES1    0.0000
     32 O9        -4.3709    0.9214    5.8121 O.2       1 RES1    0.0000
     33 O10       -4.0683   -1.1374    5.2004 O.2       1 RES1    0.0000
     34 N8         0.1027   -2.3405    7.8173 N.pl3     1 RES1    0.0000
     35 O11       -0.1221   -3.5155    7.6058 O.2       1 RES1    0.0000
     36 O12        1.1693   -1.8257    7.9272 O.2       1 RES1    0.0000
     37 N9         3.9928    1.4313   -0.4043 N.2       2 RES2    0.0000
     38 C13        4.9776    1.1109   -1.4100 C.ar      2 RES2    0.0000
     39 C14        4.8080    0.1276   -2.3638 C.ar      2 RES2    0.0000
     40 C15        5.7558   -0.1237   -3.3529 C.ar      2 RES2    0.0000
     41 H5         5.6433   -0.8071   -3.9750 H         2 RES2    0.0000
     42 C16        6.8640    0.6850   -3.3674 C.ar      2 RES2    0.0000
     43 C17        7.1059    1.6992   -2.4592 C.ar      2 RES2    0.0000
     44 H6         7.8660    2.2317   -2.5069 H         2 RES2    0.0000
     45 C18        6.1373    1.8804   -1.4598 C.ar      2 RES2    0.0000
     46 N10        3.5751   -0.6723   -2.4654 N.pl3     2 RES2    0.0000
     47 O13        2.5124   -0.0398   -2.4406 O.2       2 RES2    0.0000
     48 O14        3.6960   -1.8638   -2.5836 O.2       2 RES2    0.0000
     49 N11        7.8695    0.4530   -4.4332 N.pl3     2 RES2    0.0000
     50 O15        7.8310   -0.6319   -4.9641 O.2       2 RES2    0.0000
     51 O16        8.6581    1.3490   -4.6655 O.2       2 RES2    0.0000
     52 N12        6.4023    2.8990   -0.4520 N.pl3     2 RES2    0.0000
     53 O17        7.0415    3.8828   -0.7838 O.2       2 RES2    0.0000
     54 O18        5.9720    2.7057    0.6573 O.2       2 RES2    0.0000
     55 N13        3.6386    0.4215    0.2302 N.2       2 RES2    0.0000
     56 C19        2.6515    0.7154    1.2379 C.ar      2 RES2    0.0000
     57 C20        1.6373    1.6611    1.1363 C.ar      2 RES2    0.0000
     58 C21        0.7080    1.8699    2.1544 C.ar      2 RES2    0.0000
     59 H7         0.0758    2.5488    2.0984 H         2 RES2    0.0000
     60 C22        0.7636    1.0391    3.2327 C.ar      2 RES2    0.0000
     61 C23        1.7108    0.0221    3.3778 C.ar      2 RES2    0.0000
     62 H8         1.7009   -0.5612    4.1015 H         2 RES2    0.0000
     63 C24        2.6771   -0.0663    2.3680 C.ar      2 RES2    0.0000
     64 N14        1.4531    2.4770   -0.0684 N.pl3     2 RES2    0.0000
     65 O19        1.0871    1.9163   -1.0905 O.2       2 RES2    0.0000
     66 O20        1.5894    3.6895    0.0539 O.2       2 RES2    0.0000
     67 N15       -0.2112    1.2191    4.3399 N.pl3     2 RES2    0.0000
     68 O21       -0.5839    2.3737    4.5100 O.2       2 RES2    0.0000
     69 O22       -0.5014    0.2624    4.9806 O.2       2 RES2    0.0000
     70 N16        3.7822   -0.9976    2.5981 N.pl3     2 RES2    0.0000
     71 O23        3.5428   -2.1278    3.0025 O.2       2 RES2    0.0000
     72 O24        4.9211   -0.5518    2.3970 O.2       2 RES2    0.0000
@<TRIPOS>BOND
     1    1    2 1
     2    2    3 ar
     3    3    4 ar
     4    4    5 1
     5    6    4 ar
     6    7    6 ar
     7    8    7 1
     8    9    2 ar
     9   10    3 1
    10   11   10 2
    11   12   10 2
    12   13    6 1
    13   14   13 2
    14   15   13 2
    15   16    9 1
    16   17   16 2
    17   18   16 2
    18   19    1 2
    19   20   19 1
    20   21   20 ar
    21   22   21 ar
    22   23   22 1
    23   24   22 ar
    24   25   24 ar
    25   26   25 1
    26   27   20 ar
    27   28   21 1
    28   29   28 2
    29   30   28 2
    30   31   24 1
    31   32   31 2
    32   33   31 2
    33   34   27 1
    34   35   34 2
    35   36   34 2
    36   37   38 1
    37   38   39 ar
    38   39   40 ar
    39   40   41 1
    40   42   40 ar
    41   43   42 ar
    42   44   43 1
    43   45   38 ar
    44   46   39 1
    45   47   46 2
    46   48   46 2
    47   49   42 1
    48   50   49 2
    49   51   49 2
    50   52   45 1
    51   53   52 2
    52   54   52 2
    53   55   37 2
    54   56   55 1
    55   57   56 ar
    56   58   57 ar
    57   59   58 1
    58   60   58 ar
    59   61   60 ar
    60   62   61 1
    61   63   56 ar
    62   64   57 1
    63   65   64 2
    64   66   64 2
    65   67   60 1
    66   68   67 2
    67   69   67 2
    68   70   63 1
    69   71   70 2
    70   72   70 2
    71    7    9 ar
    72   25   27 ar
    73   43   45 ar
    74   61   63 ar
@<TRIPOS>SUBSTRUCTURE
     1 RES1 1
     2 RES2 37

@<TRIPOS>CRYSIN
  15.4015    5.5240   22.1182  90.0000 110.3670  90.0000   4 1

