# MOL2 file generated by ConQuest
# Please check atom types

@<TRIPOS>MOLECULE
HNIABZ20
    36    37     1
SMALL
NO_CHARGES
****
Generated from CSD

@<TRIPOS>ATOM
      1 C1        -4.0575   -0.1085    1.4243 C.ar      1 RES1    0.0000
      2 C2        -4.3402    0.1420    2.7693 C.ar      1 RES1    0.0000
      3 C3        -3.3950    0.5699    3.6806 C.ar      1 RES1    0.0000
      4 C4        -2.1048    0.7181    3.2058 C.ar      1 RES1    0.0000
      5 C5        -1.7297    0.3935    1.9063 C.ar      1 RES1    0.0000
      6 C6        -2.7189   -0.0350    1.0447 C.ar      1 RES1    0.0000
      7 H1        -3.6270    0.7718    4.6388 H         1 RES1    0.0000
      8 H2        -0.7853    0.5189    1.6167 H         1 RES1    0.0000
      9 N1        -5.1512   -0.3128    0.5324 N.2       1 RES1    0.0000
     10 N2        -5.7320    0.0021    3.2588 N.pl3     1 RES1    0.0000
     11 N3        -1.0853    1.2485    4.1248 N.pl3     1 RES1    0.0000
     12 N4        -2.2967   -0.4783   -0.3107 N.pl3     1 RES1    0.0000
     13 O1        -6.2943   -1.0490    3.0580 O.2       1 RES1    0.0000
     14 O2        -6.2038    0.9334    3.8899 O.2       1 RES1    0.0000
     15 O3        -0.0296    1.6295    3.6178 O.2       1 RES1    0.0000
     16 O4        -1.3417    1.2934    5.3236 O.2       1 RES1    0.0000
     17 O5        -2.8319   -1.4573   -0.7810 O.2       1 RES1    0.0000
     18 O6        -1.4131    0.1707   -0.8638 O.2       1 RES1    0.0000
     19 C1B       -6.0915    0.1085   -1.4243 C.ar      1 RES1    0.0000
     20 C2B       -5.8088   -0.1420   -2.7693 C.ar      1 RES1    0.0000
     21 C3B       -6.7540   -0.5699   -3.6806 C.ar      1 RES1    0.0000
     22 C4B       -8.0442   -0.7181   -3.2058 C.ar      1 RES1    0.0000
     23 C5B       -8.4193   -0.3935   -1.9063 C.ar      1 RES1    0.0000
     24 C6B       -7.4301    0.0350   -1.0447 C.ar      1 RES1    0.0000
     25 H1B       -6.5220   -0.7718   -4.6388 H         1 RES1    0.0000
     26 H2B       -9.3637   -0.5189   -1.6167 H         1 RES1    0.0000
     27 N1B       -4.9978    0.3128   -0.5324 N.2       1 RES1    0.0000
     28 N2B       -4.4170   -0.0021   -3.2588 N.pl3     1 RES1    0.0000
     29 N3B       -9.0637   -1.2485   -4.1248 N.pl3     1 RES1    0.0000
     30 N4B       -7.8523    0.4783    0.3107 N.pl3     1 RES1    0.0000
     31 O1B       -3.8547    1.0490   -3.0580 O.2       1 RES1    0.0000
     32 O2B       -3.9452   -0.9334   -3.8899 O.2       1 RES1    0.0000
     33 O3B      -10.1194   -1.6295   -3.6178 O.2       1 RES1    0.0000
     34 O4B       -8.8073   -1.2934   -5.3236 O.2       1 RES1    0.0000
     35 O5B       -7.3171    1.4573    0.7810 O.2       1 RES1    0.0000
     36 O6B       -8.7359   -0.1707    0.8638 O.2       1 RES1    0.0000
@<TRIPOS>BOND
     1    1    2 ar
     2    2    3 ar
     3    3    4 ar
     4    4    5 ar
     5    5    6 ar
     6    6    1 ar
     7    7    3 1
     8    8    5 1
     9    9    1 1
    10   10    2 1
    11   11    4 1
    12   12    6 1
    13   13   10 2
    14   14   10 2
    15   15   11 2
    16   16   11 2
    17   17   12 2
    18   18   12 2
    19   19   20 ar
    20   20   21 ar
    21   21   22 ar
    22   22   23 ar
    23   23   24 ar
    24   24   19 ar
    25   25   21 1
    26   26   23 1
    27   27    9 2
    28   28   20 1
    29   29   22 1
    30   30   24 1
    31   31   28 2
    32   32   28 2
    33   33   29 2
    34   34   29 2
    35   35   30 2
    36   36   30 2
    37   19   27 1
@<TRIPOS>SUBSTRUCTURE
     1 RES1 1

@<TRIPOS>CRYSIN
  10.1490    8.2630   10.0550  90.0000  97.2900  90.0000  14 1

