# MOL2 file generated by ConQuest
# Please check atom types

@<TRIPOS>MOLECULE
HNIDPA01
    36    37     1
SMALL
NO_CHARGES
****
Generated from CSD

@<TRIPOS>ATOM
      1 O1         7.9797    2.2163    3.4659 O.2       1 RES1    0.0000
      2 O2         6.1923    2.2000    2.2762 O.2       1 RES1    0.0000
      3 O3         2.9927    6.6907    5.3281 O.2       1 RES1    0.0000
      4 O4         2.2606    4.8609    4.4513 O.2       1 RES1    0.0000
      5 O5         8.4433    4.6619    7.4095 O.2       1 RES1    0.0000
      6 O6         6.7493    5.6664    8.3125 O.2       1 RES1    0.0000
      7 O7         4.7897    7.9956    3.0743 O.2       1 RES1    0.0000
      8 O8         5.9516    6.2961    2.4093 O.2       1 RES1    0.0000
      9 O9         0.8440    8.6591    0.4009 O.2       1 RES1    0.0000
     10 O10       -0.1251    6.9852   -0.5489 O.2       1 RES1    0.0000
     11 O11        1.2539    2.6027    0.3878 O.2       1 RES1    0.0000
     12 O12        3.0590    2.1208    1.4463 O.2       1 RES1    0.0000
     13 C1         6.2261    3.5258    4.1909 C.ar      1 RES1    0.0000
     14 N1         6.8376    2.5853    3.2411 N.pl3     1 RES1    0.0000
     15 C2         6.9627    3.7772    5.3375 C.ar      1 RES1    0.0000
     16 C3         6.4682    4.6898    6.2517 C.ar      1 RES1    0.0000
     17 N2         7.2799    5.0274    7.4189 N.pl3     1 RES1    0.0000
     18 C4         5.2327    5.2997    6.0925 C.ar      1 RES1    0.0000
     19 C5         4.5116    5.0052    4.9497 C.ar      1 RES1    0.0000
     20 N3         3.1510    5.5651    4.8972 N.pl3     1 RES1    0.0000
     21 C6         4.9965    4.1730    3.9118 C.ar      1 RES1    0.0000
     22 N4         4.3453    3.9774    2.7221 N.3       1 RES1    0.0000
     23 C7         3.5211    4.8411    2.0514 C.ar      1 RES1    0.0000
     24 C8         3.6697    6.2507    2.0739 C.ar      1 RES1    0.0000
     25 N5         4.9001    6.8909    2.5685 N.pl3     1 RES1    0.0000
     26 C9         2.7367    7.1109    1.5269 C.ar      1 RES1    0.0000
     27 C10        1.6630    6.5650    0.8449 C.ar      1 RES1    0.0000
     28 N6         0.7189    7.4683    0.1892 N.pl3     1 RES1    0.0000
     29 C11        1.5196    5.2043    0.6688 C.ar      1 RES1    0.0000
     30 C12        2.4416    4.3627    1.2683 C.ar      1 RES1    0.0000
     31 N7         2.2341    2.9275    1.0267 N.pl3     1 RES1    0.0000
     32 H1         0.7101    4.8039    0.0712 H         1 RES1    0.0000
     33 H2         7.9201    3.2930    5.5061 H         1 RES1    0.0000
     34 H3         4.8471    5.9737    6.8493 H         1 RES1    0.0000
     35 H4         4.4608    3.0648    2.3006 H         1 RES1    0.0000
     36 H5         2.8905    8.1946    1.5606 H         1 RES1    0.0000
@<TRIPOS>BOND
     1    1   14 2
     2    2   14 2
     3    3   20 2
     4    4   20 2
     5    5   17 2
     6    6   17 2
     7    7   25 2
     8    8   25 2
     9    9   28 2
    10   10   28 2
    11   11   31 2
    12   12   31 2
    13   13   14 1
    14   15   13 ar
    15   16   15 ar
    16   17   16 1
    17   18   16 ar
    18   19   18 ar
    19   20   19 1
    20   21   13 ar
    21   22   21 1
    22   23   22 1
    23   24   23 ar
    24   25   24 1
    25   26   24 ar
    26   27   26 ar
    27   28   27 1
    28   29   27 ar
    29   30   23 ar
    30   31   30 1
    31   32   29 1
    32   33   15 1
    33   34   18 1
    34   35   22 1
    35   36   26 1
    36   19   21 ar
    37   29   30 ar
@<TRIPOS>SUBSTRUCTURE
     1 RES1 1

@<TRIPOS>CRYSIN
   7.3586   11.6401   18.7345  90.0000  90.0000  90.0000  19 1

