# MOL2 file generated by ConQuest
# Please check atom types

@<TRIPOS>MOLECULE
HOBHUD
   158   146     3
SMALL
NO_CHARGES
****
Generated from CSD

@<TRIPOS>ATOM
      1 O1         4.8926    9.5528   12.3161 O.2       1 RES1    0.0000
      2 O2         3.8586    7.7131   13.0498 O.3       1 RES1    0.0000
      3 O3         2.7616    8.3684    8.8856 O.2       1 RES1    0.0000
      4 O4         6.7281   14.1807    8.5864 O.2       1 RES1    0.0000
      5 O5         8.1304   12.6974    7.8525 O.2       1 RES1    0.0000
      6 O6        -0.3202    6.3390   10.8777 O.3       1 RES1    0.0000
      7 O7        -1.7899    4.8793   11.7597 O.2       1 RES1    0.0000
      8 O8         0.4691    2.6188    5.2558 O.2       1 RES1    0.0000
      9 O9        -1.1860    1.3355    5.8194 O.2       1 RES1    0.0000
     10 N1        -0.3948    2.2476    6.0458 N.pl3     1 RES1    0.0000
     11 C1        -1.0567    5.2230   10.8677 C.2       1 RES1    0.0000
     12 C2        -0.8333    4.4366    9.6114 C.ar      1 RES1    0.0000
     13 C3        -1.5015    3.2250    9.4634 C.ar      1 RES1    0.0000
     14 H1        -2.0641    2.9071   10.1601 H         1 RES1    0.0000
     15 C4        -1.3494    2.4769    8.3023 C.ar      1 RES1    0.0000
     16 H2        -1.8048    1.6511    8.1868 H         1 RES1    0.0000
     17 C5        -0.5131    2.9743    7.3196 C.ar      1 RES1    0.0000
     18 C6         0.1838    4.1668    7.4499 C.ar      1 RES1    0.0000
     19 H3         0.7626    4.4700    6.7597 H         1 RES1    0.0000
     20 C7         0.0164    4.9055    8.6085 C.ar      1 RES1    0.0000
     21 H4         0.4783    5.7276    8.7212 H         1 RES1    0.0000
     22 O10        1.6882    6.1535   14.3302 O.3       1 RES1    0.0000
     23 H5         2.0369    6.1808   15.0947 H         1 RES1    0.0000
     24 N2         3.1514    8.5412   11.1088 N.am      1 RES1    0.0000
     25 N3         7.0684   13.0208    8.3752 N.pl3     1 RES1    0.0000
     26 C8         4.0590    8.6956   12.1676 C.2       1 RES1    0.0000
     27 C9         3.0649    6.6663   12.3829 C.3       1 RES1    0.0000
     28 H6         3.7056    6.1969   11.7751 H         1 RES1    0.0000
     29 C10        2.1515    7.4946   11.4502 C.3       1 RES1    0.0000
     30 H7         1.9670    6.9549   10.6284 H         1 RES1    0.0000
     31 C11        3.3812    8.9043    9.7791 C.2       1 RES1    0.0000
     32 C12        4.3833    9.9776    9.4901 C.ar      1 RES1    0.0000
     33 C13        5.3837    9.7135    8.5603 C.ar      1 RES1    0.0000
     34 H8         5.4466    8.8527    8.1618 H         1 RES1    0.0000
     35 C14        6.2879   10.7013    8.2139 C.ar      1 RES1    0.0000
     36 H9         6.9985   10.5212    7.6098 H         1 RES1    0.0000
     37 C15        6.1318   11.9547    8.7673 C.ar      1 RES1    0.0000
     38 C16        5.1260   12.2582    9.6651 C.ar      1 RES1    0.0000
     39 H10        5.0324   13.1378   10.0118 H         1 RES1    0.0000
     40 C17        4.2585   11.2495   10.0458 C.ar      1 RES1    0.0000
     41 H11        3.5782   11.4233   10.6857 H         1 RES1    0.0000
     42 C18        2.6232    5.6075   13.4007 C.3       1 RES1    0.0000
     43 C19        3.8707    5.1054   14.1287 C.3       1 RES1    0.0000
     44 H12        4.3277    5.8608   14.5530 H         1 RES1    0.0000
     45 H13        4.4744    4.6777   13.4856 H         1 RES1    0.0000
     46 H14        3.6096    4.4557   14.8128 H         1 RES1    0.0000
     47 C20        1.9654    4.4718   12.5929 C.3       1 RES1    0.0000
     48 H15        1.1130    4.8155   12.2258 H         1 RES1    0.0000
     49 H16        2.5537    4.2681   11.8236 H         1 RES1    0.0000
     50 C21        1.6658    3.1523   13.3145 C.3       1 RES1    0.0000
     51 H17        2.5268    2.7908   13.6735 H         1 RES1    0.0000
     52 C22        0.6893    3.2974   14.4768 C.3       1 RES1    0.0000
     53 H18        1.0977    3.8440   15.1799 H         1 RES1    0.0000
     54 H19        0.4742    2.4107   14.8349 H         1 RES1    0.0000
     55 H20       -0.1314    3.7310   14.1624 H         1 RES1    0.0000
     56 C23        1.1212    2.1555   12.2891 C.3       1 RES1    0.0000
     57 H21        0.2639    2.4789   11.9425 H         1 RES1    0.0000
     58 H22        0.9917    1.2842   12.7177 H         1 RES1    0.0000
     59 H23        1.7593    2.0652   11.5505 H         1 RES1    0.0000
     60 C24        0.8189    8.1784   11.8995 C.3       1 RES1    0.0000
     61 C25        0.9544    9.0019   13.1888 C.3       1 RES1    0.0000
     62 H24        1.2632    8.4226   13.9158 H         1 RES1    0.0000
     63 H25        0.0838    9.3858   13.4239 H         1 RES1    0.0000
     64 H26        1.6016    9.7242   13.0495 H         1 RES1    0.0000
     65 C26        0.3453    9.1180   10.7744 C.3       1 RES1    0.0000
     66 H27        0.9962    9.8407   10.6578 H         1 RES1    0.0000
     67 H28       -0.5262    9.4979   11.0116 H         1 RES1    0.0000
     68 H29        0.2653    8.6123    9.9384 H         1 RES1    0.0000
     69 C27       -0.2678    7.1223   12.1088 C.3       1 RES1    0.0000
     70 H30       -0.0434    6.5420   12.8792 H         1 RES1    0.0000
     71 H31       -1.1416    7.5546   12.2816 H         1 RES1    0.0000
     72 O11       -0.3732    6.3835   10.9044 Du        3 SUP3    0.0000
     73 O12       -2.3958    7.2644   10.4493 Du        3 SUP3    0.0000
     74 O13        0.0974    3.5374    4.7556 Du        3 SUP3    0.0000
     75 O14       -1.6470    4.6258    4.0699 Du        3 SUP3    0.0000
     76 N4        -0.8574    4.2836    4.9479 Du        3 SUP3    0.0000
     77 C28       -1.4333    6.6187   10.1175 Du        3 SUP3    0.0000
     78 C29       -1.2768    5.9599    8.7814 Du        3 SUP3    0.0000
     79 C30       -2.3190    6.0873    7.8638 Du        3 SUP3    0.0000
     80 H32       -3.1073    6.5606    8.1031 Du        3 SUP3    0.0000
     81 C31       -2.2054    5.5214    6.5938 Du        3 SUP3    0.0000
     82 H33       -2.9012    5.6090    5.9536 Du        3 SUP3    0.0000
     83 C32       -1.0405    4.8242    6.3001 Du        3 SUP3    0.0000
     84 C33       -0.0054    4.6608    7.2089 Du        3 SUP3    0.0000
     85 H34        0.7702    4.1634    6.9784 Du        3 SUP3    0.0000
     86 C34       -0.1304    5.2371    8.4569 Du        3 SUP3    0.0000
     87 H35        0.5659    5.1422    9.0956 Du        3 SUP3    0.0000
     88 O1A       -9.0523   -1.6955    2.3660 O.2       2 RES2    0.0000
     89 O2A       -8.0183    0.1442    1.6324 O.3       2 RES2    0.0000
     90 O3A       -6.9213   -0.5111    5.7965 O.2       2 RES2    0.0000
     91 O4A      -10.8878   -6.3234    6.0957 O.2       2 RES2    0.0000
     92 O5A      -12.2901   -4.8402    6.8297 O.2       2 RES2    0.0000
     93 O6A       -3.8395    1.5183    3.8044 O.3       2 RES2    0.0000
     94 O7A       -2.3699    2.9780    2.9225 O.2       2 RES2    0.0000
     95 O8A       -4.6289    5.2385    9.4264 O.2       2 RES2    0.0000
     96 O9A       -2.9738    6.5218    8.8627 O.2       2 RES2    0.0000
     97 N1A       -3.7649    5.6097    8.6363 N.pl3     2 RES2    0.0000
     98 C1A       -3.1030    2.6343    3.8144 C.2       2 RES2    0.0000
     99 C2A       -3.3264    3.4207    5.0708 C.ar      2 RES2    0.0000
    100 C3A       -2.6582    4.6323    5.2188 C.ar      2 RES2    0.0000
    101 H1A       -2.0956    4.9501    4.5221 H         2 RES2    0.0000
    102 C4A       -2.8103    5.3804    6.3798 C.ar      2 RES2    0.0000
    103 H2A       -2.3549    6.2062    6.4954 H         2 RES2    0.0000
    104 C5A       -3.6466    4.8830    7.3625 C.ar      2 RES2    0.0000
    105 C6A       -4.3436    3.6905    7.2323 C.ar      2 RES2    0.0000
    106 H3A       -4.9224    3.3873    7.9225 H         2 RES2    0.0000
    107 C7A       -4.1762    2.9518    6.0737 C.ar      2 RES2    0.0000
    108 H4A       -4.6380    2.1296    5.9610 H         2 RES2    0.0000
    109 O10A      -5.8479    1.7038    0.3519 O.3       2 RES2    0.0000
    110 H5A       -6.1967    1.6765   -0.4126 H         2 RES2    0.0000
    111 N2A       -7.3112   -0.6840    3.5733 N.am      2 RES2    0.0000
    112 N3A      -11.2281   -5.1635    6.3070 N.pl3     2 RES2    0.0000
    113 C8A       -8.2188   -0.8383    2.5146 C.2       2 RES2    0.0000
    114 C9A       -7.2246    1.1910    2.2992 C.3       2 RES2    0.0000
    115 H6A       -7.8653    1.6603    2.9071 H         2 RES2    0.0000
    116 C10A      -6.3112    0.3627    3.2320 C.3       2 RES2    0.0000
    117 H7A       -6.1267    0.9024    4.0537 H         2 RES2    0.0000
    118 C11A      -7.5409   -1.0470    4.9031 C.2       2 RES2    0.0000
    119 C12A      -8.5431   -2.1203    5.1921 C.ar      2 RES2    0.0000
    120 C13A      -9.5435   -1.8562    6.1219 C.ar      2 RES2    0.0000
    121 H8A       -9.6064   -0.9955    6.5204 H         2 RES2    0.0000
    122 C14A     -10.4477   -2.8440    6.4682 C.ar      2 RES2    0.0000
    123 H9A      -11.1582   -2.6640    7.0724 H         2 RES2    0.0000
    124 C15A     -10.2915   -4.0974    5.9149 C.ar      2 RES2    0.0000
    125 C16A      -9.2858   -4.4009    5.0170 C.ar      2 RES2    0.0000
    126 H10A      -9.1922   -5.2805    4.6704 H         2 RES2    0.0000
    127 C17A      -8.4182   -3.3922    4.6363 C.ar      2 RES2    0.0000
    128 H11A      -7.7379   -3.5661    3.9965 H         2 RES2    0.0000
    129 C18A      -6.7829    2.2497    1.2815 C.3       2 RES2    0.0000
    130 C19A      -8.0304    2.7519    0.5535 C.3       2 RES2    0.0000
    131 H12A      -8.4874    1.9965    0.1292 H         2 RES2    0.0000
    132 H13A      -8.6341    3.1796    1.1966 H         2 RES2    0.0000
    133 H14A      -7.7694    3.4016   -0.1307 H         2 RES2    0.0000
    134 C20A      -6.1251    3.3855    2.0893 C.3       2 RES2    0.0000
    135 H15A      -5.2727    3.0418    2.4563 H         2 RES2    0.0000
    136 H16A      -6.7134    3.5892    2.8586 H         2 RES2    0.0000
    137 C21A      -5.8256    4.7050    1.3676 C.3       2 RES2    0.0000
    138 H17A      -6.6866    5.0665    1.0087 H         2 RES2    0.0000
    139 C22A      -4.8490    4.5599    0.2054 C.3       2 RES2    0.0000
    140 H18A      -5.2575    4.0132   -0.4977 H         2 RES2    0.0000
    141 H19A      -4.6339    5.4466   -0.1527 H         2 RES2    0.0000
    142 H20A      -4.0284    4.1263    0.5197 H         2 RES2    0.0000
    143 C23A      -5.2809    5.7017    2.3930 C.3       2 RES2    0.0000
    144 H21A      -4.4236    5.3783    2.7397 H         2 RES2    0.0000
    145 H22A      -5.1514    6.5731    1.9645 H         2 RES2    0.0000
    146 H23A      -5.9190    5.7921    3.1317 H         2 RES2    0.0000
    147 C24A      -4.9787   -0.3211    2.7827 C.3       2 RES2    0.0000
    148 C25A      -5.1141   -1.1446    1.4933 C.3       2 RES2    0.0000
    149 H24A      -5.4230   -0.5653    0.7664 H         2 RES2    0.0000
    150 H25A      -4.2435   -1.5285    1.2583 H         2 RES2    0.0000
    151 H26A      -5.7613   -1.8669    1.6327 H         2 RES2    0.0000
    152 C26A      -4.5051   -1.2607    3.9078 C.3       2 RES2    0.0000
    153 H27A      -5.1559   -1.9834    4.0244 H         2 RES2    0.0000
    154 H28A      -3.6335   -1.6406    3.6705 H         2 RES2    0.0000
    155 H29A      -4.4250   -0.7550    4.7438 H         2 RES2    0.0000
    156 C27A      -3.8919    0.7350    2.5733 C.3       2 RES2    0.0000
    157 H30A      -4.1164    1.3153    1.8030 H         2 RES2    0.0000
    158 H31A      -3.0182    0.3027    2.4005 H         2 RES2    0.0000
@<TRIPOS>BOND
     1    1   26 2
     2    2   26 1
     3    3   31 2
     4    4   25 2
     5    5   25 2
     6    6   11 1
     7    7   11 2
     8    8   10 2
     9    9   10 2
    10   10   17 1
    11   11   12 1
    12   12   13 ar
    13   13   14 1
    14   15   13 ar
    15   16   15 1
    16   17   15 ar
    17   18   17 ar
    18   19   18 1
    19   20   12 ar
    20   21   20 1
    21   22   23 1
    22   24   26 1
    23   25   37 1
    24   27    2 1
    25   28   27 1
    26   29   24 1
    27   30   29 1
    28   31   24 1
    29   32   31 1
    30   33   32 ar
    31   34   33 1
    32   35   33 ar
    33   36   35 1
    34   37   35 ar
    35   38   37 ar
    36   39   38 1
    37   40   32 ar
    38   41   40 1
    39   42   22 1
    40   43   42 1
    41   44   43 1
    42   45   43 1
    43   46   43 1
    44   47   42 1
    45   48   47 1
    46   49   47 1
    47   50   47 1
    48   51   50 1
    49   52   50 1
    50   53   52 1
    51   54   52 1
    52   55   52 1
    53   56   50 1
    54   57   56 1
    55   58   56 1
    56   59   56 1
    57   60   29 1
    58   61   60 1
    59   62   61 1
    60   63   61 1
    61   64   61 1
    62   65   60 1
    63   66   65 1
    64   67   65 1
    65   68   65 1
    66   69    6 1
    67   70   69 1
    68   71   69 1
    69   88  113 2
    70   89  113 1
    71   90  118 2
    72   91  112 2
    73   92  112 2
    74   93   98 1
    75   94   98 2
    76   95   97 2
    77   96   97 2
    78   97  104 1
    79   98   99 1
    80   99  100 ar
    81  100  101 1
    82  102  100 ar
    83  103  102 1
    84  104  102 ar
    85  105  104 ar
    86  106  105 1
    87  107   99 ar
    88  108  107 1
    89  109  110 1
    90  111  113 1
    91  112  124 1
    92  114   89 1
    93  115  114 1
    94  116  111 1
    95  117  116 1
    96  118  111 1
    97  119  118 1
    98  120  119 ar
    99  121  120 1
   100  122  120 ar
   101  123  122 1
   102  124  122 ar
   103  125  124 ar
   104  126  125 1
   105  127  119 ar
   106  128  127 1
   107  129  109 1
   108  130  129 1
   109  131  130 1
   110  132  130 1
   111  133  130 1
   112  134  129 1
   113  135  134 1
   114  136  134 1
   115  137  134 1
   116  138  137 1
   117  139  137 1
   118  140  139 1
   119  141  139 1
   120  142  139 1
   121  143  137 1
   122  144  143 1
   123  145  143 1
   124  146  143 1
   125  147  116 1
   126  148  147 1
   127  149  148 1
   128  150  148 1
   129  151  148 1
   130  152  147 1
   131  153  152 1
   132  154  152 1
   133  155  152 1
   134  156   93 1
   135  157  156 1
   136  158  156 1
   137   18   20 ar
   138   27   29 1
   139   27   42 1
   140   38   40 ar
   141   60   69 1
   142  105  107 ar
   143  114  116 1
   144  114  129 1
   145  125  127 ar
   146  147  156 1
@<TRIPOS>SUBSTRUCTURE
     1 RES1 1
     2 RES2 88
     3 SUP3 72

@<TRIPOS>CRYSIN
   7.9880   13.4927   15.6040 108.1160  93.0500 104.2860   2 1

