# MOL2 file generated by ConQuest
# Please check atom types

@<TRIPOS>MOLECULE
HOCDAE
    35    40     1
SMALL
NO_CHARGES
****
Generated from CSD

@<TRIPOS>ATOM
      1 O1        -2.4871    0.3328    7.7434 O.3       1 RES1    0.0000
      2 O2         1.8361    4.9962    8.4006 O.2       1 RES1    0.0000
      3 O3         2.5873    2.7799    4.5769 O.3       1 RES1    0.0000
      4 N1         1.5580    3.9210    6.3729 N.am      1 RES1    0.0000
      5 N2         1.8796    2.3337    3.3349 N.3       1 RES1    0.0000
      6 C1        -2.2189   -0.9688    8.2087 C.3       1 RES1    0.0000
      7 C2        -1.4243    1.1590    7.4646 C.ar      1 RES1    0.0000
      8 C3        -0.0905    0.8168    7.6239 C.ar      1 RES1    0.0000
      9 C4         0.8758    1.7567    7.2600 C.ar      1 RES1    0.0000
     10 C5         0.5245    3.0032    6.7712 C.ar      1 RES1    0.0000
     11 C6        -0.8047    3.3282    6.6481 C.ar      1 RES1    0.0000
     12 C7        -1.8040    2.4085    6.9903 C.ar      1 RES1    0.0000
     13 C8         2.1276    4.8548    7.2220 C.2       1 RES1    0.0000
     14 C9         3.1312    5.5630    6.4290 C.ar      1 RES1    0.0000
     15 C10        4.0150    6.5733    6.8219 C.ar      1 RES1    0.0000
     16 C11        4.8892    7.0720    5.8696 C.ar      1 RES1    0.0000
     17 C12        4.9141    6.5654    4.5769 C.ar      1 RES1    0.0000
     18 C13        4.0111    5.5637    4.1894 C.ar      1 RES1    0.0000
     19 C14        3.1494    5.0864    5.1400 C.ar      1 RES1    0.0000
     20 C15        2.0420    4.0359    4.9987 C.3       1 RES1    0.0000
     21 C16        0.9718    4.3545    3.9523 C.3       1 RES1    0.0000
     22 C17        0.5565    2.9850    3.4381 C.3       1 RES1    0.0000
     23 C18       -0.1494    3.0030    2.1056 C.ar      1 RES1    0.0000
     24 C19        0.5209    3.3501    0.9469 C.ar      1 RES1    0.0000
     25 C20       -0.1370    3.3619   -0.2806 C.ar      1 RES1    0.0000
     26 C21       -1.4893    3.0697   -0.3476 C.ar      1 RES1    0.0000
     27 C22       -2.1454    2.7323    0.7984 C.ar      1 RES1    0.0000
     28 C23       -1.4868    2.6739    2.0295 C.ar      1 RES1    0.0000
     29 C24        1.7451    0.8802    3.5123 C.3       1 RES1    0.0000
     30 C25        3.0553    0.1539    3.2915 C.ar      1 RES1    0.0000
     31 C26        3.3655   -0.3809    2.0332 C.ar      1 RES1    0.0000
     32 C27        4.5801   -1.0136    1.8485 C.ar      1 RES1    0.0000
     33 C28        5.4574   -1.1599    2.8931 C.ar      1 RES1    0.0000
     34 C29        5.1737   -0.6725    4.1659 C.ar      1 RES1    0.0000
     35 C30        3.9675   -0.0089    4.3343 C.ar      1 RES1    0.0000
@<TRIPOS>BOND
     1    1    6 1
     2    2   13 2
     3    3    5 1
     4    4   10 1
     5    5   22 1
     6    7    1 1
     7    8    7 ar
     8    9    8 ar
     9   10    9 ar
    10   11   10 ar
    11   12    7 ar
    12   13    4 1
    13   14   13 1
    14   15   14 ar
    15   16   15 ar
    16   17   16 ar
    17   18   17 ar
    18   19   14 ar
    19   20    3 1
    20   21   20 1
    21   22   21 1
    22   23   22 1
    23   24   23 ar
    24   25   24 ar
    25   26   25 ar
    26   27   26 ar
    27   28   23 ar
    28   29    5 1
    29   30   29 1
    30   31   30 ar
    31   32   31 ar
    32   33   32 ar
    33   34   33 ar
    34   35   30 ar
    35    4   20 1
    36   11   12 ar
    37   18   19 ar
    38   19   20 1
    39   27   28 ar
    40   34   35 ar
@<TRIPOS>SUBSTRUCTURE
     1 RES1 1

@<TRIPOS>CRYSIN
   6.8900    9.9940   18.7630  76.0800  79.8700  71.5500   2 1

