# MOL2 file generated by ConQuest
# Please check atom types

@<TRIPOS>MOLECULE
HOCDEI
    35    40     1
SMALL
NO_CHARGES
****
Generated from CSD

@<TRIPOS>ATOM
      1 O1         2.6476    0.6086   11.8916 O.3       1 RES1    0.0000
      2 O2         5.1547    1.2834    6.0526 O.2       1 RES1    0.0000
      3 O3         3.0980   -2.6107    6.2418 O.3       1 RES1    0.0000
      4 N1         4.4990   -0.7642    6.8630 N.am      1 RES1    0.0000
      5 N2         2.7543   -3.2633    7.5168 N.3       1 RES1    0.0000
      6 C1         3.5149    0.8499   12.9776 C.3       1 RES1    0.0000
      7 C2         3.1728    0.3574   10.6589 C.ar      1 RES1    0.0000
      8 C3         4.5135    0.2792   10.3980 C.ar      1 RES1    0.0000
      9 C4         4.9636   -0.0631    9.1180 C.ar      1 RES1    0.0000
     10 C5         4.0404   -0.3210    8.1446 C.ar      1 RES1    0.0000
     11 C6         2.7057   -0.1948    8.3941 C.ar      1 RES1    0.0000
     12 C7         2.2642    0.1358    9.6529 C.ar      1 RES1    0.0000
     13 C8         5.0242    0.0698    5.9205 C.2       1 RES1    0.0000
     14 C9         5.4211   -0.7639    4.7775 C.ar      1 RES1    0.0000
     15 C10        6.0242   -0.4171    3.5905 C.ar      1 RES1    0.0000
     16 C11        6.2539   -1.4211    2.6823 C.ar      1 RES1    0.0000
     17 C12        5.9390   -2.7307    2.9546 C.ar      1 RES1    0.0000
     18 C13        5.3274   -3.0790    4.1416 C.ar      1 RES1    0.0000
     19 C14        5.0929   -2.0641    5.0547 C.ar      1 RES1    0.0000
     20 C15        4.4459   -2.1669    6.4048 C.3       1 RES1    0.0000
     21 C16        5.0661   -3.1389    7.4141 C.3       1 RES1    0.0000
     22 C17        3.9347   -4.0831    7.7777 C.3       1 RES1    0.0000
     23 C18        3.9512   -4.5666    9.2012 C.ar      1 RES1    0.0000
     24 C19        4.2190   -5.8641    9.5289 C.ar      1 RES1    0.0000
     25 C20        4.3174   -6.2527   10.8367 C.ar      1 RES1    0.0000
     26 C21        4.1357   -5.3923   11.8345 C.ar      1 RES1    0.0000
     27 C22        3.8468   -4.1004   11.5296 C.ar      1 RES1    0.0000
     28 C23        3.7492   -3.6727   10.2301 C.ar      1 RES1    0.0000
     29 C24        1.5435   -4.0227    7.1891 C.3       1 RES1    0.0000
     30 C25        0.3121   -3.1534    7.1076 C.ar      1 RES1    0.0000
     31 C26       -0.4881   -3.2094    6.0118 C.ar      1 RES1    0.0000
     32 C27       -1.6212   -2.4338    5.9385 C.ar      1 RES1    0.0000
     33 C28       -1.9221   -1.5874    6.9298 C.ar      1 RES1    0.0000
     34 C29       -1.1361   -1.4976    8.0272 C.ar      1 RES1    0.0000
     35 C30       -0.0086   -2.2928    8.1283 C.ar      1 RES1    0.0000
@<TRIPOS>BOND
     1    1    6 1
     2    2   13 2
     3    3    5 1
     4    4   10 1
     5    5   22 1
     6    7    1 1
     7    8    7 ar
     8    9    8 ar
     9   10    9 ar
    10   11   10 ar
    11   12    7 ar
    12   13    4 1
    13   14   13 1
    14   15   14 ar
    15   16   15 ar
    16   17   16 ar
    17   18   17 ar
    18   19   14 ar
    19   20    3 1
    20   21   20 1
    21   22   21 1
    22   23   22 1
    23   24   23 ar
    24   25   24 ar
    25   26   25 ar
    26   27   26 ar
    27   28   23 ar
    28   29    5 1
    29   30   29 1
    30   31   30 ar
    31   32   31 ar
    32   33   32 ar
    33   34   33 ar
    34   35   30 ar
    35    4   20 1
    36   11   12 ar
    37   18   19 ar
    38   19   20 1
    39   27   28 ar
    40   34   35 ar
@<TRIPOS>SUBSTRUCTURE
     1 RES1 1

@<TRIPOS>CRYSIN
  10.4700   14.6140   16.6530  81.6600  81.2500  85.9900   2 1

