# MOL2 file generated by ConQuest
# Please check atom types

@<TRIPOS>MOLECULE
HOCVEA
    28    30     1
SMALL
NO_CHARGES
****
Generated from CSD

@<TRIPOS>ATOM
      1 O1         3.9577    5.6016   -1.8245 O.2       1 RES1    0.0000
      2 O2         3.3634    4.7181   -4.3252 O.2       1 RES1    0.0000
      3 O3        -0.1183    4.6073   -7.7517 O.2       1 RES1    0.0000
      4 O4        -2.1713    4.9053   -7.2277 O.2       1 RES1    0.0000
      5 O5        -1.9353    3.0649   -1.3798 O.2       1 RES1    0.0000
      6 O6        -2.6213    4.3704    0.2015 O.2       1 RES1    0.0000
      7 N1        -1.0007    4.8043   -6.9370 N.pl3     1 RES1    0.0000
      8 N2        -1.7543    3.9296   -0.5458 N.pl3     1 RES1    0.0000
      9 C1         0.7045    4.7588   -5.1881 C.ar      1 RES1    0.0000
     10 H1         1.3548    4.6570   -5.8445 H         1 RES1    0.0000
     11 C2        -0.6183    4.8935   -5.5191 C.ar      1 RES1    0.0000
     12 C3        -1.5976    5.1128   -4.5677 C.ar      1 RES1    0.0000
     13 H2        -2.4782    5.2655   -4.8244 H         1 RES1    0.0000
     14 C4        -1.2516    5.0997   -3.2358 C.ar      1 RES1    0.0000
     15 H3        -1.9071    5.2496   -2.5929 H         1 RES1    0.0000
     16 C5        -0.3818    4.4345   -0.3344 C.ar      1 RES1    0.0000
     17 C6         0.0143    4.4559    0.9897 C.ar      1 RES1    0.0000
     18 H4        -0.5999    4.2649    1.6618 H         1 RES1    0.0000
     19 C7         1.3194    4.7627    1.3117 C.ar      1 RES1    0.0000
     20 H5         1.5938    4.7907    2.2000 H         1 RES1    0.0000
     21 C8         2.2197    5.0287    0.2961 C.ar      1 RES1    0.0000
     22 H6         3.1075    5.2159    0.5010 H         1 RES1    0.0000
     23 C9         2.8415    5.2057   -2.0671 C.2       1 RES1    0.0000
     24 C10        2.4803    4.8340   -3.4993 C.2       1 RES1    0.0000
     25 C11        1.0461    4.7768   -3.8393 C.ar      1 RES1    0.0000
     26 C12        0.0677    4.8655   -2.8312 C.ar      1 RES1    0.0000
     27 C13        0.4683    4.7550   -1.4061 C.ar      1 RES1    0.0000
     28 C14        1.8030    5.0188   -1.0313 C.ar      1 RES1    0.0000
@<TRIPOS>BOND
     1    1   23 2
     2    2   24 2
     3    3    7 2
     4    4    7 2
     5    5    8 2
     6    6    8 2
     7    7   11 1
     8    8   16 1
     9    9   10 1
    10   11    9 ar
    11   12   11 ar
    12   13   12 1
    13   14   12 ar
    14   15   14 1
    15   16   17 ar
    16   17   18 1
    17   19   17 ar
    18   20   19 1
    19   21   19 ar
    20   22   21 1
    21   23   24 1
    22   24   25 1
    23   25    9 ar
    24   26   14 ar
    25   27   16 ar
    26   28   21 ar
    27   23   28 1
    28   25   26 ar
    29   26   27 1
    30   27   28 ar
@<TRIPOS>SUBSTRUCTURE
     1 RES1 1

@<TRIPOS>CRYSIN
   8.2120   12.7310   11.5190  90.0000 102.2000  90.0000 231 1

