# MOL2 file generated by ConQuest
# Please check atom types

@<TRIPOS>MOLECULE
HOCWEB
    22    23     1
SMALL
NO_CHARGES
****
Generated from CSD

@<TRIPOS>ATOM
      1 N1         0.4068    0.1439   11.2491 N.ar      1 RES1    0.0000
      2 C1         0.1216    1.3540   10.8271 C.ar      1 RES1    0.0000
      3 N2        -0.4944    2.3450   11.4288 N.ar      1 RES1    0.0000
      4 C2        -0.8465    2.0848   12.6997 C.ar      1 RES1    0.0000
      5 C3        -0.5916    0.8619   13.3096 C.ar      1 RES1    0.0000
      6 C4         0.0313   -0.0945   12.5124 C.ar      1 RES1    0.0000
      7 C5        -0.9777    0.5783   14.7093 C.ar      1 RES1    0.0000
      8 C6        -0.8340    1.5516   15.6995 C.ar      1 RES1    0.0000
      9 C7        -1.1834    1.2557   17.0080 C.ar      1 RES1    0.0000
     10 C8        -1.7051    0.0215   17.3299 C.ar      1 RES1    0.0000
     11 C9        -1.8582   -0.9413   16.3539 C.ar      1 RES1    0.0000
     12 C10       -1.4819   -0.6706   15.0532 C.ar      1 RES1    0.0000
     13 N3         0.5757    1.6625    9.4324 N.pl3     1 RES1    0.0000
     14 O1         1.3170    0.8579    8.8977 O.2       1 RES1    0.0000
     15 O2         0.1914    2.6974    8.9257 O.2       1 RES1    0.0000
     16 H1        -1.3221    2.8028   13.1756 H         1 RES1    0.0000
     17 H2         0.2284   -0.9861   12.8525 H         1 RES1    0.0000
     18 H3        -0.4476    2.4293   15.4850 H         1 RES1    0.0000
     19 H4        -0.9988    1.9541   17.6674 H         1 RES1    0.0000
     20 H5        -1.9636   -0.1439   18.2646 H         1 RES1    0.0000
     21 H6        -2.2758   -1.7946   16.5675 H         1 RES1    0.0000
     22 H7        -1.6227   -1.3401   14.3805 H         1 RES1    0.0000
@<TRIPOS>BOND
     1    1    2 ar
     2    2    3 ar
     3    3    4 ar
     4    4    5 ar
     5    5    6 ar
     6    6    1 ar
     7    7    5 1
     8    8    7 ar
     9    9    8 ar
    10   10    9 ar
    11   11   10 ar
    12   12    7 ar
    13   13    2 1
    14   14   13 2
    15   15   13 2
    16   16    4 1
    17   17    6 1
    18   18    8 1
    19   19    9 1
    20   20   10 1
    21   21   11 1
    22   22   12 1
    23   11   12 ar
@<TRIPOS>SUBSTRUCTURE
     1 RES1 1

@<TRIPOS>CRYSIN
   3.8359   10.1720   11.7780  96.4200  93.9300  96.7700   2 1

