# MOL2 file generated by ConQuest
# Please check atom types

@<TRIPOS>MOLECULE
HODGAJ
    59    62     1
SMALL
NO_CHARGES
****
Generated from CSD

@<TRIPOS>ATOM
      1 O1         0.6845    3.8502    7.1328 O.3       1 RES1    0.0000
      2 O2         9.3762    0.3891    3.6240 O.3       1 RES1    0.0000
      3 O3         7.2222    6.1750   -2.2049 O.3       1 RES1    0.0000
      4 N1         5.6339    3.2599    3.2168 N.3       1 RES1    0.0000
      5 N2         8.2541    0.5275    4.4812 N.2       1 RES1    0.0000
      6 C1         5.2548    2.2150    4.2034 C.3       1 RES1    0.0000
      7 C2         6.4414    1.9377    5.1508 C.3       1 RES1    0.0000
      8 C3         7.6649    1.6570    4.3213 C.2       1 RES1    0.0000
      9 C4         7.9949    2.6896    3.2810 C.3       1 RES1    0.0000
     10 C5         6.7765    2.8248    2.3678 C.3       1 RES1    0.0000
     11 C6        -0.4662    3.0074    7.2085 C.3       1 RES1    0.0000
     12 C7         6.1043    0.8342    6.1670 C.3       1 RES1    0.0000
     13 C8         8.4150    6.8975   -2.4711 C.3       1 RES1    0.0000
     14 C9         4.0087    2.6524    4.9349 C.ar      1 RES1    0.0000
     15 C10        3.9964    3.8179    5.6948 C.ar      1 RES1    0.0000
     16 C11        2.8774    4.1944    6.4036 C.ar      1 RES1    0.0000
     17 C12        1.7246    3.4042    6.3645 C.ar      1 RES1    0.0000
     18 C13        1.7082    2.2500    5.5957 C.ar      1 RES1    0.0000
     19 C14        2.8538    1.8926    4.8919 C.ar      1 RES1    0.0000
     20 C15        6.9230    0.8894    7.4417 C.ar      1 RES1    0.0000
     21 C16        6.6330    1.8656    8.3895 C.ar      1 RES1    0.0000
     22 C17        7.3329    1.9152    9.5813 C.ar      1 RES1    0.0000
     23 C18        8.3125    0.9942    9.8533 C.ar      1 RES1    0.0000
     24 C19        8.6199    0.0282    8.9347 C.ar      1 RES1    0.0000
     25 C20        7.9395   -0.0225    7.7272 C.ar      1 RES1    0.0000
     26 C21        6.9425    3.7616    1.1845 C.ar      1 RES1    0.0000
     27 C22        8.0287    4.6059    1.0350 C.ar      1 RES1    0.0000
     28 C23        8.1660    5.4242   -0.0857 C.ar      1 RES1    0.0000
     29 C24        7.1946    5.4118   -1.0661 C.ar      1 RES1    0.0000
     30 C25        6.0981    4.5844   -0.9282 C.ar      1 RES1    0.0000
     31 C26        5.9782    3.7627    0.1729 C.ar      1 RES1    0.0000
     32 H1         4.8469    3.4268    2.6816 H         1 RES1    0.0000
     33 H2         5.0476    1.3729    3.7051 H         1 RES1    0.0000
     34 H3         6.6147    2.7766    5.6664 H         1 RES1    0.0000
     35 H4         9.6410   -0.4081    3.6360 H         1 RES1    0.0000
     36 H5         8.7857    2.4073    2.7565 H         1 RES1    0.0000
     37 H6         8.1976    3.5575    3.7124 H         1 RES1    0.0000
     38 H7         6.5614    1.9166    2.0097 H         1 RES1    0.0000
     39 H8        -1.1410    3.4259    7.7829 H         1 RES1    0.0000
     40 H9        -0.2112    2.1386    7.5843 H         1 RES1    0.0000
     41 H10       -0.8367    2.8784    6.3103 H         1 RES1    0.0000
     42 H11        5.1452    0.9029    6.4033 H         1 RES1    0.0000
     43 H12        6.2447   -0.0462    5.7375 H         1 RES1    0.0000
     44 H13        8.3140    7.3987   -3.3067 H         1 RES1    0.0000
     45 H14        9.1642    6.2706   -2.5549 H         1 RES1    0.0000
     46 H15        8.5913    7.5200   -1.7354 H         1 RES1    0.0000
     47 H16        4.7735    4.3641    5.7256 H         1 RES1    0.0000
     48 H17        2.8879    4.9926    6.9192 H         1 RES1    0.0000
     49 H18        0.9267    1.7114    5.5507 H         1 RES1    0.0000
     50 H19        2.8424    1.1025    4.3651 H         1 RES1    0.0000
     51 H20        5.9488    2.5021    8.2170 H         1 RES1    0.0000
     52 H21        7.1332    2.5927   10.2167 H         1 RES1    0.0000
     53 H22        8.7773    1.0274   10.6808 H         1 RES1    0.0000
     54 H23        9.2995   -0.6088    9.1241 H         1 RES1    0.0000
     55 H24        8.1687   -0.6852    7.0863 H         1 RES1    0.0000
     56 H25        8.6952    4.6291    1.7112 H         1 RES1    0.0000
     57 H26        8.9251    5.9881   -0.1740 H         1 RES1    0.0000
     58 H27        5.4230    4.5800   -1.5963 H         1 RES1    0.0000
     59 H28        5.2256    3.1877    0.2455 H         1 RES1    0.0000
@<TRIPOS>BOND
     1    1   11 1
     2    2    5 1
     3    3   13 1
     4    4    6 1
     5    5    8 2
     6    6    7 1
     7    7    8 1
     8    8    9 1
     9    9   10 1
    10   10    4 1
    11   11   39 1
    12   12    7 1
    13   13   44 1
    14   14    6 1
    15   15   14 ar
    16   16   15 ar
    17   17    1 1
    18   18   17 ar
    19   19   14 ar
    20   20   12 1
    21   21   20 ar
    22   22   21 ar
    23   23   22 ar
    24   24   23 ar
    25   25   20 ar
    26   26   10 1
    27   27   26 ar
    28   28   27 ar
    29   29    3 1
    30   30   29 ar
    31   31   26 ar
    32   32    4 1
    33   33    6 1
    34   34    7 1
    35   35    2 1
    36   36    9 1
    37   37    9 1
    38   38   10 1
    39   40   11 1
    40   41   11 1
    41   42   12 1
    42   43   12 1
    43   45   13 1
    44   46   13 1
    45   47   15 1
    46   48   16 1
    47   49   18 1
    48   50   19 1
    49   51   21 1
    50   52   22 1
    51   53   23 1
    52   54   24 1
    53   55   25 1
    54   56   27 1
    55   57   28 1
    56   58   30 1
    57   59   31 1
    58   16   17 ar
    59   18   19 ar
    60   24   25 ar
    61   28   29 ar
    62   30   31 ar
@<TRIPOS>SUBSTRUCTURE
     1 RES1 1

@<TRIPOS>CRYSIN
  10.2472   11.2723   38.4188  90.0000  90.0000  90.0000  61 1

