# MOL2 file generated by ConQuest
# Please check atom types

@<TRIPOS>MOLECULE
HODKAN
    33    33     1
SMALL
NO_CHARGES
****
Generated from CSD

@<TRIPOS>ATOM
      1 N1         6.1149    4.0952    0.4484 N.pl3     1 RES1    0.0000
      2 N2         9.8347    6.9191    1.6457 N.pl3     1 RES1    0.0000
      3 N3         4.3052    6.0904    1.5682 N.3       1 RES1    0.0000
      4 N4         3.4721    7.1196    1.9463 N.2       1 RES1    0.0000
      5 O1         4.9101    3.8216    0.4365 O.2       1 RES1    0.0000
      6 O2         6.9379    3.3494   -0.0510 O.2       1 RES1    0.0000
      7 O3        10.5719    6.0207    1.2786 O.2       1 RES1    0.0000
      8 O4        10.2371    8.0078    2.0313 O.2       1 RES1    0.0000
      9 C1         5.6504    6.2727    1.5630 C.ar      1 RES1    0.0000
     10 C2         6.5524    5.3292    1.0541 C.ar      1 RES1    0.0000
     11 C3         7.9204    5.5397    1.0888 C.ar      1 RES1    0.0000
     12 H1         8.5065    4.9002    0.7527 H         1 RES1    0.0000
     13 C4         8.3943    6.7000    1.6221 C.ar      1 RES1    0.0000
     14 C5         7.5388    7.6658    2.1199 C.ar      1 RES1    0.0000
     15 H2         7.8816    8.4534    2.4760 H         1 RES1    0.0000
     16 C6         6.1954    7.4627    2.0882 C.ar      1 RES1    0.0000
     17 H3         5.6257    8.1195    2.4191 H         1 RES1    0.0000
     18 C7         2.2164    6.8923    1.8614 C.2       1 RES1    0.0000
     19 C8         1.2997    8.0138    2.2418 C.3       1 RES1    0.0000
     20 H4         0.6854    8.1660    1.5068 H         1 RES1    0.0000
     21 H5         0.7724    7.7278    3.0048 H         1 RES1    0.0000
     22 C9         1.9465    9.3100    2.5831 C.3       1 RES1    0.0000
     23 H6         2.5753    9.1762    3.2959 H         1 RES1    0.0000
     24 H7         1.2767    9.9384    2.8615 H         1 RES1    0.0000
     25 H8         2.4048    9.6524    1.8119 H         1 RES1    0.0000
     26 C10        1.5736    5.6088    1.3539 C.3       1 RES1    0.0000
     27 H9         0.6854    5.8089    1.0193 H         1 RES1    0.0000
     28 H10        2.0989    5.2594    0.6175 H         1 RES1    0.0000
     29 C11        1.4738    4.5789    2.4117 C.3       1 RES1    0.0000
     30 H11        2.3552    4.3422    2.7108 H         1 RES1    0.0000
     31 H12        1.0363    3.7998    2.0594 H         1 RES1    0.0000
     32 H13        0.9672    4.9255    3.1496 H         1 RES1    0.0000
     33 H14        4.0476    5.3327    1.2335 H         1 RES1    0.0000
@<TRIPOS>BOND
     1    1    5 2
     2    2    7 2
     3    3    4 1
     4    4   18 2
     5    6    1 2
     6    8    2 2
     7    9    3 1
     8   10    1 1
     9   11   10 ar
    10   12   11 1
    11   13    2 1
    12   14   13 ar
    13   15   14 1
    14   16    9 ar
    15   17   16 1
    16   18   19 1
    17   19   20 1
    18   21   19 1
    19   22   19 1
    20   23   22 1
    21   24   22 1
    22   25   22 1
    23   26   18 1
    24   27   26 1
    25   28   26 1
    26   29   26 1
    27   30   29 1
    28   31   29 1
    29   32   29 1
    30   33    3 1
    31    9   10 ar
    32   11   13 ar
    33   14   16 ar
@<TRIPOS>SUBSTRUCTURE
     1 RES1 1

@<TRIPOS>CRYSIN
  12.5298   14.0890    7.3983  90.0000  93.2350  90.0000  14 1

