# MOL2 file generated by ConQuest
# Please check atom types

@<TRIPOS>MOLECULE
HODQUN
    60    63     1
SMALL
NO_CHARGES
****
Generated from CSD

@<TRIPOS>ATOM
      1 N1         1.9928    4.3753    1.8666 N.2       1 RES1    0.0000
      2 O1         2.0753    3.2493    1.0273 O.3       1 RES1    0.0000
      3 C1         3.2569    2.5300    1.3161 C.3       1 RES1    0.0000
      4 H1         3.2303    2.1988    2.2281 H         1 RES1    0.0000
      5 H2         4.0295    3.1080    1.2228 H         1 RES1    0.0000
      6 C2         3.3516    1.3913    0.3610 C.3       1 RES1    0.0000
      7 H3         3.3067    1.7404   -0.5428 H         1 RES1    0.0000
      8 H4         2.5833    0.8133    0.4899 H         1 RES1    0.0000
      9 C3         4.5955    0.5697    0.4950 C.3       1 RES1    0.0000
     10 H5         4.6327    0.2052    1.3933 H         1 RES1    0.0000
     11 H6         5.3648    1.1496    0.3821 H         1 RES1    0.0000
     12 C4         0.8721    4.9680    1.6949 C.2       1 RES1    0.0000
     13 H7         0.2671    4.5754    1.1072 H         1 RES1    0.0000
     14 C5         0.4670    6.2013    2.3404 C.ar      1 RES1    0.0000
     15 C6        -0.6200    6.8299    1.8072 C.ar      1 RES1    0.0000
     16 H8        -1.0638    6.4194    1.1013 H         1 RES1    0.0000
     17 C7        -1.0975    8.0453    2.2632 C.ar      1 RES1    0.0000
     18 H9        -1.8326    8.4430    1.8558 H         1 RES1    0.0000
     19 C8        -0.4920    8.6444    3.2962 C.ar      1 RES1    0.0000
     20 H10       -0.8157    9.4577    3.6097 H         1 RES1    0.0000
     21 C9         0.6328    8.0536    3.9133 C.ar      1 RES1    0.0000
     22 C10        1.1286    6.8075    3.4514 C.ar      1 RES1    0.0000
     23 C11        2.2262    6.2397    4.1204 C.ar      1 RES1    0.0000
     24 H11        2.5658    5.4213    3.8390 H         1 RES1    0.0000
     25 C12        2.7933    6.8765    5.1719 C.ar      1 RES1    0.0000
     26 H12        3.5160    6.4846    5.6066 H         1 RES1    0.0000
     27 C13        2.3186    8.0997    5.6113 C.ar      1 RES1    0.0000
     28 H13        2.7308    8.5281    6.3258 H         1 RES1    0.0000
     29 C14        1.2659    8.6662    5.0058 C.ar      1 RES1    0.0000
     30 H14        0.9490    9.4833    5.3166 H         1 RES1    0.0000
     31 N1B        7.2997   -4.3753   -1.8666 N.2       1 RES1    0.0000
     32 O1B        7.2172   -3.2493   -1.0273 O.3       1 RES1    0.0000
     33 C1B        6.0356   -2.5300   -1.3161 C.3       1 RES1    0.0000
     34 H1B        6.0622   -2.1988   -2.2281 H         1 RES1    0.0000
     35 H2B        5.2630   -3.1080   -1.2228 H         1 RES1    0.0000
     36 C2B        5.9409   -1.3913   -0.3610 C.3       1 RES1    0.0000
     37 H3B        5.9858   -1.7404    0.5428 H         1 RES1    0.0000
     38 H4B        6.7092   -0.8133   -0.4899 H         1 RES1    0.0000
     39 C3B        4.6970   -0.5697   -0.4950 C.3       1 RES1    0.0000
     40 H5B        4.6598   -0.2052   -1.3933 H         1 RES1    0.0000
     41 H6B        3.9277   -1.1496   -0.3821 H         1 RES1    0.0000
     42 C4B        8.4204   -4.9680   -1.6949 C.2       1 RES1    0.0000
     43 H7B        9.0254   -4.5754   -1.1072 H         1 RES1    0.0000
     44 C5B        8.8255   -6.2013   -2.3404 C.ar      1 RES1    0.0000
     45 C6B        9.9125   -6.8299   -1.8072 C.ar      1 RES1    0.0000
     46 H8B       10.3563   -6.4194   -1.1013 H         1 RES1    0.0000
     47 C7B       10.3900   -8.0453   -2.2632 C.ar      1 RES1    0.0000
     48 H9B       11.1251   -8.4430   -1.8558 H         1 RES1    0.0000
     49 C8B        9.7845   -8.6444   -3.2962 C.ar      1 RES1    0.0000
     50 H10B      10.1082   -9.4577   -3.6097 H         1 RES1    0.0000
     51 C9B        8.6597   -8.0536   -3.9133 C.ar      1 RES1    0.0000
     52 C10B       8.1639   -6.8075   -3.4514 C.ar      1 RES1    0.0000
     53 C11B       7.0663   -6.2397   -4.1204 C.ar      1 RES1    0.0000
     54 H11B       6.7267   -5.4213   -3.8390 H         1 RES1    0.0000
     55 C12B       6.4992   -6.8765   -5.1719 C.ar      1 RES1    0.0000
     56 H12B       5.7765   -6.4846   -5.6066 H         1 RES1    0.0000
     57 C13B       6.9739   -8.0997   -5.6113 C.ar      1 RES1    0.0000
     58 H13B       6.5617   -8.5281   -6.3258 H         1 RES1    0.0000
     59 C14B       8.0266   -8.6662   -5.0058 C.ar      1 RES1    0.0000
     60 H14B       8.3435   -9.4833   -5.3166 H         1 RES1    0.0000
@<TRIPOS>BOND
     1    1    2 1
     2    2    3 1
     3    3    4 1
     4    5    3 1
     5    6    3 1
     6    7    6 1
     7    8    6 1
     8    9    6 1
     9   10    9 1
    10   11    9 1
    11   12    1 2
    12   13   12 1
    13   14   12 1
    14   15   14 ar
    15   16   15 1
    16   17   15 ar
    17   18   17 1
    18   19   17 ar
    19   20   19 1
    20   21   19 ar
    21   22   14 ar
    22   23   22 ar
    23   24   23 1
    24   25   23 ar
    25   26   25 1
    26   27   25 ar
    27   28   27 1
    28   29   21 ar
    29   30   29 1
    30   31   32 1
    31   32   33 1
    32   33   34 1
    33   35   33 1
    34   36   33 1
    35   37   36 1
    36   38   36 1
    37   39    9 1
    38   40   39 1
    39   41   39 1
    40   42   31 2
    41   43   42 1
    42   44   42 1
    43   45   44 ar
    44   46   45 1
    45   47   45 ar
    46   48   47 1
    47   49   47 ar
    48   50   49 1
    49   51   49 ar
    50   52   44 ar
    51   53   52 ar
    52   54   53 1
    53   55   53 ar
    54   56   55 1
    55   57   55 ar
    56   58   57 1
    57   59   51 ar
    58   60   59 1
    59   21   22 ar
    60   27   29 ar
    61   36   39 1
    62   51   52 ar
    63   57   59 ar
@<TRIPOS>SUBSTRUCTURE
     1 RES1 1

@<TRIPOS>CRYSIN
   9.2925    6.3938   19.7230  90.0000  96.4890  90.0000  14 1

