# MOL2 file generated by ConQuest
# Please check atom types

@<TRIPOS>MOLECULE
HODSEZ
    48    52     1
SMALL
NO_CHARGES
****
Generated from CSD

@<TRIPOS>ATOM
      1 N1        -1.3236    4.9449    6.8477 N.3       1 RES1    0.0000
      2 C1        -1.2159    4.4608    5.4732 C.3       1 RES1    0.0000
      3 C2         0.1556    3.6996    5.5686 C.3       1 RES1    0.0000
      4 C3        -0.0296    2.8943    6.8795 C.3       1 RES1    0.0000
      5 H1        -0.7020    2.2039    6.7016 H         1 RES1    0.0000
      6 C4        -0.6991    3.9608    7.7761 C.3       1 RES1    0.0000
      7 H2        -0.0011    4.4180    8.2910 H         1 RES1    0.0000
      8 C5        -1.8147    3.5472    8.7294 C.3       1 RES1    0.0000
      9 H3        -1.4649    3.2942    9.5985 H         1 RES1    0.0000
     10 H4        -2.3378    2.8145    8.3684 H         1 RES1    0.0000
     11 C6        -2.6350    4.8346    8.8085 C.3       1 RES1    0.0000
     12 H5        -3.5276    4.6617    9.1463 H         1 RES1    0.0000
     13 H6        -2.2020    5.4929    9.3750 H         1 RES1    0.0000
     14 C7        -2.6732    5.2962    7.3600 C.3       1 RES1    0.0000
     15 H7        -3.3661    4.8310    6.8649 H         1 RES1    0.0000
     16 H8        -2.8300    6.2524    7.3025 H         1 RES1    0.0000
     17 C8         1.4007    4.5745    5.5841 C.3       1 RES1    0.0000
     18 H9         2.1828    4.0177    5.5841 H         1 RES1    0.0000
     19 H10        1.3974    5.1209    6.3723 H         1 RES1    0.0000
     20 H11        1.4078    5.1363    4.8044 H         1 RES1    0.0000
     21 C9         1.1687    2.2003    7.5079 C.ar      1 RES1    0.0000
     22 C10        1.4161    0.8667    7.2113 C.ar      1 RES1    0.0000
     23 H12        0.9165    0.4438    6.5520 H         1 RES1    0.0000
     24 C11        2.3934    0.1627    7.8827 C.ar      1 RES1    0.0000
     25 H13        2.5627   -0.7235    7.6523 H         1 RES1    0.0000
     26 C12        3.1175    0.7527    8.8867 C.ar      1 RES1    0.0000
     27 H14        3.7454    0.2591    9.3647 H         1 RES1    0.0000
     28 C13        2.9057    2.0830    9.1824 C.ar      1 RES1    0.0000
     29 H15        3.3986    2.4938    9.8555 H         1 RES1    0.0000
     30 C14        1.9594    2.8034    8.4767 C.ar      1 RES1    0.0000
     31 H16        1.8505    3.7099    8.6546 H         1 RES1    0.0000
     32 N2         0.2621    2.8281    4.3316 N.pl3     1 RES1    0.0000
     33 O1         0.3024    1.6199    4.4339 O.2       1 RES1    0.0000
     34 O2         0.2987    3.4320    3.2544 O.2       1 RES1    0.0000
     35 N3        -2.1771    5.4881    3.5820 N.am      1 RES1    0.0000
     36 H17       -2.4288    6.0984    3.0387 H         1 RES1    0.0000
     37 C15       -1.2335    5.6867    4.5242 C.2       1 RES1    0.0000
     38 O3        -0.5599    6.6975    4.6737 O.2       1 RES1    0.0000
     39 C16       -2.3472    3.6129    4.8904 C.ar      1 RES1    0.0000
     40 C17       -2.9061    2.3999    5.2514 C.ar      1 RES1    0.0000
     41 H18       -2.6022    1.9524    6.0079 H         1 RES1    0.0000
     42 C18       -3.9229    1.8544    4.4777 C.ar      1 RES1    0.0000
     43 H19       -4.2925    1.0339    4.7124 H         1 RES1    0.0000
     44 C19       -4.3851    2.5204    3.3654 C.ar      1 RES1    0.0000
     45 H20       -5.0589    2.1371    2.8505 H         1 RES1    0.0000
     46 C20       -3.8647    3.7499    3.0001 C.ar      1 RES1    0.0000
     47 H21       -4.1885    4.2101    2.2591 H         1 RES1    0.0000
     48 C21       -2.8459    4.2689    3.7746 C.ar      1 RES1    0.0000
@<TRIPOS>BOND
     1    1    2 1
     2    2    3 1
     3    3    4 1
     4    4    5 1
     5    6    1 1
     6    7    6 1
     7    8    6 1
     8    9    8 1
     9   10    8 1
    10   11    8 1
    11   12   11 1
    12   13   11 1
    13   14    1 1
    14   15   14 1
    15   16   14 1
    16   17    3 1
    17   18   17 1
    18   19   17 1
    19   20   17 1
    20   21    4 1
    21   22   21 ar
    22   23   22 1
    23   24   22 ar
    24   25   24 1
    25   26   24 ar
    26   27   26 1
    27   28   26 ar
    28   29   28 1
    29   30   21 ar
    30   31   30 1
    31   32    3 1
    32   33   32 2
    33   34   32 2
    34   35   36 1
    35   37    2 1
    36   38   37 2
    37   39    2 1
    38   40   39 ar
    39   41   40 1
    40   42   40 ar
    41   43   42 1
    42   44   42 ar
    43   45   44 1
    44   46   44 ar
    45   47   46 1
    46   48   35 1
    47    4    6 1
    48   11   14 1
    49   28   30 ar
    50   35   37 1
    51   39   48 ar
    52   46   48 ar
@<TRIPOS>SUBSTRUCTURE
     1 RES1 1

@<TRIPOS>CRYSIN
   7.8524   25.6560    9.1767  90.0000 110.4890  90.0000 231 1

