# MOL2 file generated by ConQuest
# Please check atom types

@<TRIPOS>MOLECULE
HODTEA
    49    50     1
SMALL
NO_CHARGES
****
Generated from CSD

@<TRIPOS>ATOM
      1 N1        10.1428   -0.3299    7.0712 N.2       1 RES1    0.0000
      2 O1        10.4378   -1.1016    8.2071 O.3       1 RES1    0.0000
      3 O2        10.4161    0.6504    4.6463 O.3       1 RES1    0.0000
      4 H1        10.6260    0.1809    5.2857 H         1 RES1    0.0000
      5 O3         9.4452    2.3066    2.7628 O.3       1 RES1    0.0000
      6 H2        10.1038    1.8188    2.7585 H         1 RES1    0.0000
      7 C1        11.6465   -1.8277    7.9611 C.3       1 RES1    0.0000
      8 H3        12.3700   -1.2106    7.7726 H         1 RES1    0.0000
      9 H4        11.5345   -2.4091    7.1935 H         1 RES1    0.0000
     10 C2        11.9702   -2.6431    9.1779 C.3       1 RES1    0.0000
     11 H5        12.7162   -3.2278    8.9752 H         1 RES1    0.0000
     12 H6        11.2064   -3.2024    9.3937 H         1 RES1    0.0000
     13 C3        12.3210   -1.8014   10.3912 C.3       1 RES1    0.0000
     14 H7        11.5674   -1.2299   10.6087 H         1 RES1    0.0000
     15 H8        13.0745   -1.2299   10.1737 H         1 RES1    0.0000
     16 C4         9.0825    0.3586    7.2166 C.2       1 RES1    0.0000
     17 H9         8.6035    0.3027    8.0123 H         1 RES1    0.0000
     18 C5         8.6113    1.2271    6.1625 C.ar      1 RES1    0.0000
     19 C6         9.2868    1.3465    4.9464 C.ar      1 RES1    0.0000
     20 C7         8.8022    2.1929    3.9610 C.ar      1 RES1    0.0000
     21 C8         7.6766    2.9383    4.1884 C.ar      1 RES1    0.0000
     22 H10        7.3715    3.5238    3.5330 H         1 RES1    0.0000
     23 C9         6.9931    2.8283    5.3799 C.ar      1 RES1    0.0000
     24 H11        6.2204    3.3250    5.5212 H         1 RES1    0.0000
     25 C10        7.4561    1.9842    6.3539 C.ar      1 RES1    0.0000
     26 H12        6.9911    1.9151    7.1561 H         1 RES1    0.0000
     27 N1B       14.4991   -0.3299   13.7113 N.2       1 RES1    0.0000
     28 O1B       14.2042   -1.1016   12.5753 O.3       1 RES1    0.0000
     29 O2B       14.2259    0.6504   16.1362 O.3       1 RES1    0.0000
     30 H1B       14.0159    0.1809   15.4968 H         1 RES1    0.0000
     31 O3B       15.1968    2.3066   18.0196 O.3       1 RES1    0.0000
     32 H2B       14.5382    1.8188   18.0239 H         1 RES1    0.0000
     33 C1B       12.9955   -1.8277   12.8214 C.3       1 RES1    0.0000
     34 H3B       12.2720   -1.2106   13.0098 H         1 RES1    0.0000
     35 H4B       13.1075   -2.4091   13.5889 H         1 RES1    0.0000
     36 C2B       12.6718   -2.6431   11.6045 C.3       1 RES1    0.0000
     37 H5B       11.9258   -3.2278   11.8072 H         1 RES1    0.0000
     38 H6B       13.4355   -3.2024   11.3888 H         1 RES1    0.0000
     39 C4B       15.5595    0.3586   13.5658 C.2       1 RES1    0.0000
     40 H9B       16.0384    0.3027   12.7701 H         1 RES1    0.0000
     41 C5B       16.0307    1.2271   14.6199 C.ar      1 RES1    0.0000
     42 C6B       15.3551    1.3465   15.8361 C.ar      1 RES1    0.0000
     43 C7B       15.8397    2.1929   16.8214 C.ar      1 RES1    0.0000
     44 C8B       16.9654    2.9383   16.5941 C.ar      1 RES1    0.0000
     45 H10B      17.2705    3.5238   17.2494 H         1 RES1    0.0000
     46 C9B       17.6489    2.8283   15.4026 C.ar      1 RES1    0.0000
     47 H11B      18.4215    3.3250   15.2612 H         1 RES1    0.0000
     48 C10B      17.1858    1.9842   14.4285 C.ar      1 RES1    0.0000
     49 H12B      17.6509    1.9151   13.6263 H         1 RES1    0.0000
@<TRIPOS>BOND
     1    1    2 1
     2    2    7 1
     3    3    4 1
     4    5    6 1
     5    7    8 1
     6    9    7 1
     7   10    7 1
     8   11   10 1
     9   12   10 1
    10   13   10 1
    11   14   13 1
    12   15   13 1
    13   16    1 2
    14   17   16 1
    15   18   16 1
    16   19    3 1
    17   20    5 1
    18   21   20 ar
    19   22   21 1
    20   23   21 ar
    21   24   23 1
    22   25   18 ar
    23   26   25 1
    24   27   28 1
    25   28   33 1
    26   29   30 1
    27   31   32 1
    28   33   34 1
    29   35   33 1
    30   36   13 1
    31   37   36 1
    32   38   36 1
    33   39   27 2
    34   40   39 1
    35   41   39 1
    36   42   29 1
    37   43   31 1
    38   44   43 ar
    39   45   44 1
    40   46   44 ar
    41   47   46 1
    42   48   41 ar
    43   49   48 1
    44   18   19 ar
    45   19   20 ar
    46   23   25 ar
    47   33   36 1
    48   41   42 ar
    49   42   43 ar
    50   46   48 ar
@<TRIPOS>SUBSTRUCTURE
     1 RES1 1

@<TRIPOS>CRYSIN
  28.4390    4.6997   14.0843  90.0000 100.3540  90.0000  15 1

