# MOL2 file generated by ConQuest
# Please check atom types

@<TRIPOS>MOLECULE
HODTOK
    73    74     1
SMALL
NO_CHARGES
****
Generated from CSD

@<TRIPOS>ATOM
      1 N1         6.0599    2.9002    5.7980 N.pl3     1 RES1    0.0000
      2 H1         6.6868    2.4672    5.3990 H         1 RES1    0.0000
      3 C1         6.6312    0.9299    8.0217 C.3       1 RES1    0.0000
      4 H2         6.9928    0.0729    8.2605 H         1 RES1    0.0000
      5 H3         6.1459    1.2910    8.7687 H         1 RES1    0.0000
      6 H4         7.3478    1.5252    7.7898 H         1 RES1    0.0000
      7 O1         4.6550    4.4585    8.4583 O.2       1 RES1    0.0000
      8 C2         5.7072    0.7753    6.8519 C.3       1 RES1    0.0000
      9 H5         5.0181    0.1358    7.0906 H         1 RES1    0.0000
     10 H6         6.2111    0.3998    6.1118 H         1 RES1    0.0000
     11 N2         4.3334    4.7312    7.2782 N.pl3     1 RES1    0.0000
     12 O2         3.2515    4.6992    6.8110 O.2       1 RES1    0.0000
     13 N3         8.2466    4.0631    4.2499 N.pl3     1 RES1    0.0000
     14 O3         9.1291    4.6020    3.6903 O.2       1 RES1    0.0000
     15 C3         2.7817    1.0856    5.8151 C.3       1 RES1    0.0000
     16 H7         2.1771    0.8935    5.0954 H         1 RES1    0.0000
     17 H8         2.3482    1.6577    6.4529 H         1 RES1    0.0000
     18 H9         3.0396    0.2662    6.2448 H         1 RES1    0.0000
     19 N4         8.2503    8.9401    5.0091 N.3       1 RES1    0.0000
     20 H10        9.0513    8.8816    5.3171 H         1 RES1    0.0000
     21 O4         8.0851    2.8427    4.1326 O.2       1 RES1    0.0000
     22 C4         3.9888    1.7648    5.2796 C.3       1 RES1    0.0000
     23 H11        3.7257    2.6042    4.8703 H         1 RES1    0.0000
     24 H12        4.3875    1.2093    4.5941 H         1 RES1    0.0000
     25 O5         7.4871   13.8613    0.9584 O.2       1 RES1    0.0000
     26 C5         5.0344    2.0431    6.3744 C.3       1 RES1    0.0000
     27 H13        4.6098    2.4982    7.1282 H         1 RES1    0.0000
     28 O6         7.8124   11.7696    0.2841 O.3       1 RES1    0.0000
     29 C6         6.2251    4.2564    5.7639 C.ar      1 RES1    0.0000
     30 C7         5.4664    5.2050    6.4904 C.ar      1 RES1    0.0000
     31 O7        10.2302   10.5051    0.9386 O.3       1 RES1    0.0000
     32 C8         5.6864    6.5734    6.4764 C.ar      1 RES1    0.0000
     33 O8        10.0739    8.8694   -0.5825 O.2       1 RES1    0.0000
     34 O9         9.9094    8.3217    2.7455 O.3       1 RES1    0.0000
     35 C9         6.7890    7.0748    5.7847 C.ar      1 RES1    0.0000
     36 O10       11.6493    8.9401    3.9529 O.2       1 RES1    0.0000
     37 C10        7.5641    6.2310    5.0815 C.ar      1 RES1    0.0000
     38 H14        8.2836    6.5756    4.6009 H         1 RES1    0.0000
     39 O11        7.2751   10.6575    3.7489 O.3       1 RES1    0.0000
     40 C11        7.3277    4.8549    5.0443 C.ar      1 RES1    0.0000
     41 C12        4.7528    7.5077    7.2612 C.3       1 RES1    0.0000
     42 H15        4.0651    6.9897    7.6841 H         1 RES1    0.0000
     43 H16        4.3519    8.1383    6.6575 H         1 RES1    0.0000
     44 H17        5.2574    7.9782    7.9262 H         1 RES1    0.0000
     45 C13        7.0847    8.5790    5.8219 C.3       1 RES1    0.0000
     46 H18        6.3096    9.0638    5.4979 H         1 RES1    0.0000
     47 H19        7.2418    8.8496    6.7393 H         1 RES1    0.0000
     48 C14        7.9902    9.3819    3.7141 C.3       1 RES1    0.0000
     49 H20        7.4330    8.7170    3.2571 H         1 RES1    0.0000
     50 C15        6.8831   11.0749    2.4549 C.3       1 RES1    0.0000
     51 H21        6.3170   11.8590    2.5204 H         1 RES1    0.0000
     52 H22        6.3770   10.3703    2.0225 H         1 RES1    0.0000
     53 C16        8.1154   11.3974    1.6381 C.3       1 RES1    0.0000
     54 H23        8.6238   12.1131    2.0736 H         1 RES1    0.0000
     55 C17        8.9809   10.1273    1.5395 C.3       1 RES1    0.0000
     56 H24        8.5304    9.4492    0.9959 H         1 RES1    0.0000
     57 C18        9.2669    9.5917    2.9137 C.3       1 RES1    0.0000
     58 H25        9.8627   10.2047    3.3935 H         1 RES1    0.0000
     59 C19        7.4974   13.3688   -1.3847 C.3       1 RES1    0.0000
     60 H26        7.3522   14.3097   -1.5075 H         1 RES1    0.0000
     61 H27        6.7527   12.8795   -1.7428 H         1 RES1    0.0000
     62 H28        8.3007   13.1059   -1.8383 H         1 RES1    0.0000
     63 C20        7.6264   13.0871    0.0102 C.2       1 RES1    0.0000
     64 C21       11.9086   10.4178   -0.7128 C.3       1 RES1    0.0000
     65 H29       12.1665    9.9241   -1.4938 H         1 RES1    0.0000
     66 H30       12.6103   10.3714   -0.0580 H         1 RES1    0.0000
     67 H31       11.7523   11.3345   -0.9481 H         1 RES1    0.0000
     68 C22       10.6459    9.8247   -0.1371 C.2       1 RES1    0.0000
     69 C23       11.6181    6.7424    3.0150 C.3       1 RES1    0.0000
     70 H32       12.4962    6.6352    3.3867 H         1 RES1    0.0000
     71 H33       11.6574    6.6286    2.0634 H         1 RES1    0.0000
     72 H34       11.0283    6.0852    3.3935 H         1 RES1    0.0000
     73 C24       11.1113    8.0986    3.3322 C.2       1 RES1    0.0000
@<TRIPOS>BOND
     1    1    2 1
     2    3    4 1
     3    5    3 1
     4    6    3 1
     5    7   11 2
     6    8    3 1
     7    9    8 1
     8   10    8 1
     9   11   12 2
    10   13   14 2
    11   15   16 1
    12   17   15 1
    13   18   15 1
    14   19   20 1
    15   21   13 2
    16   22   15 1
    17   23   22 1
    18   24   22 1
    19   25   63 2
    20   26    1 1
    21   27   26 1
    22   28   53 1
    23   29    1 1
    24   30   11 1
    25   31   55 1
    26   32   30 ar
    27   33   68 2
    28   34   57 1
    29   35   32 ar
    30   36   73 2
    31   37   35 ar
    32   38   37 1
    33   39   48 1
    34   40   13 1
    35   41   32 1
    36   42   41 1
    37   43   41 1
    38   44   41 1
    39   45   19 1
    40   46   45 1
    41   47   45 1
    42   48   19 1
    43   49   48 1
    44   50   39 1
    45   51   50 1
    46   52   50 1
    47   53   50 1
    48   54   53 1
    49   55   53 1
    50   56   55 1
    51   57   48 1
    52   58   57 1
    53   59   60 1
    54   61   59 1
    55   62   59 1
    56   63   28 1
    57   64   65 1
    58   66   64 1
    59   67   64 1
    60   68   31 1
    61   69   70 1
    62   71   69 1
    63   72   69 1
    64   73   34 1
    65    8   26 1
    66   22   26 1
    67   29   30 ar
    68   29   40 ar
    69   35   45 1
    70   37   40 ar
    71   55   57 1
    72   59   63 1
    73   64   68 1
    74   69   73 1
@<TRIPOS>SUBSTRUCTURE
     1 RES1 1

@<TRIPOS>CRYSIN
   7.4100   11.0440   34.1060  90.0000  90.0000  90.0000  19 1

