# MOL2 file generated by ConQuest
# Please check atom types

@<TRIPOS>MOLECULE
HODXUV
    28    28     2
SMALL
USER_CHARGES
****
Generated from CSD

@<TRIPOS>ATOM
      1 O1         0.7154   -0.0371    3.9430 O.2       1 RES1   -1.0000
      2 N1         1.0141    0.4901    2.8466 N.pl3     1 RES1    1.0000
      3 C1         1.0955    1.8244    2.5493 C.2       1 RES1    0.0000
      4 C2         1.3958    1.9500    1.1823 C.2       1 RES1    0.0000
      5 O2         1.5008    3.0068    0.5398 O.2       1 RES1    0.0000
      6 C3         1.8386    0.1734   -0.6528 C.ar      1 RES1    0.0000
      7 H1         1.9583    0.7720   -1.3539 H         1 RES1    0.0000
      8 C4         1.9519   -1.1943   -0.8390 C.ar      1 RES1    0.0000
      9 H2         2.1597   -1.5231   -1.6834 H         1 RES1    0.0000
     10 C5         1.7632   -2.0786    0.2023 C.ar      1 RES1    0.0000
     11 H3         1.8600   -2.9899    0.0460 H         1 RES1    0.0000
     12 C6         1.4317   -1.6410    1.4811 C.ar      1 RES1    0.0000
     13 H4         1.2880   -2.2346    2.1822 H         1 RES1    0.0000
     14 C7         1.3300   -0.2948    1.6459 C.ar      1 RES1    0.0000
     15 C8         1.5408    0.6005    0.6176 C.ar      1 RES1    0.0000
     16 C9         0.8565    2.8971    3.4986 C.ar      1 RES1    0.0000
     17 N2         1.9066    3.7313    3.7561 N.pl3     1 RES1    1.0000
     18 O3         3.0627    3.5047    3.2136 O.2       1 RES1   -1.0000
     19 C10        1.7414    4.7609    4.6273 C.ar      1 RES1    0.0000
     20 H5         2.4487    5.3435    4.7867 H         1 RES1    0.0000
     21 C11        0.5565    4.9550    5.2702 C.ar      1 RES1    0.0000
     22 H6         0.4670    5.6606    5.8686 H         1 RES1    0.0000
     23 C12       -0.5037    4.1181    5.0411 C.ar      1 RES1    0.0000
     24 H7        -1.3137    4.2481    5.4793 H         1 RES1    0.0000
     25 C13       -0.3438    3.0828    4.1492 C.ar      1 RES1    0.0000
     26 H8        -1.0524    2.5038    3.9844 H         1 RES1    0.0000
     27 C14        1.0141    0.4901    2.8466 Du        2 SUP2    0.0000
     28 N3         1.3958    1.9500    1.1823 Du        2 SUP2    0.0000
@<TRIPOS>BOND
     1    1    2 1
     2    2    3 2
     3    3    4 1
     4    4    5 2
     5    6    7 1
     6    8    6 ar
     7    9    8 1
     8   10    8 ar
     9   11   10 1
    10   12   10 ar
    11   13   12 1
    12   14    2 1
    13   15    4 1
    14   16    3 1
    15   17   16 ar
    16   18   17 1
    17   19   17 ar
    18   20   19 1
    19   21   19 ar
    20   22   21 1
    21   23   21 ar
    22   24   23 1
    23   25   16 ar
    24   26   25 1
    25    6   15 ar
    26   12   14 ar
    27   14   15 ar
    28   23   25 ar
@<TRIPOS>SUBSTRUCTURE
     1 RES1 1
     2 SUP2 27

@<TRIPOS>CRYSIN
   6.6856   20.8648    7.9176  90.0000 104.5880  90.0000 231 1

