# MOL2 file generated by ConQuest
# Please check atom types

@<TRIPOS>MOLECULE
HODXOP
    30    32     1
SMALL
USER_CHARGES
****
Generated from CSD

@<TRIPOS>ATOM
      1 N1         2.0173    3.1821    6.9308 N.pl3     1 RES1    1.0000
      2 N2         2.4918    3.9746    7.8057 N.2       1 RES1    0.0000
      3 O1         2.1067    3.4121    5.6715 O.2       1 RES1   -1.0000
      4 O2         3.0726    5.0598    7.2182 O.3       1 RES1    0.0000
      5 H1         2.8898    4.9810    6.3534 H         1 RES1    0.0000
      6 C1         1.3517    1.9192    7.3986 C.3       1 RES1    0.0000
      7 H2         1.9484    1.1515    7.1625 H         1 RES1    0.0000
      8 C2         1.1113    1.8834    8.9143 C.3       1 RES1    0.0000
      9 H3         1.9711    2.0405    9.4004 H         1 RES1    0.0000
     10 C3         0.0649    2.9223    9.3469 C.3       1 RES1    0.0000
     11 H4         0.4025    3.8333    9.1581 H         1 RES1    0.0000
     12 H5        -0.0957    2.8480   10.3213 H         1 RES1    0.0000
     13 C4        -1.2520    2.6913    8.5868 C.3       1 RES1    0.0000
     14 H6        -1.9225    3.3808    8.8610 H         1 RES1    0.0000
     15 C5        -0.9896    2.8011    7.0770 C.3       1 RES1    0.0000
     16 H7        -1.8371    2.6754    6.5809 H         1 RES1    0.0000
     17 H8        -0.6385    3.7024    6.8654 H         1 RES1    0.0000
     18 C6         0.0249    1.7363    6.6433 C.3       1 RES1    0.0000
     19 H9         0.1842    1.8018    5.6580 H         1 RES1    0.0000
     20 C7         0.5683    0.4781    9.2424 C.3       1 RES1    0.0000
     21 H10        1.2303   -0.2060    8.9706 H         1 RES1    0.0000
     22 H11        0.4237    0.3967   10.2181 H         1 RES1    0.0000
     23 C8        -0.7570    0.2372    8.5025 C.3       1 RES1    0.0000
     24 H12       -1.1029   -0.6740    8.7240 H         1 RES1    0.0000
     25 C9        -0.5106    0.3383    6.9917 C.3       1 RES1    0.0000
     26 H13       -1.3560    0.1739    6.5030 H         1 RES1    0.0000
     27 H14        0.1452   -0.3492    6.7137 H         1 RES1    0.0000
     28 C10       -1.7891    1.2933    8.9179 C.3       1 RES1    0.0000
     29 H15       -2.6400    1.1381    8.4353 H         1 RES1    0.0000
     30 H16       -1.9672    1.2241    9.8893 H         1 RES1    0.0000
@<TRIPOS>BOND
     1    1    2 2
     2    2    4 1
     3    3    1 1
     4    4    5 1
     5    6    1 1
     6    7    6 1
     7    8    6 1
     8    9    8 1
     9   10    8 1
    10   11   10 1
    11   12   10 1
    12   13   10 1
    13   14   13 1
    14   15   13 1
    15   16   15 1
    16   17   15 1
    17   18    6 1
    18   19   18 1
    19   20    8 1
    20   21   20 1
    21   22   20 1
    22   23   20 1
    23   24   23 1
    24   25   18 1
    25   26   25 1
    26   27   25 1
    27   28   13 1
    28   29   28 1
    29   30   28 1
    30   15   18 1
    31   23   25 1
    32   23   28 1
@<TRIPOS>SUBSTRUCTURE
     1 RES1 1

@<TRIPOS>CRYSIN
   6.8388    6.4188   21.3470  90.0000  99.1980  90.0000  14 1

