# MOL2 file generated by ConQuest
# Please check atom types

@<TRIPOS>MOLECULE
HOFDOV
    19    19     1
SMALL
USER_CHARGES
****
Generated from CSD

@<TRIPOS>ATOM
      1 O1         4.8417    1.4496    8.1555 O.2       1 RES1   -1.0000
      2 N1         3.6482    1.5945    8.6594 N.pl3     1 RES1    1.0000
      3 C1         3.4990    2.0802    9.9241 C.ar      1 RES1    0.0000
      4 C2         2.2527    2.2286   10.4813 C.ar      1 RES1    0.0000
      5 C3         1.1315    1.8824    9.7336 C.ar      1 RES1    0.0000
      6 C4         1.2858    1.3994    8.4477 C.ar      1 RES1    0.0000
      7 C5         2.5525    1.2627    7.9267 C.ar      1 RES1    0.0000
      8 N2        -0.1671    2.1208   10.2947 N.3       1 RES1    0.0000
      9 N3        -1.0179    1.0710   10.3717 N.pl3     1 RES1    0.0000
     10 O2        -0.5595   -0.0646   10.2183 O.2       1 RES1    0.0000
     11 O3        -2.1908    1.3218   10.6535 O.2       1 RES1    0.0000
     12 C6        -0.7462    3.4687   10.3239 C.3       1 RES1    0.0000
     13 H1         2.7425    0.9343    7.0358 H         1 RES1    0.0000
     14 H2         2.1303    2.6724   11.4745 H         1 RES1    0.0000
     15 H3         0.5102    1.2023    7.9172 H         1 RES1    0.0000
     16 H4         4.3498    2.2465   10.3884 H         1 RES1    0.0000
     17 H5        -1.4159    3.5655    9.5857 H         1 RES1    0.0000
     18 H6        -1.0715    3.5793   11.2698 H         1 RES1    0.0000
     19 H7        -0.0255    3.9709   10.1680 H         1 RES1    0.0000
@<TRIPOS>BOND
     1    1    2 1
     2    2    3 ar
     3    3    4 ar
     4    4    5 ar
     5    5    6 ar
     6    6    7 ar
     7    7    2 ar
     8    8    5 1
     9    9    8 1
    10   10    9 2
    11   11    9 2
    12   12    8 1
    13   13    7 1
    14   14    4 1
    15   15    6 1
    16   16    3 1
    17   17   12 1
    18   18   12 1
    19   19   12 1
@<TRIPOS>SUBSTRUCTURE
     1 RES1 1

@<TRIPOS>CRYSIN
  12.7560    6.8700   15.7400  90.0000  90.0000  90.0000  61 1

