# MOL2 file generated by ConQuest
# Please check atom types

@<TRIPOS>MOLECULE
HOFFIT
    61    64     1
SMALL
NO_CHARGES
****
Generated from CSD

@<TRIPOS>ATOM
      1 C1         2.5662    8.8022    4.6671 C.3       1 RES1    0.0000
      2 H1         2.4522    9.5283    4.0201 H         1 RES1    0.0000
      3 C2         3.7049    7.8738    4.1616 C.3       1 RES1    0.0000
      4 H2         3.7919    7.1698    4.8382 H         1 RES1    0.0000
      5 C3         4.9880    8.6394    4.2095 C.2       1 RES1    0.0000
      6 C4         5.2992    9.1993    5.5537 C.3       1 RES1    0.0000
      7 H3         6.1253    9.7057    5.5137 H         1 RES1    0.0000
      8 H4         5.4165    8.4768    6.1904 H         1 RES1    0.0000
      9 C5         4.1600   10.1049    6.0067 C.3       1 RES1    0.0000
     10 H5         4.1074   10.8678    5.3939 H         1 RES1    0.0000
     11 C6         1.2617    8.0395    4.7583 C.ar      1 RES1    0.0000
     12 C7         1.0677    7.1000    5.7477 C.ar      1 RES1    0.0000
     13 H6         1.7382    6.9452    6.3730 H         1 RES1    0.0000
     14 C8        -0.1111    6.3872    5.8196 C.ar      1 RES1    0.0000
     15 H7        -0.2273    5.7521    6.4905 H         1 RES1    0.0000
     16 C9        -1.1099    6.6083    4.9135 C.ar      1 RES1    0.0000
     17 H8        -1.9055    6.1281    4.9694 H         1 RES1    0.0000
     18 C10       -0.9362    7.5295    3.9299 C.ar      1 RES1    0.0000
     19 H9        -1.6080    7.6711    3.3023 H         1 RES1    0.0000
     20 C11        0.2388    8.2620    3.8614 C.ar      1 RES1    0.0000
     21 H10        0.3385    8.9114    3.2030 H         1 RES1    0.0000
     22 C12        3.3577    7.1468    2.8482 C.3       1 RES1    0.0000
     23 H11        2.4930    6.7141    2.9988 H         1 RES1    0.0000
     24 C13        4.3500    6.0190    2.5595 C.3       1 RES1    0.0000
     25 H12        4.0461    5.5112    1.8029 H         1 RES1    0.0000
     26 H13        4.4139    5.4445    3.3251 H         1 RES1    0.0000
     27 H14        5.2134    6.3934    2.3678 H         1 RES1    0.0000
     28 C14        3.1763    8.0325    1.6306 C.3       1 RES1    0.0000
     29 H15        4.0333    8.3450    1.3317 H         1 RES1    0.0000
     30 H16        2.6233    8.7828    1.8600 H         1 RES1    0.0000
     31 H17        2.7574    7.5279    0.9288 H         1 RES1    0.0000
     32 C15        7.3578   10.1800    2.3575 C.2       1 RES1    0.0000
     33 C16        8.6771   10.7892    2.6759 C.ar      1 RES1    0.0000
     34 C17        9.2352   11.6947    1.7892 C.ar      1 RES1    0.0000
     35 H18        8.7908   11.9290    1.0076 H         1 RES1    0.0000
     36 C18       10.4600   12.2399    2.0882 C.ar      1 RES1    0.0000
     37 H19       10.8521   12.8682    1.5268 H         1 RES1    0.0000
     38 C19       11.0858   11.8346    3.2304 C.ar      1 RES1    0.0000
     39 H20       11.9237   12.1944    3.4107 H         1 RES1    0.0000
     40 N1        10.5967   10.9741    4.0931 N.ar      1 RES1    0.0000
     41 C20        9.3974   10.4674    3.7930 C.ar      1 RES1    0.0000
     42 H21        9.0258    9.8538    4.3852 H         1 RES1    0.0000
     43 C21        4.4877   10.6198    7.3840 C.ar      1 RES1    0.0000
     44 C22        4.9848   11.8949    7.5495 C.ar      1 RES1    0.0000
     45 H22        5.0372   12.4662    6.8180 H         1 RES1    0.0000
     46 C23        5.4050   12.3343    8.7853 C.ar      1 RES1    0.0000
     47 H23        5.7358   13.1986    8.8788 H         1 RES1    0.0000
     48 C24        5.3386   11.5156    9.8693 C.ar      1 RES1    0.0000
     49 H24        5.6298   11.8151   10.7000 H         1 RES1    0.0000
     50 C25        4.8379   10.2412    9.7267 C.ar      1 RES1    0.0000
     51 H25        4.7804    9.6813   10.4672 H         1 RES1    0.0000
     52 C26        4.4242    9.7942    8.4931 C.ar      1 RES1    0.0000
     53 H26        4.0984    8.9277    8.4030 H         1 RES1    0.0000
     54 C27        1.8097   10.3483    6.3422 C.3       1 RES1    0.0000
     55 H27        2.0013   10.7295    7.2014 H         1 RES1    0.0000
     56 H28        0.9681    9.8880    6.3764 H         1 RES1    0.0000
     57 H29        1.7676   11.0469    5.6849 H         1 RES1    0.0000
     58 N2         2.8722    9.3982    5.9802 N.3       1 RES1    0.0000
     59 N3         5.6443    8.8114    3.1362 N.2       1 RES1    0.0000
     60 O1         6.8649    9.5556    3.4221 O.3       1 RES1    0.0000
     61 O2         6.8106   10.2833    1.3054 O.2       1 RES1    0.0000
@<TRIPOS>BOND
     1    1    2 1
     2    3    1 1
     3    4    3 1
     4    5    3 1
     5    6    5 1
     6    7    6 1
     7    8    6 1
     8    9    6 1
     9   10    9 1
    10   11    1 1
    11   12   11 ar
    12   13   12 1
    13   14   12 ar
    14   15   14 1
    15   16   14 ar
    16   17   16 1
    17   18   16 ar
    18   19   18 1
    19   20   11 ar
    20   21   20 1
    21   22    3 1
    22   23   22 1
    23   24   22 1
    24   25   24 1
    25   26   24 1
    26   27   24 1
    27   28   22 1
    28   29   28 1
    29   30   28 1
    30   31   28 1
    31   32   33 1
    32   33   34 ar
    33   34   35 1
    34   36   34 ar
    35   37   36 1
    36   38   36 ar
    37   39   38 1
    38   40   38 ar
    39   41   33 ar
    40   42   41 1
    41   43    9 1
    42   44   43 ar
    43   45   44 1
    44   46   44 ar
    45   47   46 1
    46   48   46 ar
    47   49   48 1
    48   50   48 ar
    49   51   50 1
    50   52   43 ar
    51   53   52 1
    52   54   55 1
    53   56   54 1
    54   57   54 1
    55   58    1 1
    56   59    5 2
    57   60   32 1
    58   61   32 2
    59    9   58 1
    60   18   20 ar
    61   40   41 ar
    62   50   52 ar
    63   54   58 1
    64   59   60 1
@<TRIPOS>SUBSTRUCTURE
     1 RES1 1

@<TRIPOS>CRYSIN
  12.7717   16.2765   11.4109  90.0000  90.0000  90.0000  33 1

