# MOL2 file generated by ConQuest
# Please check atom types

@<TRIPOS>MOLECULE
HOFFIR
    33    34     1
SMALL
NO_CHARGES
****
Generated from CSD

@<TRIPOS>ATOM
      1 O1        -0.0896    3.5547    3.7673 O.2       1 RES1    0.0000
      2 O2        -0.0750    0.1306    6.6714 O.2       1 RES1    0.0000
      3 O3        -0.5865    8.0039    9.1726 O.2       1 RES1    0.0000
      4 O4        -2.7385    8.1748    9.2387 O.2       1 RES1    0.0000
      5 N1        -0.0309    1.8920    5.2700 N.am      1 RES1    0.0000
      6 N2        -1.7086    7.6385    8.8509 N.pl3     1 RES1    0.0000
      7 C1         0.1172    3.2247    4.9169 C.2       1 RES1    0.0000
      8 C2         0.5029    4.2082    6.0202 C.3       1 RES1    0.0000
      9 C3         1.4012    5.3035    5.3960 C.3       1 RES1    0.0000
     10 C4         2.6592    4.8022    4.7031 C.3       1 RES1    0.0000
     11 C5         1.2479    3.4796    7.1496 C.3       1 RES1    0.0000
     12 C6         0.4936    2.2507    7.6290 C.3       1 RES1    0.0000
     13 C7         0.1219    1.3305    6.5176 C.2       1 RES1    0.0000
     14 C8        -0.7852    4.8271    6.5708 C.ar      1 RES1    0.0000
     15 C9        -0.6959    5.9156    7.4389 C.ar      1 RES1    0.0000
     16 C10       -1.8453    6.4668    7.9515 C.ar      1 RES1    0.0000
     17 C11       -3.1000    5.9696    7.6750 C.ar      1 RES1    0.0000
     18 C12       -3.1937    4.8841    6.8428 C.ar      1 RES1    0.0000
     19 C13       -2.0541    4.3262    6.2867 C.ar      1 RES1    0.0000
     20 H1        -0.2432    1.3524    4.6343 H         1 RES1    0.0000
     21 H2         0.8746    5.8005    4.7509 H         1 RES1    0.0000
     22 H3         1.6629    5.9216    6.0964 H         1 RES1    0.0000
     23 H4         3.1492    5.5490    4.3493 H         1 RES1    0.0000
     24 H5         2.4159    4.2111    3.9875 H         1 RES1    0.0000
     25 H6         3.2067    4.3310    5.3359 H         1 RES1    0.0000
     26 H7         2.1246    3.2117    6.8329 H         1 RES1    0.0000
     27 H8         1.3721    4.0887    7.8943 H         1 RES1    0.0000
     28 H9         1.0442    1.7698    8.2670 H         1 RES1    0.0000
     29 H10       -0.3126    2.5335    8.0876 H         1 RES1    0.0000
     30 H11        0.1340    6.2653    7.6690 H         1 RES1    0.0000
     31 H12       -3.8615    6.3588    8.0428 H         1 RES1    0.0000
     32 H13       -4.0271    4.5206    6.6505 H         1 RES1    0.0000
     33 H14       -2.1375    3.6014    5.7107 H         1 RES1    0.0000
@<TRIPOS>BOND
     1    1    7 2
     2    2   13 2
     3    3    6 2
     4    4    6 2
     5    5    7 1
     6    6   16 1
     7    7    8 1
     8    8    9 1
     9    9   10 1
    10   10   23 1
    11   11    8 1
    12   12   11 1
    13   13    5 1
    14   14    8 1
    15   15   14 ar
    16   16   15 ar
    17   17   16 ar
    18   18   17 ar
    19   19   14 ar
    20   20    5 1
    21   21    9 1
    22   22    9 1
    23   24   10 1
    24   25   10 1
    25   26   11 1
    26   27   11 1
    27   28   12 1
    28   29   12 1
    29   30   15 1
    30   31   17 1
    31   32   18 1
    32   33   19 1
    33   12   13 1
    34   18   19 ar
@<TRIPOS>SUBSTRUCTURE
     1 RES1 1

@<TRIPOS>CRYSIN
   9.4376   13.1680   10.0350  90.0000  96.7100  90.0000 231 1

