# MOL2 file generated by ConQuest
# Please check atom types

@<TRIPOS>MOLECULE
HOFFIS
    26    26     1
SMALL
NO_CHARGES
****
Generated from CSD

@<TRIPOS>ATOM
      1 N1         1.2384    4.6737    9.7042 N.pl3     1 RES1    0.0000
      2 O1         2.4705   -0.0362    6.1275 O.3       1 RES1    0.0000
      3 C1         3.0314   -0.4551    4.8775 C.3       1 RES1    0.0000
      4 H1         2.9700   -1.4104    4.8024 H         1 RES1    0.0000
      5 H2         3.9529   -0.1891    4.8351 H         1 RES1    0.0000
      6 H3         2.5470   -0.0454    4.1556 H         1 RES1    0.0000
      7 O2         2.9868    2.0680    5.6539 O.2       1 RES1    0.0000
      8 C2         2.5069    1.2708    6.4000 C.2       1 RES1    0.0000
      9 O3         0.1141   -1.2319   10.0797 O.3       1 RES1    0.0000
     10 C3        -0.4841   -2.2855   10.8536 C.3       1 RES1    0.0000
     11 H4        -0.3712   -3.1218   10.3958 H         1 RES1    0.0000
     12 H5        -1.4205   -2.1073   10.9663 H         1 RES1    0.0000
     13 H6        -0.0603   -2.3315   11.7136 H         1 RES1    0.0000
     14 O4        -0.4758    0.2635   11.6215 O.2       1 RES1    0.0000
     15 C4         0.0473   -0.0115   10.5799 C.2       1 RES1    0.0000
     16 C5         0.7021    0.9947    9.7054 C.ar      1 RES1    0.0000
     17 O5         0.5474    4.9908   10.6380 O.2       1 RES1    0.0000
     18 C6         0.6638    2.3271   10.1027 C.ar      1 RES1    0.0000
     19 H7         0.2507    2.5797   10.8960 H         1 RES1    0.0000
     20 O6         1.9176    5.4576    9.1131 O.2       1 RES1    0.0000
     21 C7         1.2586    3.2602    9.2815 C.ar      1 RES1    0.0000
     22 C8         1.8625    2.9377    8.0993 C.ar      1 RES1    0.0000
     23 H8         2.2562    3.5967    7.5749 H         1 RES1    0.0000
     24 C9         1.8806    1.6070    7.6924 C.ar      1 RES1    0.0000
     25 C10        1.2957    0.6561    8.5051 C.ar      1 RES1    0.0000
     26 H9         1.3024   -0.2349    8.2386 H         1 RES1    0.0000
@<TRIPOS>BOND
     1    1   17 2
     2    2    3 1
     3    3    4 1
     4    5    3 1
     5    6    3 1
     6    7    8 2
     7    8    2 1
     8    9   10 1
     9   10   11 1
    10   12   10 1
    11   13   10 1
    12   14   15 2
    13   15    9 1
    14   16   15 1
    15   18   16 ar
    16   19   18 1
    17   20    1 2
    18   21    1 1
    19   22   21 ar
    20   23   22 1
    21   24    8 1
    22   25   16 ar
    23   26   25 1
    24   18   21 ar
    25   22   24 ar
    26   24   25 ar
@<TRIPOS>SUBSTRUCTURE
     1 RES1 1

@<TRIPOS>CRYSIN
   4.0130   10.6600   12.6430 106.1100  93.7400  91.4600   2 1

