# MOL2 file generated by ConQuest
# Please check atom types

@<TRIPOS>MOLECULE
HOFGIU
    33    36     1
SMALL
NO_CHARGES
****
Generated from CSD

@<TRIPOS>ATOM
      1 O1         4.0653    1.6496    8.6966 O.3       1 RES1    0.0000
      2 O2         2.6794    0.6894   11.9666 O.3       1 RES1    0.0000
      3 O3         4.2675    5.1276    9.0904 O.2       1 RES1    0.0000
      4 N1         4.6284    2.9247    9.1219 N.am      1 RES1    0.0000
      5 N2         3.0708    1.4652   13.1067 N.2       1 RES1    0.0000
      6 C1         4.8490    2.8268   10.5629 C.3       1 RES1    0.0000
      7 H1         5.4965    3.4887   10.9398 H         1 RES1    0.0000
      8 C2         5.2812    1.3709   10.6607 C.3       1 RES1    0.0000
      9 H2         6.1209    1.1794   10.1718 H         1 RES1    0.0000
     10 H3         5.3388    1.0425   11.5937 H         1 RES1    0.0000
     11 C3         4.0390    0.8849    9.9302 C.3       1 RES1    0.0000
     12 H4         3.9979   -0.1060    9.8017 H         1 RES1    0.0000
     13 C4         2.8928    1.4597   10.7542 C.3       1 RES1    0.0000
     14 H5         2.0545    1.5643   10.2174 H         1 RES1    0.0000
     15 C5         3.4561    2.8156   11.2320 C.3       1 RES1    0.0000
     16 H6         2.8870    3.5916   10.9600 H         1 RES1    0.0000
     17 C6         3.4897    2.6075   12.7176 C.2       1 RES1    0.0000
     18 C7         3.9756    3.6205   13.6889 C.3       1 RES1    0.0000
     19 H7         3.9295    3.2520   14.5948 H         1 RES1    0.0000
     20 H8         3.4144    4.4221   13.6342 H         1 RES1    0.0000
     21 H9         4.9035    3.8561   13.4795 H         1 RES1    0.0000
     22 C8         4.2068    4.0554    8.4918 C.2       1 RES1    0.0000
     23 C9         3.8242    3.9500    7.0599 C.ar      1 RES1    0.0000
     24 C10        4.3885    2.9963    6.2161 C.ar      1 RES1    0.0000
     25 H10        4.9986    2.3557    6.5623 H         1 RES1    0.0000
     26 C11        4.0595    2.9828    4.8689 C.ar      1 RES1    0.0000
     27 H11        4.4522    2.3402    4.2912 H         1 RES1    0.0000
     28 C12        3.1607    3.9040    4.3680 C.ar      1 RES1    0.0000
     29 H12        2.9241    3.8818    3.4497 H         1 RES1    0.0000
     30 C13        2.6033    4.8603    5.1999 C.ar      1 RES1    0.0000
     31 H13        1.9899    5.4955    4.8489 H         1 RES1    0.0000
     32 C14        2.9395    4.8919    6.5446 C.ar      1 RES1    0.0000
     33 H14        2.5668    5.5552    7.1124 H         1 RES1    0.0000
@<TRIPOS>BOND
     1    1    4 1
     2    2    5 1
     3    3   22 2
     4    4    6 1
     5    5   17 2
     6    6    7 1
     7    8    6 1
     8    9    8 1
     9   10    8 1
    10   11    1 1
    11   12   11 1
    12   13    2 1
    13   14   13 1
    14   15    6 1
    15   16   15 1
    16   17   15 1
    17   18   17 1
    18   19   18 1
    19   20   18 1
    20   21   18 1
    21   22    4 1
    22   23   22 1
    23   24   23 ar
    24   25   24 1
    25   26   24 ar
    26   27   26 1
    27   28   26 ar
    28   29   28 1
    29   30   28 ar
    30   31   30 1
    31   32   23 ar
    32   33   32 1
    33    8   11 1
    34   11   13 1
    35   13   15 1
    36   30   32 ar
@<TRIPOS>SUBSTRUCTURE
     1 RES1 1

@<TRIPOS>CRYSIN
   9.5030   10.2912   25.3470  90.0000  90.0000  90.0000  61 1

