# MOL2 file generated by ConQuest
# Please check atom types

@<TRIPOS>MOLECULE
HOFGOA
    37    40     1
SMALL
NO_CHARGES
****
Generated from CSD

@<TRIPOS>ATOM
      1 O1         3.6156    3.6917    3.5614 O.3       1 RES1    0.0000
      2 O2         3.6406    3.9098    6.4867 O.3       1 RES1    0.0000
      3 O3         2.0570    7.0706    1.5400 O.3       1 RES1    0.0000
      4 O4         7.1173    6.2201    3.7039 O.3       1 RES1    0.0000
      5 N1         2.2743    3.4954    6.4751 N.2       1 RES1    0.0000
      6 C1         2.6997    4.7941    3.4031 C.3       1 RES1    0.0000
      7 H1         1.8741    4.5935    2.8756 H         1 RES1    0.0000
      8 C2         4.6606    4.4072    4.2779 C.3       1 RES1    0.0000
      9 C3         5.8200    3.5100    4.5939 C.3       1 RES1    0.0000
     10 H2         6.3226    3.3249    3.7735 H         1 RES1    0.0000
     11 H3         5.4880    2.6683    4.9711 H         1 RES1    0.0000
     12 H4         6.4060    3.9499    5.2442 H         1 RES1    0.0000
     13 C4         3.8503    4.9449    5.4950 C.3       1 RES1    0.0000
     14 H5         4.2560    5.7700    5.8867 H         1 RES1    0.0000
     15 C5         2.4611    5.2073    4.8890 C.3       1 RES1    0.0000
     16 H6         2.1496    6.1516    4.9967 H         1 RES1    0.0000
     17 C6         1.6292    4.2108    5.6407 C.2       1 RES1    0.0000
     18 C7         0.1646    4.0312    5.4347 C.3       1 RES1    0.0000
     19 H7        -0.1536    3.2860    5.9850 H         1 RES1    0.0000
     20 H8        -0.0113    3.8375    4.4897 H         1 RES1    0.0000
     21 H9        -0.3047    4.8513    5.6932 H         1 RES1    0.0000
     22 C8         3.6036    5.8531    2.8142 C.ar      1 RES1    0.0000
     23 C9         3.3506    6.9270    1.9738 C.ar      1 RES1    0.0000
     24 C10        4.4271    7.7459    1.6481 C.ar      1 RES1    0.0000
     25 H10        4.2991    8.4743    1.0512 H         1 RES1    0.0000
     26 C11        5.6932    7.5105    2.1874 C.ar      1 RES1    0.0000
     27 H11        6.4146    8.0768    1.9413 H         1 RES1    0.0000
     28 C12        5.9238    6.4610    3.0803 C.ar      1 RES1    0.0000
     29 C13        4.8546    5.6201    3.3677 C.ar      1 RES1    0.0000
     30 C14        1.7450    8.2626    0.8125 C.3       1 RES1    0.0000
     31 H12        0.7859    8.2813    0.6111 H         1 RES1    0.0000
     32 H13        2.2545    8.2770   -0.0246 H         1 RES1    0.0000
     33 H14        1.9805    9.0460    1.3518 H         1 RES1    0.0000
     34 C15        8.2833    6.7994    3.1168 C.3       1 RES1    0.0000
     35 H15        9.0800    6.4785    3.5878 H         1 RES1    0.0000
     36 H16        8.2339    7.7759    3.1870 H         1 RES1    0.0000
     37 H17        8.3357    6.5418    2.1731 H         1 RES1    0.0000
@<TRIPOS>BOND
     1    1    6 1
     2    2    5 1
     3    3   23 1
     4    4   28 1
     5    5   17 2
     6    6    7 1
     7    8    1 1
     8    9    8 1
     9   10    9 1
    10   11    9 1
    11   12    9 1
    12   13    2 1
    13   14   13 1
    14   15    6 1
    15   16   15 1
    16   17   15 1
    17   18   17 1
    18   19   18 1
    19   20   18 1
    20   21   18 1
    21   22    6 1
    22   23   22 ar
    23   24   23 ar
    24   25   24 1
    25   26   24 ar
    26   27   26 1
    27   28   26 ar
    28   29    8 1
    29   30    3 1
    30   31   30 1
    31   32   30 1
    32   33   30 1
    33   34    4 1
    34   35   34 1
    35   36   34 1
    36   37   34 1
    37    8   13 1
    38   13   15 1
    39   22   29 ar
    40   28   29 ar
@<TRIPOS>SUBSTRUCTURE
     1 RES1 1

@<TRIPOS>CRYSIN
   9.0608   14.3998   10.1631  90.0000 104.8350  90.0000 231 1

