# MOL2 file generated by ConQuest
# Please check atom types

@<TRIPOS>MOLECULE
HOFGEP
    47    51     1
SMALL
NO_CHARGES
****
Generated from CSD

@<TRIPOS>ATOM
      1 O1         4.5137    6.6141    8.5966 O.2       1 RES1    0.0000
      2 O2        -1.0180    8.3938    3.6629 O.2       1 RES1    0.0000
      3 O3         0.1338    9.7714    2.4649 O.2       1 RES1    0.0000
      4 O4         2.3995    2.1922    8.7196 O.2       1 RES1    0.0000
      5 O5         1.2044    2.6995    6.9953 O.2       1 RES1    0.0000
      6 N1         4.3069    8.0769    6.8260 N.am      1 RES1    0.0000
      7 H1         5.0749    8.4607    6.8791 H         1 RES1    0.0000
      8 N2         1.6294    6.6117    8.4032 N.3       1 RES1    0.0000
      9 N3         0.0312    8.9815    3.4036 N.pl3     1 RES1    0.0000
     10 N4         1.9943    2.9877    7.8845 N.pl3     1 RES1    0.0000
     11 C1         3.8933    7.0831    7.6528 C.2       1 RES1    0.0000
     12 C2         2.4786    6.6380    7.2037 C.3       1 RES1    0.0000
     13 C3         2.1876    7.6086    6.0794 C.ar      1 RES1    0.0000
     14 C4         1.1066    7.7719    5.2474 C.ar      1 RES1    0.0000
     15 H2         0.3410    7.2543    5.3456 H         1 RES1    0.0000
     16 C5         1.2000    8.7378    4.2537 C.ar      1 RES1    0.0000
     17 C6         2.3306    9.4847    4.0273 C.ar      1 RES1    0.0000
     18 H3         2.3570   10.0979    3.3283 H         1 RES1    0.0000
     19 C7         3.4328    9.3151    4.8507 C.ar      1 RES1    0.0000
     20 H4         4.2141    9.8017    4.7151 H         1 RES1    0.0000
     21 C8         3.3319    8.3986    5.8775 C.ar      1 RES1    0.0000
     22 C9         0.2794    7.2129    8.3862 C.3       1 RES1    0.0000
     23 H5        -0.0529    7.2893    7.4789 H         1 RES1    0.0000
     24 H6         0.2881    8.0936    8.7932 H         1 RES1    0.0000
     25 C10       -0.5787    6.2486    9.2000 C.3       1 RES1    0.0000
     26 H7        -0.5010    6.4214   10.1509 H         1 RES1    0.0000
     27 H8        -1.5119    6.2995    8.9399 H         1 RES1    0.0000
     28 C11        0.0295    4.9044    8.8280 C.3       1 RES1    0.0000
     29 H9        -0.2182    4.2148    9.4624 H         1 RES1    0.0000
     30 H10       -0.2347    4.6297    7.9369 H         1 RES1    0.0000
     31 C12        1.5146    5.2174    8.8965 C.3       1 RES1    0.0000
     32 H11        1.8162    5.1736    9.8284 H         1 RES1    0.0000
     33 C13        2.4683    4.4051    8.0090 C.3       1 RES1    0.0000
     34 H12        3.3632    4.4115    8.4094 H         1 RES1    0.0000
     35 C14        2.5075    5.1552    6.6933 C.3       1 RES1    0.0000
     36 H13        1.6573    4.9880    6.2357 H         1 RES1    0.0000
     37 C15        3.6188    4.8089    5.7219 C.ar      1 RES1    0.0000
     38 C16        4.9102    4.4816    6.1289 C.ar      1 RES1    0.0000
     39 H14        5.1153    4.4736    7.0355 H         1 RES1    0.0000
     40 C17        5.8930    4.1702    5.2085 C.ar      1 RES1    0.0000
     41 H15        6.7494    3.9568    5.5004 H         1 RES1    0.0000
     42 C18        5.6063    4.1750    3.8588 C.ar      1 RES1    0.0000
     43 H16        6.2633    3.9496    3.2412 H         1 RES1    0.0000
     44 C19        4.3360    4.5166    3.4274 C.ar      1 RES1    0.0000
     45 H17        4.1414    4.5405    2.5188 H         1 RES1    0.0000
     46 C20        3.3574    4.8232    4.3580 C.ar      1 RES1    0.0000
     47 H18        2.5046    5.0446    4.0620 H         1 RES1    0.0000
@<TRIPOS>BOND
     1    1   11 2
     2    2    9 2
     3    3    9 2
     4    4   10 2
     5    5   10 2
     6    6    7 1
     7    8   12 1
     8    9   16 1
     9   10   33 1
    10   11    6 1
    11   12   11 1
    12   13   12 1
    13   14   13 ar
    14   15   14 1
    15   16   14 ar
    16   17   16 ar
    17   18   17 1
    18   19   17 ar
    19   20   19 1
    20   21    6 1
    21   22    8 1
    22   23   22 1
    23   24   22 1
    24   25   22 1
    25   26   25 1
    26   27   25 1
    27   28   25 1
    28   29   28 1
    29   30   28 1
    30   31    8 1
    31   32   31 1
    32   33   31 1
    33   34   33 1
    34   35   12 1
    35   36   35 1
    36   37   35 1
    37   38   37 ar
    38   39   38 1
    39   40   38 ar
    40   41   40 1
    41   42   40 ar
    42   43   42 1
    43   44   42 ar
    44   45   44 1
    45   46   37 ar
    46   47   46 1
    47   13   21 ar
    48   19   21 ar
    49   28   31 1
    50   33   35 1
    51   44   46 ar
@<TRIPOS>SUBSTRUCTURE
     1 RES1 1

@<TRIPOS>CRYSIN
  13.9980    7.9630   16.3590  90.0000  99.6950  90.0000  14 1

