# MOL2 file generated by ConQuest
# Please check atom types

@<TRIPOS>MOLECULE
HOFNEW01
    39    41     1
SMALL
NO_CHARGES
****
Generated from CSD

@<TRIPOS>ATOM
      1 N1         1.0070    0.3798    9.1915 N.2       1 RES1    0.0000
      2 O1         2.4742   -1.6377    9.8689 O.3       1 RES1    0.0000
      3 O2         2.6923    1.3231    7.3595 O.2       1 RES1    0.0000
      4 N2         0.6253    1.3201    8.2678 N.am      1 RES1    0.0000
      5 O3        -1.2943   -1.0124   14.8155 O.2       1 RES1    0.0000
      6 C1         0.3810   -1.7345   13.3987 C.ar      1 RES1    0.0000
      7 C2         0.2611    0.2013   10.2202 C.2       1 RES1    0.0000
      8 N3        -0.3282   -1.7618   14.6675 N.pl3     1 RES1    0.0000
      9 C3         0.6643   -0.7747   11.2225 C.ar      1 RES1    0.0000
     10 O4         0.0693   -2.5251   15.5526 O.2       1 RES1    0.0000
     11 C4        -0.0202   -0.8357   12.4311 C.ar      1 RES1    0.0000
     12 C5         1.1416    1.7373    4.0769 C.ar      1 RES1    0.0000
     13 C6         2.1068   -2.5744   11.9952 C.ar      1 RES1    0.0000
     14 N4         2.8076    2.9468    3.1972 N.3       1 RES1    0.0000
     15 C7         1.5891    2.6852    5.0567 C.2       1 RES1    0.0000
     16 C8         1.5465    1.7492    7.3759 C.2       1 RES1    0.0000
     17 C9         1.7402    1.1880    1.7527 C.ar      1 RES1    0.0000
     18 C10        1.9241    1.9313    2.9197 C.ar      1 RES1    0.0000
     19 C11        1.7516   -1.6587   11.0095 C.ar      1 RES1    0.0000
     20 C12        1.0540    2.8413    6.4451 C.3       1 RES1    0.0000
     21 C13        0.1273    0.7612    4.0591 C.ar      1 RES1    0.0000
     22 C14        0.7451    0.2373    1.7676 C.ar      1 RES1    0.0000
     23 C15        1.4349   -2.6144   13.1937 C.ar      1 RES1    0.0000
     24 C16        2.5938    3.3970    4.4796 C.2       1 RES1    0.0000
     25 C17       -0.0528    0.0296    2.9099 C.ar      1 RES1    0.0000
     26 H1        -0.4610    0.6456    4.8781 H         1 RES1    0.0000
     27 H2        -0.7721   -0.2563   12.6165 H         1 RES1    0.0000
     28 H3         2.2799    1.3578    0.9851 H         1 RES1    0.0000
     29 H4        -0.5564    0.6745   10.3496 H         1 RES1    0.0000
     30 H5         0.1222    2.8299    6.4774 H         1 RES1    0.0000
     31 H6         1.6902   -3.2381   13.8954 H         1 RES1    0.0000
     32 H7         1.3638    3.7262    6.8186 H         1 RES1    0.0000
     33 H8        -0.1832    1.5042    8.1924 H         1 RES1    0.0000
     34 H9         2.8459   -3.1771   11.7976 H         1 RES1    0.0000
     35 H10        3.1465    4.1145    4.8514 H         1 RES1    0.0000
     36 H11       -0.7787   -0.6534    2.8544 H         1 RES1    0.0000
     37 H12        0.5659   -0.2862    0.9792 H         1 RES1    0.0000
     38 H13        3.3794    3.2825    2.6467 H         1 RES1    0.0000
     39 H14        2.1435   -0.9462    9.3675 H         1 RES1    0.0000
@<TRIPOS>BOND
     1    1    4 1
     2    2   19 1
     3    3   16 2
     4    4   16 1
     5    5    8 2
     6    6    8 1
     7    7    1 2
     8    8   10 2
     9    9    7 1
    10   11    6 ar
    11   12   15 1
    12   13   19 ar
    13   14   18 1
    14   15   20 1
    15   16   20 1
    16   17   18 ar
    17   18   12 ar
    18   19    9 ar
    19   20   30 1
    20   21   12 ar
    21   22   17 ar
    22   23    6 ar
    23   24   14 1
    24   25   21 ar
    25   26   21 1
    26   27   11 1
    27   28   17 1
    28   29    7 1
    29   31   23 1
    30   32   20 1
    31   33    4 1
    32   34   13 1
    33   35   24 1
    34   36   25 1
    35   37   22 1
    36   38   14 1
    37   39    2 1
    38    9   11 ar
    39   13   23 ar
    40   15   24 2
    41   22   25 ar
@<TRIPOS>SUBSTRUCTURE
     1 RES1 1

@<TRIPOS>CRYSIN
   9.5435   11.0932   29.6720  90.0000  90.0000  90.0000  61 1

