# MOL2 file generated by ConQuest
# Please check atom types

@<TRIPOS>MOLECULE
HOFREA
    43    45     1
SMALL
NO_CHARGES
****
Generated from CSD

@<TRIPOS>ATOM
      1 N1         7.0435    3.9928   -0.7340 N.2       1 RES1    0.0000
      2 N2        10.6806    2.6916    1.8534 N.am      1 RES1    0.0000
      3 N3         9.8106    3.3621    2.6891 N.pl3     1 RES1    0.0000
      4 H1         9.8972    3.4351    3.5416 H         1 RES1    0.0000
      5 O1         6.4263    3.2263    0.2675 O.3       1 RES1    0.0000
      6 O2        10.8167    2.3271   -0.4234 O.2       1 RES1    0.0000
      7 C1         5.0207    3.2494    0.0450 C.3       1 RES1    0.0000
      8 H2         4.8124    2.8722   -0.8243 H         1 RES1    0.0000
      9 H3         4.6921    4.1620    0.0703 H         1 RES1    0.0000
     10 C2         4.3840    2.4422    1.1240 C.3       1 RES1    0.0000
     11 H4         4.7274    1.5467    1.0998 H         1 RES1    0.0000
     12 H5         3.4335    2.4227    0.9903 H         1 RES1    0.0000
     13 H6         4.5787    2.8366    1.9772 H         1 RES1    0.0000
     14 C3         8.3074    4.1118   -0.5347 C.2       1 RES1    0.0000
     15 C4         9.0469    3.6170    0.6325 C.2       1 RES1    0.0000
     16 C5        10.2304    2.8381    0.5603 C.2       1 RES1    0.0000
     17 C6         8.8156    3.8793    1.9690 C.2       1 RES1    0.0000
     18 C7         7.7132    4.6012    2.6528 C.3       1 RES1    0.0000
     19 H7         6.9886    3.9946    2.8199 H         1 RES1    0.0000
     20 H8         7.4072    5.3201    2.0948 H         1 RES1    0.0000
     21 H9         8.0314    4.9566    3.4851 H         1 RES1    0.0000
     22 C8         9.0520    4.8477   -1.5898 C.ar      1 RES1    0.0000
     23 C9         8.5593    4.9096   -2.8879 C.ar      1 RES1    0.0000
     24 H10        7.7621    4.4808   -3.0989 H         1 RES1    0.0000
     25 C10        9.2398    5.5964   -3.8587 C.ar      1 RES1    0.0000
     26 H11        8.8987    5.6342   -4.7233 H         1 RES1    0.0000
     27 C11       10.4187    6.2282   -3.5658 C.ar      1 RES1    0.0000
     28 H12       10.8782    6.6868   -4.2322 H         1 RES1    0.0000
     29 C12       10.9244    6.1880   -2.2919 C.ar      1 RES1    0.0000
     30 H13       11.7175    6.6295   -2.0878 H         1 RES1    0.0000
     31 C13       10.2429    5.4829   -1.3120 C.ar      1 RES1    0.0000
     32 H14       10.5949    5.4382   -0.4531 H         1 RES1    0.0000
     33 C14       11.9087    2.1823    2.3363 C.ar      1 RES1    0.0000
     34 C15       12.3833    2.5672    3.5658 C.ar      1 RES1    0.0000
     35 H15       11.9073    3.1817    4.0754 H         1 RES1    0.0000
     36 C16       13.5665    2.0432    4.0443 C.ar      1 RES1    0.0000
     37 H16       13.8771    2.2989    4.8824 H         1 RES1    0.0000
     38 C17       14.2837    1.1546    3.2995 C.ar      1 RES1    0.0000
     39 H17       15.0841    0.8095    3.6235 H         1 RES1    0.0000
     40 C18       13.8176    0.7774    2.0763 C.ar      1 RES1    0.0000
     41 H18       14.3084    0.1754    1.5656 H         1 RES1    0.0000
     42 C19       12.6265    1.2761    1.5840 C.ar      1 RES1    0.0000
     43 H19       12.3124    1.0032    0.7517 H         1 RES1    0.0000
@<TRIPOS>BOND
     1    1    5 1
     2    2    3 1
     3    3    4 1
     4    5    7 1
     5    6   16 2
     6    7    8 1
     7    9    7 1
     8   10    7 1
     9   11   10 1
    10   12   10 1
    11   13   10 1
    12   14    1 2
    13   15   14 1
    14   16    2 1
    15   17    3 1
    16   18   17 1
    17   19   18 1
    18   20   18 1
    19   21   18 1
    20   22   14 1
    21   23   22 ar
    22   24   23 1
    23   25   23 ar
    24   26   25 1
    25   27   25 ar
    26   28   27 1
    27   29   27 ar
    28   30   29 1
    29   31   22 ar
    30   32   31 1
    31   33    2 1
    32   34   33 ar
    33   35   34 1
    34   36   34 ar
    35   37   36 1
    36   38   36 ar
    37   39   38 1
    38   40   38 ar
    39   41   40 1
    40   42   33 ar
    41   43   42 1
    42   15   16 1
    43   15   17 2
    44   29   31 ar
    45   40   42 ar
@<TRIPOS>SUBSTRUCTURE
     1 RES1 1

@<TRIPOS>CRYSIN
  13.0046   11.4657   11.6874  90.0000  99.4530  90.0000  14 1

