# MOL2 file generated by ConQuest
# Please check atom types

@<TRIPOS>MOLECULE
HOFWUV
   100   106     2
SMALL
NO_CHARGES
****
Generated from CSD

@<TRIPOS>ATOM
      1 N1         1.5130   32.1196    4.2845 N.2       1 RES1    0.0000
      2 O1         1.4349   33.4937    3.9565 O.3       1 RES1    0.0000
      3 H1         1.4108   33.9379    4.6455 H         1 RES1    0.0000
      4 C1        -0.9013   25.2338    4.3738 C.3       1 RES1    0.0000
      5 H2        -0.4330   25.4217    5.2025 H         1 RES1    0.0000
      6 H3        -1.7454   25.7094    4.3990 H         1 RES1    0.0000
      7 C2        -1.1838   23.7409    4.2942 C.3       1 RES1    0.0000
      8 H4        -0.4159   23.2556    4.6326 H         1 RES1    0.0000
      9 H5        -1.9421   23.5306    4.8616 H         1 RES1    0.0000
     10 C3        -1.4723   23.2907    2.9124 C.2       1 RES1    0.0000
     11 H6        -1.7686   22.4179    2.7850 H         1 RES1    0.0000
     12 C4        -1.3310   24.0611    1.8605 C.2       1 RES1    0.0000
     13 H7        -1.5178   23.6998    1.0247 H         1 RES1    0.0000
     14 C5        -0.8886   25.4851    1.9246 C.3       1 RES1    0.0000
     15 H8        -1.7064   26.0182    2.0100 H         1 RES1    0.0000
     16 C6        -0.1925   25.9911    0.6799 C.3       1 RES1    0.0000
     17 H9        -0.7295   25.7813   -0.0996 H         1 RES1    0.0000
     18 H10        0.6642   25.5486    0.5848 H         1 RES1    0.0000
     19 C7         0.0211   27.4917    0.7575 C.3       1 RES1    0.0000
     20 H11       -0.8409   27.9347    0.7381 H         1 RES1    0.0000
     21 H12        0.5228   27.7824   -0.0201 H         1 RES1    0.0000
     22 C8         0.7719   27.9114    2.0229 C.3       1 RES1    0.0000
     23 H13        1.6934   27.5835    1.9582 H         1 RES1    0.0000
     24 C9         0.1246   27.3018    3.2915 C.3       1 RES1    0.0000
     25 H14       -0.7780   27.6808    3.3394 H         1 RES1    0.0000
     26 C10       -0.0628   25.7694    3.1977 C.3       1 RES1    0.0000
     27 C11        0.8447   27.7697    4.5653 C.3       1 RES1    0.0000
     28 H15        0.3700   27.4270    5.3383 H         1 RES1    0.0000
     29 H16        1.7388   27.3931    4.5776 H         1 RES1    0.0000
     30 C12        0.9472   29.2897    4.6772 C.3       1 RES1    0.0000
     31 H17        0.0608   29.6692    4.7839 H         1 RES1    0.0000
     32 H18        1.4719   29.5254    5.4587 H         1 RES1    0.0000
     33 C13        1.6036   29.8697    3.4280 C.3       1 RES1    0.0000
     34 C14        0.8131   29.4251    2.1885 C.3       1 RES1    0.0000
     35 H19       -0.1133   29.6946    2.3574 H         1 RES1    0.0000
     36 C15        1.3155   30.3546    1.0933 C.3       1 RES1    0.0000
     37 H20        0.6843   30.3969    0.3577 H         1 RES1    0.0000
     38 H21        2.1756   30.0584    0.7543 H         1 RES1    0.0000
     39 C16        1.4383   31.7185    1.7991 C.3       1 RES1    0.0000
     40 H22        2.2335   32.1906    1.5067 H         1 RES1    0.0000
     41 H23        0.6610   32.2710    1.6231 H         1 RES1    0.0000
     42 C17        1.5282   31.3627    3.2676 C.2       1 RES1    0.0000
     43 C18        3.0945   29.4953    3.3678 C.3       1 RES1    0.0000
     44 H24        3.4813   29.8511    2.5637 H         1 RES1    0.0000
     45 H25        3.1854   28.5396    3.3704 H         1 RES1    0.0000
     46 H26        3.5475   29.8638    4.1306 H         1 RES1    0.0000
     47 C19        1.2843   25.0380    3.1738 C.3       1 RES1    0.0000
     48 H27        1.8757   25.4767    2.5573 H         1 RES1    0.0000
     49 H28        1.1505   24.1271    2.8969 H         1 RES1    0.0000
     50 H29        1.6716   25.0494    4.0523 H         1 RES1    0.0000
     51 N2         1.5088   33.7598    6.7480 N.2       2 RES2    0.0000
     52 O2         1.5118   32.3878    7.0870 O.3       2 RES2    0.0000
     53 H30        1.4835   31.9368    6.4025 H         2 RES2    0.0000
     54 C20       -1.1744   40.5287    6.6962 C.3       2 RES2    0.0000
     55 H31       -2.0019   40.0257    6.7344 H         2 RES2    0.0000
     56 H32       -0.7503   40.3388    5.8449 H         2 RES2    0.0000
     57 C21       -1.4998   42.0272    6.7667 C.3       2 RES2    0.0000
     58 H33       -0.7604   42.5302    6.3909 H         2 RES2    0.0000
     59 H34       -2.2854   42.2087    6.2272 H         2 RES2    0.0000
     60 C22       -1.7476   42.4917    8.1582 C.2       2 RES2    0.0000
     61 H35       -2.0847   43.3510    8.2850 H         2 RES2    0.0000
     62 C23       -1.5150   41.7543    9.2095 C.2       2 RES2    0.0000
     63 H36       -1.6703   42.1241   10.0485 H         2 RES2    0.0000
     64 C24       -1.0080   40.3375    9.1390 C.3       2 RES2    0.0000
     65 H37       -1.8059   39.7676    9.1170 H         2 RES2    0.0000
     66 C25       -0.2201   39.8937   10.3416 C.3       2 RES2    0.0000
     67 H38       -0.7110   40.1061   11.1509 H         2 RES2    0.0000
     68 H39        0.6274   40.3642   10.3688 H         2 RES2    0.0000
     69 C26        0.0304   38.3863   10.2711 C.3       2 RES2    0.0000
     70 H40        0.5826   38.1219   11.0228 H         2 RES2    0.0000
     71 H41       -0.8173   37.9189   10.3461 H         2 RES2    0.0000
     72 C27        0.7155   37.9705    8.9753 C.3       2 RES2    0.0000
     73 H42        1.6291   38.3250    8.9798 H         2 RES2    0.0000
     74 C28       -0.0204   38.5327    7.7410 C.3       2 RES2    0.0000
     75 H43       -0.9098   38.1219    7.7455 H         2 RES2    0.0000
     76 C29       -0.2568   40.0608    7.8231 C.3       2 RES2    0.0000
     77 C30        0.6516   38.0724    6.4381 C.3       2 RES2    0.0000
     78 H44        0.1269   38.3842    5.6844 H         2 RES2    0.0000
     79 H45        1.5302   38.4773    6.3753 H         2 RES2    0.0000
     80 C31        0.8008   36.5511    6.3456 C.3       2 RES2    0.0000
     81 H46       -0.0768   36.1420    6.2900 H         2 RES2    0.0000
     82 H47        1.2918   36.3197    5.5415 H         2 RES2    0.0000
     83 C32        1.5333   36.0159    7.5566 C.3       2 RES2    0.0000
     84 C33        0.7863   36.4525    8.8291 C.3       2 RES2    0.0000
     85 H48       -0.1394   36.1547    8.7055 H         2 RES2    0.0000
     86 C34        1.3620   35.5573    9.9263 C.3       2 RES2    0.0000
     87 H49        0.7591   35.5032   10.6844 H         2 RES2    0.0000
     88 H50        2.2232   35.8839   10.2290 H         2 RES2    0.0000
     89 C35        1.5025   34.1837    9.2276 C.3       2 RES2    0.0000
     90 H51        2.3227   33.7390    9.4954 H         2 RES2    0.0000
     91 H52        0.7506   33.6079    9.4391 H         2 RES2    0.0000
     92 C36        1.5262   34.5217    7.7526 C.2       2 RES2    0.0000
     93 C37        3.0120   36.4475    7.5482 C.3       2 RES2    0.0000
     94 H53        3.4513   36.0997    8.3277 H         2 RES2    0.0000
     95 H54        3.0657   37.4070    7.5514 H         2 RES2    0.0000
     96 H55        3.4406   36.1039    6.7603 H         2 RES2    0.0000
     97 C38        1.0627   40.8393    7.7656 C.3       2 RES2    0.0000
     98 H56        1.6953   40.4403    8.3685 H         2 RES2    0.0000
     99 H57        0.9073   41.7518    8.0205 H         2 RES2    0.0000
    100 H58        1.4120   40.8126    6.8715 H         2 RES2    0.0000
@<TRIPOS>BOND
     1    1    2 1
     2    2    3 1
     3    4    5 1
     4    6    4 1
     5    7    4 1
     6    8    7 1
     7    9    7 1
     8   10    7 1
     9   11   10 1
    10   12   10 2
    11   13   12 1
    12   14   12 1
    13   15   14 1
    14   16   14 1
    15   17   16 1
    16   18   16 1
    17   19   16 1
    18   20   19 1
    19   21   19 1
    20   22   19 1
    21   23   22 1
    22   24   22 1
    23   25   24 1
    24   26    4 1
    25   27   24 1
    26   28   27 1
    27   29   27 1
    28   30   27 1
    29   31   30 1
    30   32   30 1
    31   33   30 1
    32   34   22 1
    33   35   34 1
    34   36   34 1
    35   37   36 1
    36   38   36 1
    37   39   36 1
    38   40   39 1
    39   41   39 1
    40   42    1 2
    41   43   33 1
    42   44   43 1
    43   45   43 1
    44   46   43 1
    45   47   26 1
    46   48   47 1
    47   49   47 1
    48   50   47 1
    49   51   52 1
    50   52   53 1
    51   54   55 1
    52   56   54 1
    53   57   54 1
    54   58   57 1
    55   59   57 1
    56   60   57 1
    57   61   60 1
    58   62   60 2
    59   63   62 1
    60   64   62 1
    61   65   64 1
    62   66   64 1
    63   67   66 1
    64   68   66 1
    65   69   66 1
    66   70   69 1
    67   71   69 1
    68   72   69 1
    69   73   72 1
    70   74   72 1
    71   75   74 1
    72   76   54 1
    73   77   74 1
    74   78   77 1
    75   79   77 1
    76   80   77 1
    77   81   80 1
    78   82   80 1
    79   83   80 1
    80   84   72 1
    81   85   84 1
    82   86   84 1
    83   87   86 1
    84   88   86 1
    85   89   86 1
    86   90   89 1
    87   91   89 1
    88   92   51 2
    89   93   83 1
    90   94   93 1
    91   95   93 1
    92   96   93 1
    93   97   76 1
    94   98   97 1
    95   99   97 1
    96  100   97 1
    97   14   26 1
    98   24   26 1
    99   33   34 1
   100   33   42 1
   101   39   42 1
   102   64   76 1
   103   74   76 1
   104   83   84 1
   105   83   92 1
   106   89   92 1
@<TRIPOS>SUBSTRUCTURE
     1 RES1 1
     2 RES2 51

@<TRIPOS>CRYSIN
   6.3510   42.3060    7.1764  90.0000 115.6510  90.0000   4 1

