# MOL2 file generated by ConQuest
# Please check atom types

@<TRIPOS>MOLECULE
HOGSED
   120   128     2
SMALL
NO_CHARGES
****
Generated from CSD

@<TRIPOS>ATOM
      1 O1         3.8786    4.1382    8.6653 O.2       1 RES1    0.0000
      2 O2         8.7560    4.6929    3.2942 O.3       1 RES1    0.0000
      3 O3         9.3146    0.6195    2.7120 O.2       1 RES1    0.0000
      4 C1        11.4681    4.2726    3.2224 C.ar      1 RES1    0.0000
      5 H1        11.0708    4.8402    2.6017 H         1 RES1    0.0000
      6 C2         8.4313    2.6941    4.3740 C.3       1 RES1    0.0000
      7 O4         3.7751    2.0173    8.6847 O.2       1 RES1    0.0000
      8 N1         9.3003    3.8866    4.3402 N.3       1 RES1    0.0000
      9 N2         4.2491    3.0471    8.2809 N.pl3     1 RES1    0.0000
     10 C3         5.2975    2.9717    7.2534 C.ar      1 RES1    0.0000
     11 C4         5.8458    4.1408    6.7792 C.ar      1 RES1    0.0000
     12 H2         5.5384    4.9647    7.0820 H         1 RES1    0.0000
     13 C5         6.8628    4.0701    5.8424 C.ar      1 RES1    0.0000
     14 H3         7.2402    4.8520    5.5090 H         1 RES1    0.0000
     15 C6         7.3254    2.8340    5.3951 C.ar      1 RES1    0.0000
     16 C7         7.8875    2.5188    2.9312 C.3       1 RES1    0.0000
     17 H4         6.9075    2.5067    2.9453 H         1 RES1    0.0000
     18 C8         8.4113    1.2651    2.2242 C.2       1 RES1    0.0000
     19 C9         7.8427    0.9027    0.9192 C.2       1 RES1    0.0000
     20 H5         8.2921    0.2603    0.4177 H         1 RES1    0.0000
     21 C10        6.7423    1.4208    0.4039 C.2       1 RES1    0.0000
     22 H6         6.3023    2.0460    0.9329 H         1 RES1    0.0000
     23 C11        6.1251    1.1324   -0.8993 C.ar      1 RES1    0.0000
     24 C12        5.0396    1.8951   -1.2971 C.ar      1 RES1    0.0000
     25 H7         4.7028    2.5456   -0.7232 H         1 RES1    0.0000
     26 C13        4.4529    1.7070   -2.5245 C.ar      1 RES1    0.0000
     27 H8         3.7121    2.2153   -2.7663 H         1 RES1    0.0000
     28 C14        4.9452    0.7859   -3.3848 C.ar      1 RES1    0.0000
     29 H9         4.5696    0.6979   -4.2308 H         1 RES1    0.0000
     30 C15        8.3865    3.7972    2.2139 C.3       1 RES1    0.0000
     31 H10        9.1868    3.5788    1.6923 H         1 RES1    0.0000
     32 C16        7.4059    4.5095    1.3294 C.ar      1 RES1    0.0000
     33 C17        6.1379    4.8493    1.7690 C.ar      1 RES1    0.0000
     34 H11        5.8843    4.6635    2.6451 H         1 RES1    0.0000
     35 C18        5.2461    5.4647    0.9084 C.ar      1 RES1    0.0000
     36 H12        4.3909    5.6797    1.2041 H         1 RES1    0.0000
     37 C19        5.6181    5.7594   -0.3806 C.ar      1 RES1    0.0000
     38 H13        5.0130    6.1682   -0.9564 H         1 RES1    0.0000
     39 C20        6.8687    5.4546   -0.8178 C.ar      1 RES1    0.0000
     40 H14        7.1228    5.6636   -1.6869 H         1 RES1    0.0000
     41 C21        7.7598    4.8343    0.0309 C.ar      1 RES1    0.0000
     42 H15        8.6147    4.6299   -0.2748 H         1 RES1    0.0000
     43 C22        5.9935   -0.0193   -3.0192 C.ar      1 RES1    0.0000
     44 H16        6.3068   -0.6689   -3.6052 H         1 RES1    0.0000
     45 C23        6.5933    0.1378   -1.7597 C.ar      1 RES1    0.0000
     46 H17        7.2956   -0.4157   -1.5007 H         1 RES1    0.0000
     47 C24       10.7007    3.6480    4.1859 C.ar      1 RES1    0.0000
     48 C25       12.8310    4.0476    3.1884 C.ar      1 RES1    0.0000
     49 H18       13.3427    4.4539    2.5258 H         1 RES1    0.0000
     50 C26       13.4473    3.2393    4.1075 C.ar      1 RES1    0.0000
     51 H19       14.3666    3.1038    4.0771 H         1 RES1    0.0000
     52 C27       12.6894    2.6376    5.0646 C.ar      1 RES1    0.0000
     53 H20       13.0959    2.0858    5.6935 H         1 RES1    0.0000
     54 C28       11.3226    2.8382    5.1135 C.ar      1 RES1    0.0000
     55 H21       10.8185    2.4238    5.7766 H         1 RES1    0.0000
     56 C29        6.7490    1.6781    5.9025 C.ar      1 RES1    0.0000
     57 H22        7.0560    0.8501    5.6121 H         1 RES1    0.0000
     58 C30        5.7309    1.7352    6.8282 C.ar      1 RES1    0.0000
     59 H23        5.3440    0.9567    7.1580 H         1 RES1    0.0000
     60 H24        8.9738    1.8956    4.5870 H         1 RES1    0.0000
     61 O5        11.0481    0.1393   18.0961 O.2       2 RES2    0.0000
     62 O6        12.0641    1.9398   17.4393 O.2       2 RES2    0.0000
     63 O7         7.4808    3.7511   12.2325 O.3       2 RES2    0.0000
     64 O8         5.5284    0.1051   11.8030 O.2       2 RES2    0.0000
     65 N3         6.6861    3.2050   13.2855 N.3       2 RES2    0.0000
     66 N4        11.1644    1.0959   17.3563 N.pl3     2 RES2    0.0000
     67 C31       10.1588    1.2721   16.2963 C.ar      2 RES2    0.0000
     68 C32       10.0212    2.4938   15.7195 C.ar      2 RES2    0.0000
     69 H25       10.5835    3.1950   15.9594 H         2 RES2    0.0000
     70 C33        9.0355    2.6802   14.7725 C.ar      2 RES2    0.0000
     71 H26        8.9198    3.5187   14.3883 H         2 RES2    0.0000
     72 C34        8.2138    1.6293   14.3864 C.ar      2 RES2    0.0000
     73 C35        7.1070    1.7971   13.3694 C.3       2 RES2    0.0000
     74 H27        6.3397    1.2481   13.6361 H         2 RES2    0.0000
     75 C36        7.5427    1.3975   11.9268 C.3       2 RES2    0.0000
     76 H28        8.4504    1.0294   11.9474 H         2 RES2    0.0000
     77 C37        6.5869    0.3821   11.2792 C.2       2 RES2    0.0000
     78 C38        6.9376   -0.2238    9.9861 C.2       2 RES2    0.0000
     79 H29        6.2950   -0.7706    9.5952 H         2 RES2    0.0000
     80 C39        8.0699   -0.0748    9.3191 C.2       2 RES2    0.0000
     81 H30        8.7257    0.4490    9.7199 H         2 RES2    0.0000
     82 C40        8.3981   -0.6546    8.0025 C.ar      2 RES2    0.0000
     83 C41        7.5971   -1.6128    7.3831 C.ar      2 RES2    0.0000
     84 H31        6.8435   -1.9372    7.8233 H         2 RES2    0.0000
     85 C42        7.9114   -2.0875    6.1171 C.ar      2 RES2    0.0000
     86 H32        7.3705   -2.7278    5.7134 H         2 RES2    0.0000
     87 C43        9.0190   -1.6135    5.4582 C.ar      2 RES2    0.0000
     88 H33        9.2243   -1.9279    4.6068 H         2 RES2    0.0000
     89 C44        7.5449    2.7514   11.1732 C.3       2 RES2    0.0000
     90 H34        6.7364    2.8142   10.6221 H         2 RES2    0.0000
     91 C45        9.5240   -0.2039    7.3268 C.ar      2 RES2    0.0000
     92 H35       10.0830    0.4214    7.7293 H         2 RES2    0.0000
     93 C46        9.8258   -0.6741    6.0581 C.ar      2 RES2    0.0000
     94 H36       10.5758   -0.3542    5.6103 H         2 RES2    0.0000
     95 C47        8.7474    3.0847   10.3260 C.ar      2 RES2    0.0000
     96 C48       10.0450    2.8660   10.7615 C.ar      2 RES2    0.0000
     97 H37       10.1918    2.5062   11.6057 H         2 RES2    0.0000
     98 C49       11.1217    3.1769    9.9564 C.ar      2 RES2    0.0000
     99 H38       11.9864    3.0132   10.2569 H         2 RES2    0.0000
    100 C50       10.9213    3.7249    8.7188 C.ar      2 RES2    0.0000
    101 H39       11.6486    3.9334    8.1795 H         2 RES2    0.0000
    102 C51        9.6503    3.9662    8.2766 C.ar      2 RES2    0.0000
    103 H40        9.5133    4.3478    7.4400 H         2 RES2    0.0000
    104 C52        8.5637    3.6410    9.0774 C.ar      2 RES2    0.0000
    105 H41        7.7014    3.7995    8.7671 H         2 RES2    0.0000
    106 C53        5.2891    3.4632   13.1322 C.ar      2 RES2    0.0000
    107 C54        4.4217    2.9457   14.0832 C.ar      2 RES2    0.0000
    108 H42        4.7497    2.3936   14.7553 H         2 RES2    0.0000
    109 C55        3.0740    3.2461   14.0362 C.ar      2 RES2    0.0000
    110 H43        2.4999    2.8949   14.6775 H         2 RES2    0.0000
    111 C56        2.5773    4.0591   13.0500 C.ar      2 RES2    0.0000
    112 H44        1.6692    4.2580   13.0160 H         2 RES2    0.0000
    113 C57        3.4368    4.5751   12.1157 C.ar      2 RES2    0.0000
    114 H45        3.1038    5.1248   11.4448 H         2 RES2    0.0000
    115 C58        4.7917    4.2941   12.1521 C.ar      2 RES2    0.0000
    116 H46        5.3623    4.6637   11.5189 H         2 RES2    0.0000
    117 C59        8.4021    0.3874   14.9641 C.ar      2 RES2    0.0000
    118 H47        7.8741   -0.3288   14.6956 H         2 RES2    0.0000
    119 C60        9.3708    0.1975   15.9397 C.ar      2 RES2    0.0000
    120 H48        9.4853   -0.6322   16.3427 H         2 RES2    0.0000
@<TRIPOS>BOND
     1    1    9 2
     2    2    8 1
     3    3   18 2
     4    4    5 1
     5    6    8 1
     6    7    9 2
     7    8   47 1
     8    9   10 1
     9   10   11 ar
    10   11   12 1
    11   13   11 ar
    12   14   13 1
    13   15    6 1
    14   16    6 1
    15   17   16 1
    16   18   16 1
    17   19   18 1
    18   20   19 1
    19   21   19 2
    20   22   21 1
    21   23   21 1
    22   24   23 ar
    23   25   24 1
    24   26   24 ar
    25   27   26 1
    26   28   26 ar
    27   29   28 1
    28   30    2 1
    29   31   30 1
    30   32   30 1
    31   33   32 ar
    32   34   33 1
    33   35   33 ar
    34   36   35 1
    35   37   35 ar
    36   38   37 1
    37   39   37 ar
    38   40   39 1
    39   41   32 ar
    40   42   41 1
    41   43   28 ar
    42   44   43 1
    43   45   23 ar
    44   46   45 1
    45   47    4 ar
    46   48    4 ar
    47   49   48 1
    48   50   48 ar
    49   51   50 1
    50   52   50 ar
    51   53   52 1
    52   54   47 ar
    53   55   54 1
    54   56   15 ar
    55   57   56 1
    56   58   10 ar
    57   59   58 1
    58   60    6 1
    59   61   66 2
    60   62   66 2
    61   63   65 1
    62   64   77 2
    63   65   73 1
    64   66   67 1
    65   67   68 ar
    66   68   69 1
    67   70   68 ar
    68   71   70 1
    69   72   70 ar
    70   73   72 1
    71   74   73 1
    72   75   73 1
    73   76   75 1
    74   77   75 1
    75   78   77 1
    76   79   78 1
    77   80   78 2
    78   81   80 1
    79   82   80 1
    80   83   82 ar
    81   84   83 1
    82   85   83 ar
    83   86   85 1
    84   87   85 ar
    85   88   87 1
    86   89   63 1
    87   90   89 1
    88   91   82 ar
    89   92   91 1
    90   93   87 ar
    91   94   93 1
    92   95   89 1
    93   96   95 ar
    94   97   96 1
    95   98   96 ar
    96   99   98 1
    97  100   98 ar
    98  101  100 1
    99  102  100 ar
   100  103  102 1
   101  104   95 ar
   102  105  104 1
   103  106   65 1
   104  107  106 ar
   105  108  107 1
   106  109  107 ar
   107  110  109 1
   108  111  109 ar
   109  112  111 1
   110  113  111 ar
   111  114  113 1
   112  115  106 ar
   113  116  115 1
   114  117   72 ar
   115  118  117 1
   116  119   67 ar
   117  120  119 1
   118   13   15 ar
   119   16   30 1
   120   39   41 ar
   121   43   45 ar
   122   52   54 ar
   123   56   58 ar
   124   75   89 1
   125   91   93 ar
   126  102  104 ar
   127  113  115 ar
   128  117  119 ar
@<TRIPOS>SUBSTRUCTURE
     1 RES1 1
     2 RES2 61

@<TRIPOS>CRYSIN
  10.4850   13.3540   18.1910  95.2490  91.9450 105.9330   2 1

