# MOL2 file generated by ConQuest
# Please check atom types

@<TRIPOS>MOLECULE
HOGZAE
    51    52     1
SMALL
NO_CHARGES
****
Generated from CSD

@<TRIPOS>ATOM
      1 O1         3.2192    0.8430    2.2913 O.2       1 RES1    0.0000
      2 O2         3.6238    2.3497    0.6787 O.3       1 RES1    0.0000
      3 O3         0.2420    2.1620    0.9472 O.3       1 RES1    0.0000
      4 O4        -0.4950    3.1975   -0.8763 O.2       1 RES1    0.0000
      5 O5         2.3981    4.0519    5.7472 O.3       1 RES1    0.0000
      6 O6         3.2627    6.5377    6.2661 O.2       1 RES1    0.0000
      7 N1         3.1403    7.0952    5.0883 N.pl3     1 RES1    0.0000
      8 C1         2.8691    4.2579    2.6570 C.3       1 RES1    0.0000
      9 C2         2.0542    2.9772    2.3358 C.3       1 RES1    0.0000
     10 C3         1.3751    2.4273    3.5976 C.3       1 RES1    0.0000
     11 C4         0.5765    3.4877    4.3438 C.3       1 RES1    0.0000
     12 C5         1.4793    4.6152    4.8067 C.3       1 RES1    0.0000
     13 C6         2.1639    5.2627    3.5926 C.3       1 RES1    0.0000
     14 C7         3.3338    6.2216    3.8941 C.3       1 RES1    0.0000
     15 C8         4.6030    5.3518    3.9979 C.3       1 RES1    0.0000
     16 C9         4.2415    4.0184    3.3175 C.3       1 RES1    0.0000
     17 C10        3.0113    1.9235    1.7906 C.2       1 RES1    0.0000
     18 C11        4.6265    1.4503    0.1334 C.3       1 RES1    0.0000
     19 C12        5.2665    2.1371   -1.0378 C.3       1 RES1    0.0000
     20 C13        1.0434    3.3373    1.2404 C.3       1 RES1    0.0000
     21 C14       -0.5161    2.2444   -0.1631 C.2       1 RES1    0.0000
     22 C15       -1.3481    1.0412   -0.4036 C.3       1 RES1    0.0000
     23 C16        2.8637    8.3510    4.9615 C.2       1 RES1    0.0000
     24 C17        2.6516    9.1930    6.1623 C.3       1 RES1    0.0000
     25 H1         2.8259    4.7608    6.1047 H         1 RES1    0.0000
     26 H2         3.0353    4.7263    1.7889 H         1 RES1    0.0000
     27 H3         0.7698    1.6869    3.3423 H         1 RES1    0.0000
     28 H4         2.0658    2.0576    4.2021 H         1 RES1    0.0000
     29 H5        -0.1264    3.8508    3.7491 H         1 RES1    0.0000
     30 H6         0.1327    3.0768    5.1279 H         1 RES1    0.0000
     31 H7         0.9234    5.3049    5.2712 H         1 RES1    0.0000
     32 H8         1.4736    5.7589    3.0639 H         1 RES1    0.0000
     33 H9         3.4449    6.8193    3.1001 H         1 RES1    0.0000
     34 H10        5.3623    5.7857    3.5333 H         1 RES1    0.0000
     35 H11        4.8494    5.2052    4.9450 H         1 RES1    0.0000
     36 H12        4.1855    3.2894    3.9863 H         1 RES1    0.0000
     37 H13        4.9200    3.7770    2.6389 H         1 RES1    0.0000
     38 H14        4.2037    0.6035   -0.1565 H         1 RES1    0.0000
     39 H15        5.3076    1.2414    0.8203 H         1 RES1    0.0000
     40 H16        5.7141    2.9532   -0.7330 H         1 RES1    0.0000
     41 H17        4.5783    2.3679   -1.6967 H         1 RES1    0.0000
     42 H18        5.9234    1.5374   -1.4479 H         1 RES1    0.0000
     43 H19        0.4607    4.0768    1.5468 H         1 RES1    0.0000
     44 H20        1.5205    3.6343    0.4250 H         1 RES1    0.0000
     45 H21       -2.2692    1.3152   -0.5979 H         1 RES1    0.0000
     46 H22       -1.3386    0.4713    0.3937 H         1 RES1    0.0000
     47 H23       -0.9885    0.5412   -1.1662 H         1 RES1    0.0000
     48 H24        2.7971    8.7360    4.0950 H         1 RES1    0.0000
     49 H25        1.9360    8.8069    6.7092 H         1 RES1    0.0000
     50 H26        2.3992   10.0991    5.8856 H         1 RES1    0.0000
     51 H27        3.4791    9.2294    6.6862 H         1 RES1    0.0000
@<TRIPOS>BOND
     1    1   17 2
     2    2   17 1
     3    3   20 1
     4    4   21 2
     5    5   12 1
     6    6    7 1
     7    7   14 1
     8    8    9 1
     9    9   10 1
    10   10   11 1
    11   11   12 1
    12   12   13 1
    13   13    8 1
    14   14   13 1
    15   15   14 1
    16   16    8 1
    17   17    9 1
    18   18    2 1
    19   19   18 1
    20   20    9 1
    21   21    3 1
    22   22   21 1
    23   23    7 2
    24   24   23 1
    25   25    5 1
    26   26    8 1
    27   27   10 1
    28   28   10 1
    29   29   11 1
    30   30   11 1
    31   31   12 1
    32   32   13 1
    33   33   14 1
    34   34   15 1
    35   35   15 1
    36   36   16 1
    37   37   16 1
    38   38   18 1
    39   39   18 1
    40   40   19 1
    41   41   19 1
    42   42   19 1
    43   43   20 1
    44   44   20 1
    45   45   22 1
    46   46   22 1
    47   47   22 1
    48   48   23 1
    49   49   24 1
    50   50   24 1
    51   51   24 1
    52   15   16 1
@<TRIPOS>SUBSTRUCTURE
     1 RES1 1

@<TRIPOS>CRYSIN
  10.8780    9.5790   16.4770  90.0000  91.3490  90.0000  14 1

