# MOL2 file generated by ConQuest
# Please check atom types

@<TRIPOS>MOLECULE
HOHDUE
    58    62     1
SMALL
NO_CHARGES
****
Generated from CSD

@<TRIPOS>ATOM
      1 O1         3.3375    4.3906    1.5321 O.3       1 RES1    0.0000
      2 O2         2.4278    7.9083    7.2603 O.3       1 RES1    0.0000
      3 O3         5.4975    4.4858    5.8328 O.3       1 RES1    0.0000
      4 O4         0.0452    7.5263    3.0780 O.3       1 RES1    0.0000
      5 N1         7.2818    5.1692    7.8525 N.pl3     1 RES1    0.0000
      6 O5        -0.4566    8.7947   -0.7680 O.2       1 RES1    0.0000
      7 N2         2.9601    5.2910   -1.1657 N.pl3     1 RES1    0.0000
      8 O6         7.5311    4.7171    8.9662 O.2       1 RES1    0.0000
      9 O7         2.5559    5.5761   -2.2869 O.2       1 RES1    0.0000
     10 N3        -0.5159    8.3080    0.3605 N.pl3     1 RES1    0.0000
     11 C1        -0.5310    6.1306    4.9346 C.ar      1 RES1    0.0000
     12 H1        -1.1887    5.7324    4.4113 H         1 RES1    0.0000
     13 N4         4.2096    8.6177    9.3884 N.pl3     1 RES1    0.0000
     14 C2         1.6822    5.9446    2.3147 C.ar      1 RES1    0.0000
     15 H2         1.8171    5.6581    3.1894 H         1 RES1    0.0000
     16 C3         0.7390    6.9330    2.0704 C.ar      1 RES1    0.0000
     17 O8         3.9485    4.6005   -0.9638 O.2       1 RES1    0.0000
     18 C4         4.4523    4.4845    3.6620 C.ar      1 RES1    0.0000
     19 O9         8.0108    5.0623    6.8811 O.2       1 RES1    0.0000
     20 C5         0.2950    7.1024    4.4052 C.ar      1 RES1    0.0000
     21 C6         4.5024    3.9794    4.9621 C.ar      1 RES1    0.0000
     22 C7         5.6933    6.8846    8.5581 C.ar      1 RES1    0.0000
     23 H3         6.2668    7.0909    9.2609 H         1 RES1    0.0000
     24 C8         6.0153    5.8858    7.6736 C.ar      1 RES1    0.0000
     25 O10        3.4377    9.5178    9.0839 O.2       1 RES1    0.0000
     26 C9         2.4317    5.3676    1.2955 C.ar      1 RES1    0.0000
     27 C10        3.9409    6.1993    6.5181 C.ar      1 RES1    0.0000
     28 H4         3.3451    5.9498    5.8495 H         1 RES1    0.0000
     29 O11       -1.4021    8.5556    1.1596 O.2       1 RES1    0.0000
     30 O12        4.7416    8.5302   10.4790 O.2       1 RES1    0.0000
     31 C11        1.3154    7.7245    5.1268 C.ar      1 RES1    0.0000
     32 C12        2.5853    2.9488    3.2847 C.ar      1 RES1    0.0000
     33 H5         1.9441    2.6006    2.7075 H         1 RES1    0.0000
     34 C13        5.1452    5.5198    6.6452 C.ar      1 RES1    0.0000
     35 C14        1.2671    6.7903   -0.2835 C.ar      1 RES1    0.0000
     36 H6         1.1302    7.0787   -1.1574 H         1 RES1    0.0000
     37 C15        4.5092    7.5836    8.3976 C.ar      1 RES1    0.0000
     38 C16        1.4358    7.3032    6.4526 C.ar      1 RES1    0.0000
     39 C17        3.4502    3.9353    2.8600 C.ar      1 RES1    0.0000
     40 C18        0.5207    7.3387    0.7426 C.ar      1 RES1    0.0000
     41 C19        0.6251    6.3446    7.0275 C.ar      1 RES1    0.0000
     42 H7         0.7419    6.0984    7.9176 H         1 RES1    0.0000
     43 C20        2.2170    5.8149   -0.0235 C.ar      1 RES1    0.0000
     44 C21        3.6512    3.0054    5.4353 C.ar      1 RES1    0.0000
     45 H8         3.7225    2.7015    6.3105 H         1 RES1    0.0000
     46 C22        3.6111    7.2420    7.3679 C.ar      1 RES1    0.0000
     47 C23       -0.3630    5.7568    6.2620 C.ar      1 RES1    0.0000
     48 H9        -0.9164    5.1092    6.6350 H         1 RES1    0.0000
     49 C24        2.6887    2.4853    4.5868 C.ar      1 RES1    0.0000
     50 H10        2.1096    1.8243    4.8913 H         1 RES1    0.0000
     51 C25        5.3817    5.5505    3.1782 C.3       1 RES1    0.0000
     52 H11        5.1866    5.7535    2.2597 H         1 RES1    0.0000
     53 H12        6.2885    5.2422    3.2520 H         1 RES1    0.0000
     54 H13        5.2681    6.3402    3.7112 H         1 RES1    0.0000
     55 C26        2.2415    8.7345    4.5274 C.3       1 RES1    0.0000
     56 H14        2.8630    9.0339    5.1949 H         1 RES1    0.0000
     57 H15        1.7332    9.4831    4.2045 H         1 RES1    0.0000
     58 H16        2.7208    8.3352    3.7985 H         1 RES1    0.0000
@<TRIPOS>BOND
     1    1   26 1
     2    2   38 1
     3    3   21 1
     4    4   16 1
     5    5    8 2
     6    6   10 2
     7    7    9 2
     8   10   29 2
     9   11   12 1
    10   13   25 2
    11   14   15 1
    12   16   14 ar
    13   17    7 2
    14   18   21 ar
    15   19    5 2
    16   20    4 1
    17   21   44 ar
    18   22   23 1
    19   24    5 1
    20   26   14 ar
    21   27   28 1
    22   30   13 2
    23   31   20 ar
    24   32   33 1
    25   34    3 1
    26   35   36 1
    27   37   13 1
    28   38   31 ar
    29   39    1 1
    30   40   10 1
    31   41   38 ar
    32   42   41 1
    33   43    7 1
    34   44   45 1
    35   46    2 1
    36   47   11 ar
    37   48   47 1
    38   49   32 ar
    39   50   49 1
    40   51   18 1
    41   52   51 1
    42   53   51 1
    43   54   51 1
    44   55   31 1
    45   56   55 1
    46   57   55 1
    47   58   55 1
    48   11   20 ar
    49   16   40 ar
    50   18   39 ar
    51   22   24 ar
    52   22   37 ar
    53   24   34 ar
    54   26   43 ar
    55   27   34 ar
    56   27   46 ar
    57   32   39 ar
    58   35   40 ar
    59   35   43 ar
    60   37   46 ar
    61   41   47 ar
    62   44   49 ar
@<TRIPOS>SUBSTRUCTURE
     1 RES1 1

@<TRIPOS>CRYSIN
  11.5250   11.0900   19.0610  90.0000  95.4980  90.0000  14 2

