# MOL2 file generated by ConQuest
# Please check atom types

@<TRIPOS>MOLECULE
HOHFIU
    69    71     2
SMALL
NO_CHARGES
****
Generated from CSD

@<TRIPOS>ATOM
      1 C1        -0.2508    0.3840    2.1952 C.3       1 RES1    0.0000
      2 H1        -0.5308    0.4602    1.2700 H         1 RES1    0.0000
      3 H2        -0.9696    0.6981    2.7667 H         1 RES1    0.0000
      4 C2         0.1095   -1.0385    2.5271 C.3       1 RES1    0.0000
      5 H3        -0.4491   -1.6620    2.0378 H         1 RES1    0.0000
      6 H4         0.0158   -1.2080    3.4782 H         1 RES1    0.0000
      7 C3         1.5511   -1.1520    2.0970 C.3       1 RES1    0.0000
      8 H5         1.6167   -1.3246    1.1445 H         1 RES1    0.0000
      9 H6         2.0022   -1.8610    2.5805 H         1 RES1    0.0000
     10 C4         2.1314    0.2099    2.4492 C.3       1 RES1    0.0000
     11 H7         2.4885    0.1695    3.3613 H         1 RES1    0.0000
     12 C5         3.1894    0.8131    1.5443 C.3       1 RES1    0.0000
     13 H8         3.0692    0.4524    0.6394 H         1 RES1    0.0000
     14 C6         2.7935    2.2947    1.5370 C.3       1 RES1    0.0000
     15 H9         3.0191    2.6803    2.4088 H         1 RES1    0.0000
     16 C7         1.2665    2.1844    1.4331 C.3       1 RES1    0.0000
     17 H10        1.0290    1.8485    0.5441 H         1 RES1    0.0000
     18 C8         4.6103    0.6017    1.9570 C.3       1 RES1    0.0000
     19 H11        5.1988    1.1349    1.4028 H         1 RES1    0.0000
     20 H12        4.7296    0.8722    2.8807 H         1 RES1    0.0000
     21 C9         3.4260    3.1545    0.4546 C.ar      1 RES1    0.0000
     22 C10        3.4127    2.7674   -0.8890 C.ar      1 RES1    0.0000
     23 H13        3.0638    1.9372   -1.1214 H         1 RES1    0.0000
     24 C11        3.9073    3.5882   -1.8719 C.ar      1 RES1    0.0000
     25 H14        3.8906    3.2975   -2.7551 H         1 RES1    0.0000
     26 C12        4.4173    4.8134   -1.5919 C.ar      1 RES1    0.0000
     27 H15        4.7456    5.3544   -2.2745 H         1 RES1    0.0000
     28 C13        4.4446    5.2393   -0.2944 C.ar      1 RES1    0.0000
     29 H16        4.7823    6.0789   -0.0808 H         1 RES1    0.0000
     30 C14        3.9620    4.4060    0.6928 C.ar      1 RES1    0.0000
     31 C15        0.5608    3.4685    1.6727 C.2       1 RES1    0.0000
     32 H17        0.5182    3.7841    2.5459 H         1 RES1    0.0000
     33 C16       -0.0001    4.1806    0.7375 C.2       1 RES1    0.0000
     34 H18       -0.0227    3.7997   -0.1097 H         1 RES1    0.0000
     35 C17       -0.6024    5.5130    0.8659 C.ar      1 RES1    0.0000
     36 C18       -0.4041    6.2670    2.0176 C.ar      1 RES1    0.0000
     37 H19        0.1101    5.9032    2.7017 H         1 RES1    0.0000
     38 C19       -0.9311    7.5154    2.1923 C.ar      1 RES1    0.0000
     39 H20       -0.7789    7.9787    2.9846 H         1 RES1    0.0000
     40 C20       -1.6741    8.0829    1.2080 C.ar      1 RES1    0.0000
     41 H21       -2.0192    8.9395    1.3162 H         1 RES1    0.0000
     42 C21       -1.9197    7.3708    0.0289 C.ar      1 RES1    0.0000
     43 H22       -2.4459    7.7331   -0.6466 H         1 RES1    0.0000
     44 C22       -1.3647    6.1364   -0.1054 C.ar      1 RES1    0.0000
     45 C23        7.0608   -5.2362    1.6352 C.ar      1 RES1    0.0000
     46 C24        5.7457   -4.8522    1.7030 C.ar      1 RES1    0.0000
     47 H23        5.0648   -5.4850    1.6799 H         1 RES1    0.0000
     48 C25        5.4560   -3.5136    1.8069 C.ar      1 RES1    0.0000
     49 H24        4.5699   -3.2353    1.8488 H         1 RES1    0.0000
     50 C26        6.4677   -2.5808    1.8502 C.ar      1 RES1    0.0000
     51 C27        7.7885   -3.0006    1.7766 C.ar      1 RES1    0.0000
     52 H25        8.4742   -2.3740    1.8040 H         1 RES1    0.0000
     53 C28        8.0870   -4.3361    1.6655 C.ar      1 RES1    0.0000
     54 H26        8.9708   -4.6221    1.6106 H         1 RES1    0.0000
     55 C29        6.2043   -1.1147    1.9844 C.2       1 RES1    0.0000
     56 N1         0.9742    1.1489    2.4333 N.3       1 RES1    0.0000
     57 N2         4.0588    4.9439    2.0552 N.pl3     1 RES1    0.0000
     58 N3        -1.6425    5.4586   -1.4072 N.pl3     1 RES1    0.0000
     59 N4         7.3740   -6.6681    1.5024 N.pl3     1 RES1    0.0000
     60 O1         4.6693    4.2956    2.8850 O.2       1 RES1    0.0000
     61 O2         3.5321    5.9778    2.3020 O.2       1 RES1    0.0000
     62 O3        -0.5493    4.8942   -2.0191 O.2       1 RES1    0.0000
     63 O4        -2.5955    5.5472   -2.0436 O.2       1 RES1    0.0000
     64 O5         6.4594   -7.4517    1.3292 O.2       1 RES1    0.0000
     65 O6         8.5453   -7.0055    1.5876 O.2       1 RES1    0.0000
     66 O7         4.9290   -0.8069    1.8084 O.3       1 RES1    0.0000
     67 O8         7.0552   -0.3203    2.2110 O.2       1 RES1    0.0000
     68 O9        -2.1236    4.2972   -1.1171 Du        2 SUP2    0.0000
     69 O10       -2.1276    6.1209   -2.1216 Du        2 SUP2    0.0000
@<TRIPOS>BOND
     1    1    2 1
     2    3    1 1
     3    4    1 1
     4    5    4 1
     5    6    4 1
     6    7    4 1
     7    8    7 1
     8    9    7 1
     9   10    7 1
    10   11   10 1
    11   12   10 1
    12   13   12 1
    13   14   12 1
    14   15   14 1
    15   16   14 1
    16   17   16 1
    17   18   12 1
    18   19   18 1
    19   20   18 1
    20   21   14 1
    21   22   21 ar
    22   23   22 1
    23   24   22 ar
    24   25   24 1
    25   26   24 ar
    26   27   26 1
    27   28   26 ar
    28   29   28 1
    29   30   21 ar
    30   31   16 1
    31   32   31 1
    32   33   31 2
    33   34   33 1
    34   35   33 1
    35   36   35 ar
    36   37   36 1
    37   38   36 ar
    38   39   38 1
    39   40   38 ar
    40   41   40 1
    41   42   40 ar
    42   43   42 1
    43   44   35 ar
    44   45   46 ar
    45   46   47 1
    46   48   46 ar
    47   49   48 1
    48   50   48 ar
    49   51   50 ar
    50   52   51 1
    51   53   45 ar
    52   54   53 1
    53   55   50 1
    54   56    1 1
    55   57   30 1
    56   58   44 1
    57   59   45 1
    58   60   57 2
    59   61   57 2
    60   62   58 2
    61   63   58 2
    62   64   59 2
    63   65   59 2
    64   66   18 1
    65   67   55 2
    66   10   56 1
    67   16   56 1
    68   28   30 ar
    69   42   44 ar
    70   51   53 ar
    71   55   66 1
@<TRIPOS>SUBSTRUCTURE
     1 RES1 1
     2 SUP2 68

@<TRIPOS>CRYSIN
  24.0940   15.5470   16.5560  90.0000 119.3400  90.0000  15 1

