# MOL2 file generated by ConQuest
# Please check atom types

@<TRIPOS>MOLECULE
HOHMEW
    43    44     1
SMALL
NO_CHARGES
****
Generated from CSD

@<TRIPOS>ATOM
      1 O1         9.0856    0.1902    2.3707 O.2       1 RES1    0.0000
      2 O2         7.7418    1.7911    2.0223 O.2       1 RES1    0.0000
      3 N1         6.5187    0.5389    8.1280 N.2       1 RES1    0.0000
      4 N2         5.5026    1.2205    8.4294 N.2       1 RES1    0.0000
      5 N3         8.2422    0.9589    2.7498 N.pl3     1 RES1    0.0000
      6 N4         3.9401    1.1016   13.8108 N.pl3     1 RES1    0.0000
      7 C1         3.2448    2.6549    9.2056 C.3       1 RES1    0.0000
      8 C2         2.6877    1.7752   14.2564 C.3       1 RES1    0.0000
      9 C3         3.0366    3.2176   14.5675 C.3       1 RES1    0.0000
     10 C4         4.7565    0.4755   14.8754 C.3       1 RES1    0.0000
     11 C5         4.3137   -0.9272   15.0212 C.3       1 RES1    0.0000
     12 H1         8.4773   -0.5246    6.9662 H         1 RES1    0.0000
     13 H2         9.2467   -0.3424    4.7575 H         1 RES1    0.0000
     14 H3         6.1814    2.1794    3.8987 H         1 RES1    0.0000
     15 H4         5.4124    1.9979    6.1057 H         1 RES1    0.0000
     16 H5         2.9243    2.3640   11.8112 H         1 RES1    0.0000
     17 H6         5.9621   -0.1728   12.7202 H         1 RES1    0.0000
     18 H7         6.6178   -0.1957   10.4679 H         1 RES1    0.0000
     19 H8         3.2993    3.6193    9.4502 H         1 RES1    0.0000
     20 H9         3.6268    2.6105    8.3176 H         1 RES1    0.0000
     21 H10        2.3486    2.4251    9.1748 H         1 RES1    0.0000
     22 H11        1.9617    1.8291   13.5628 H         1 RES1    0.0000
     23 H12        2.2120    1.3885   15.0293 H         1 RES1    0.0000
     24 H13        3.6691    3.2088   15.3291 H         1 RES1    0.0000
     25 H14        3.4189    3.6503   13.8626 H         1 RES1    0.0000
     26 H15        2.2752    3.7461   14.9078 H         1 RES1    0.0000
     27 H16        5.6982    0.5151   14.6534 H         1 RES1    0.0000
     28 H17        4.6744    0.9597   15.7293 H         1 RES1    0.0000
     29 H18        3.3507   -0.9391   15.2546 H         1 RES1    0.0000
     30 H19        4.3780   -1.3837   14.1802 H         1 RES1    0.0000
     31 H20        4.7681   -1.4059   15.6807 H         1 RES1    0.0000
     32 C6         6.8693    0.7212    6.7490 C.ar      1 RES1    0.0000
     33 C7         7.9848   -0.0079    6.3423 C.ar      1 RES1    0.0000
     34 C8         8.4353    0.0793    5.0249 C.ar      1 RES1    0.0000
     35 C9         7.7711    0.9035    4.1158 C.ar      1 RES1    0.0000
     36 C10        6.6556    1.6405    4.5226 C.ar      1 RES1    0.0000
     37 C11        6.2051    1.5454    5.8400 C.ar      1 RES1    0.0000
     38 C12        5.1485    1.1095    9.7824 C.ar      1 RES1    0.0000
     39 C13        4.0451    1.8624   10.1827 C.ar      1 RES1    0.0000
     40 C14        3.6456    1.8624   11.5195 C.ar      1 RES1    0.0000
     41 C15        4.3508    1.1016   12.4561 C.ar      1 RES1    0.0000
     42 C16        5.4542    0.3487   12.0559 C.ar      1 RES1    0.0000
     43 C17        5.8537    0.3566   10.7190 C.ar      1 RES1    0.0000
@<TRIPOS>BOND
     1    1    5 2
     2    2    5 2
     3    3    4 2
     4    4   38 1
     5    5   35 1
     6    6    8 1
     7    7   19 1
     8    8    9 1
     9    9   24 1
    10   10    6 1
    11   11   10 1
    12   12   33 1
    13   13   34 1
    14   14   36 1
    15   15   37 1
    16   16   40 1
    17   17   42 1
    18   18   43 1
    19   20    7 1
    20   21    7 1
    21   22    8 1
    22   23    8 1
    23   25    9 1
    24   26    9 1
    25   27   10 1
    26   28   10 1
    27   29   11 1
    28   30   11 1
    29   31   11 1
    30   32    3 1
    31   33   32 ar
    32   34   33 ar
    33   35   34 ar
    34   36   35 ar
    35   37   32 ar
    36   38   39 ar
    37   39    7 1
    38   40   39 ar
    39   41    6 1
    40   42   41 ar
    41   43   38 ar
    42   36   37 ar
    43   40   41 ar
    44   42   43 ar
@<TRIPOS>SUBSTRUCTURE
     1 RES1 1

@<TRIPOS>CRYSIN
  13.0490    7.9250   16.7540  90.0000 104.7200  90.0000  14 2

