# MOL2 file generated by ConQuest
# Please check atom types

@<TRIPOS>MOLECULE
HOHVIL
    41    41     1
SMALL
NO_CHARGES
****
Generated from CSD

@<TRIPOS>ATOM
      1 O1         1.7942    0.3691    1.1296 O.3       1 RES1    0.0000
      2 O2         3.8803   -3.6435    2.9352 O.3       1 RES1    0.0000
      3 O3         8.9107   -1.1785    4.0753 O.3       1 RES1    0.0000
      4 O4         6.3156   -2.3551    4.0298 O.3       1 RES1    0.0000
      5 O5         1.9702   -2.6424   -0.7705 O.2       1 RES1    0.0000
      6 O6         1.5059    3.8159    1.0639 O.2       1 RES1    0.0000
      7 N1         1.6751    2.6992    1.5355 N.pl3     1 RES1    0.0000
      8 N2         1.8237   -2.3973    1.4773 N.am      1 RES1    0.0000
      9 O7         1.8594    2.4510    2.7201 O.2       1 RES1    0.0000
     10 C1         1.8410   -3.8260    1.7594 C.3       1 RES1    0.0000
     11 H1         1.3886   -4.2952    1.0407 H         1 RES1    0.0000
     12 H2         1.3474   -3.9916    2.5775 H         1 RES1    0.0000
     13 C2        10.1022   -0.4072    4.2155 C.3       1 RES1    0.0000
     14 H3         9.9921    0.4387    3.7546 H         1 RES1    0.0000
     15 H4        10.8404   -0.8804    3.8001 H         1 RES1    0.0000
     16 C3         6.7683   -1.4872    5.0654 C.3       1 RES1    0.0000
     17 H5         7.1949   -2.0086    5.7631 H         1 RES1    0.0000
     18 H6         6.0111   -1.0237    5.4553 H         1 RES1    0.0000
     19 C4         1.7799   -0.4696    0.0401 C.2       1 RES1    0.0000
     20 C5         1.8752   -1.9318    0.2360 C.2       1 RES1    0.0000
     21 C6         3.2318   -4.3813    1.9062 C.3       1 RES1    0.0000
     22 H7         3.1945   -5.3216    2.1407 H         1 RES1    0.0000
     23 H8         3.7184   -4.2921    1.0714 H         1 RES1    0.0000
     24 C7         7.7354   -0.4938    4.5238 C.3       1 RES1    0.0000
     25 H9         7.3330   -0.0118    3.7843 H         1 RES1    0.0000
     26 H10        7.9704    0.1465    5.2131 H         1 RES1    0.0000
     27 C8         1.5683    1.6117   -0.7352 C.2       1 RES1    0.0000
     28 H11        1.4699    2.3455   -1.2977 H         1 RES1    0.0000
     29 C9         5.0310   -4.2904    3.4616 C.3       1 RES1    0.0000
     30 H12        5.6989   -4.3986    2.7668 H         1 RES1    0.0000
     31 H13        4.7946   -5.1691    3.7980 H         1 RES1    0.0000
     32 C10        1.6644    1.6143    0.6037 C.2       1 RES1    0.0000
     33 C11        5.5778   -3.4449    4.5710 C.3       1 RES1    0.0000
     34 H14        4.8488   -3.1077    5.1148 H         1 RES1    0.0000
     35 H15        6.1546   -3.9809    5.1370 H         1 RES1    0.0000
     36 C12        1.6490    0.2460   -1.1030 C.2       1 RES1    0.0000
     37 H16        1.6174   -0.0959   -1.9672 H         1 RES1    0.0000
     38 C13       10.4227   -0.1522    5.6260 C.1       1 RES1    0.0000
     39 C14       10.6521    0.0001    6.7717 C.1       1 RES1    0.0000
     40 H17       10.8326    0.1205    7.6764 H         1 RES1    0.0000
     41 H18        1.8099   -1.8440    2.1661 H         1 RES1    0.0000
@<TRIPOS>BOND
     1    1   19 1
     2    2   21 1
     3    3   13 1
     4    4   16 1
     5    5   20 2
     6    6    7 2
     7    7    9 2
     8    8   10 1
     9   10   11 1
    10   12   10 1
    11   13   14 1
    12   15   13 1
    13   16   17 1
    14   18   16 1
    15   19   20 1
    16   20    8 1
    17   21   10 1
    18   22   21 1
    19   23   21 1
    20   24    3 1
    21   25   24 1
    22   26   24 1
    23   27   28 1
    24   29    2 1
    25   30   29 1
    26   31   29 1
    27   32    1 1
    28   33    4 1
    29   34   33 1
    30   35   33 1
    31   36   19 2
    32   37   36 1
    33   38   13 1
    34   39   38 3
    35   40   39 1
    36   41    8 1
    37    7   32 1
    38   16   24 1
    39   27   32 2
    40   27   36 1
    41   29   33 1
@<TRIPOS>SUBSTRUCTURE
     1 RES1 1

@<TRIPOS>CRYSIN
   6.9686   10.5687   11.0917  75.3410  78.6920  82.2430   2 1

