# MOL2 file generated by ConQuest
# Please check atom types

@<TRIPOS>MOLECULE
HOJNAX
    50    51     1
SMALL
NO_CHARGES
****
Generated from CSD

@<TRIPOS>ATOM
      1 O1         1.4044   -2.6114   -1.6929 O.3       1 RES1    0.0000
      2 H1         1.4457   -3.3624   -1.3666 H         1 RES1    0.0000
      3 O2         1.4265    0.0377   -2.4257 O.3       1 RES1    0.0000
      4 O3         3.2801    2.4195   -1.5506 O.2       1 RES1    0.0000
      5 O4         1.3941    2.5413   -0.5547 O.2       1 RES1    0.0000
      6 N1         2.3985    1.9535   -0.8631 N.pl3     1 RES1    0.0000
      7 N2         3.7442    2.4602    1.4701 N.2       1 RES1    0.0000
      8 C1         1.9901   -1.7280   -0.8603 C.ar      1 RES1    0.0000
      9 C2         2.6382   -2.0784    0.3009 C.ar      1 RES1    0.0000
     10 H2         2.6782   -2.9727    0.5522 H         1 RES1    0.0000
     11 C3         3.2297   -1.1213    1.1001 C.ar      1 RES1    0.0000
     12 H3         3.6767   -1.3877    1.8717 H         1 RES1    0.0000
     13 C4         3.1751    0.2357    0.7819 C.ar      1 RES1    0.0000
     14 C5         2.5185    0.5556   -0.4007 C.ar      1 RES1    0.0000
     15 C6         1.9467   -0.3756   -1.2354 C.ar      1 RES1    0.0000
     16 C7         3.7725    1.2219    1.6859 C.2       1 RES1    0.0000
     17 H4         4.1946    0.9170    2.4571 H         1 RES1    0.0000
     18 C8         4.2586    3.3813    2.4257 C.ar      1 RES1    0.0000
     19 C9         3.4230    3.8088    3.4657 C.ar      1 RES1    0.0000
     20 C10        3.9112    4.7887    4.3323 C.ar      1 RES1    0.0000
     21 H5         3.3846    5.0731    5.0436 H         1 RES1    0.0000
     22 C11        5.1539    5.3395    4.1513 C.ar      1 RES1    0.0000
     23 H6         5.4572    6.0027    4.7290 H         1 RES1    0.0000
     24 C12        5.9523    4.9168    3.1209 C.ar      1 RES1    0.0000
     25 H7         6.7927    5.3002    3.0129 H         1 RES1    0.0000
     26 C13        5.5377    3.9274    2.2310 C.ar      1 RES1    0.0000
     27 C14        2.0349    3.2344    3.6673 C.3       1 RES1    0.0000
     28 H8         1.8238    2.6945    2.8766 H         1 RES1    0.0000
     29 C15        2.0140    2.3040    4.8711 C.3       1 RES1    0.0000
     30 H9         2.2673    2.7935    5.6570 H         1 RES1    0.0000
     31 H10        2.6337    1.5842    4.7308 H         1 RES1    0.0000
     32 H11        1.1287    1.9480    4.9842 H         1 RES1    0.0000
     33 C16        0.9682    4.3180    3.7778 C.3       1 RES1    0.0000
     34 H12        1.1527    4.8720    4.5403 H         1 RES1    0.0000
     35 H13        0.1068    3.9094    3.8814 H         1 RES1    0.0000
     36 H14        0.9758    4.8555    2.9832 H         1 RES1    0.0000
     37 C17        6.4205    3.4473    1.0968 C.3       1 RES1    0.0000
     38 H15        6.2615    2.4855    0.9961 H         1 RES1    0.0000
     39 C18        6.0250    4.1042   -0.2143 C.3       1 RES1    0.0000
     40 H16        5.1463    3.8119   -0.4666 H         1 RES1    0.0000
     41 H17        6.6538    3.8583   -0.8983 H         1 RES1    0.0000
     42 H18        6.0268    5.0582   -0.1066 H         1 RES1    0.0000
     43 C19        7.9088    3.6257    1.3654 C.3       1 RES1    0.0000
     44 H19        8.4128    3.1935    0.6728 H         1 RES1    0.0000
     45 H20        8.1293    3.2351    2.2142 H         1 RES1    0.0000
     46 H21        8.1217    4.5624    1.3789 H         1 RES1    0.0000
     47 C20        0.0524   -0.0943   -2.5620 C.3       1 RES1    0.0000
     48 H22       -0.1837   -1.0247   -2.5532 H         1 RES1    0.0000
     49 H23       -0.2272    0.2994   -3.3921 H         1 RES1    0.0000
     50 H24       -0.3848    0.3520   -1.8332 H         1 RES1    0.0000
@<TRIPOS>BOND
     1    1    2 1
     2    3   15 1
     3    4    6 2
     4    5    6 2
     5    6   14 1
     6    7   16 2
     7    8    1 1
     8    9    8 ar
     9   10    9 1
    10   11    9 ar
    11   12   11 1
    12   13   11 ar
    13   14   13 ar
    14   15    8 ar
    15   16   13 1
    16   17   16 1
    17   18    7 1
    18   19   18 ar
    19   20   19 ar
    20   21   20 1
    21   22   20 ar
    22   23   22 1
    23   24   22 ar
    24   25   24 1
    25   26   18 ar
    26   27   19 1
    27   28   27 1
    28   29   27 1
    29   30   29 1
    30   31   29 1
    31   32   29 1
    32   33   27 1
    33   34   33 1
    34   35   33 1
    35   36   33 1
    36   37   26 1
    37   38   37 1
    38   39   37 1
    39   40   39 1
    40   41   39 1
    41   42   39 1
    42   43   37 1
    43   44   43 1
    44   45   43 1
    45   46   43 1
    46   47    3 1
    47   48   47 1
    48   49   47 1
    49   50   47 1
    50   14   15 ar
    51   24   26 ar
@<TRIPOS>SUBSTRUCTURE
     1 RES1 1

@<TRIPOS>CRYSIN
  28.3150    7.8580   18.0219  90.0000 104.1380  90.0000  15 1

