# MOL2 file generated by ConQuest
# Please check atom types

@<TRIPOS>MOLECULE
HOJTAD
    60    63     1
SMALL
NO_CHARGES
****
Generated from CSD

@<TRIPOS>ATOM
      1 C1         0.4509    0.2358   -1.6766 C.2       1 RES1    0.0000
      2 C2         0.3817   -1.2526   -1.8499 C.3       1 RES1    0.0000
      3 H1        -0.3714   -1.5983   -1.3283 H         1 RES1    0.0000
      4 C3         0.1807   -1.6219   -3.3094 C.3       1 RES1    0.0000
      5 H2         0.2897   -2.5790   -3.4276 H         1 RES1    0.0000
      6 H3        -0.7148   -1.3792   -3.5929 H         1 RES1    0.0000
      7 C4         0.9536   -1.1066   -5.4816 C.3       1 RES1    0.0000
      8 H4         0.0170   -0.9960   -5.7117 H         1 RES1    0.0000
      9 H5         1.2260   -2.0010   -5.7408 H         1 RES1    0.0000
     10 C5         1.7766   -0.0967   -6.2057 C.ar      1 RES1    0.0000
     11 C6         2.0091    1.1692   -5.6857 C.ar      1 RES1    0.0000
     12 H6         1.6540    1.4001   -4.8580 H         1 RES1    0.0000
     13 C7         2.7593    2.0824   -6.3839 C.ar      1 RES1    0.0000
     14 H7         2.9059    2.9295   -6.0292 H         1 RES1    0.0000
     15 C8         3.2927    1.7485   -7.6021 C.ar      1 RES1    0.0000
     16 H8         3.8101    2.3640   -8.0686 H         1 RES1    0.0000
     17 C9         3.0609    0.5112   -8.1269 C.ar      1 RES1    0.0000
     18 H9         3.4220    0.2852   -8.9530 H         1 RES1    0.0000
     19 C10        2.2979   -0.4034   -7.4417 C.ar      1 RES1    0.0000
     20 H10        2.1324   -1.2380   -7.8175 H         1 RES1    0.0000
     21 C11       -2.0624    0.7039   -1.8790 C.3       1 RES1    0.0000
     22 H11       -2.5762    1.2735   -1.2846 H         1 RES1    0.0000
     23 H12       -2.2000   -0.2142   -1.5972 H         1 RES1    0.0000
     24 C12       -2.5922    0.8659   -3.2900 C.ar      1 RES1    0.0000
     25 C13       -1.7869    1.0746   -4.3785 C.ar      1 RES1    0.0000
     26 H13       -0.8682    1.1552   -4.2635 H         1 RES1    0.0000
     27 C14       -2.3324    1.1685   -5.6582 C.ar      1 RES1    0.0000
     28 H14       -1.7775    1.2923   -6.3936 H         1 RES1    0.0000
     29 C15       -3.6873    1.0780   -5.8283 C.ar      1 RES1    0.0000
     30 H15       -4.0539    1.1427   -6.6803 H         1 RES1    0.0000
     31 C16       -4.5053    0.8923   -4.7462 C.ar      1 RES1    0.0000
     32 H16       -5.4260    0.8395   -4.8612 H         1 RES1    0.0000
     33 C17       -3.9543    0.7838   -3.4827 C.ar      1 RES1    0.0000
     34 H17       -4.5129    0.6524   -2.7505 H         1 RES1    0.0000
     35 C18        1.4825    1.1114   -1.5259 C.2       1 RES1    0.0000
     36 C19        2.9432    0.8763   -1.3429 C.3       1 RES1    0.0000
     37 H18        3.2028    0.0271   -1.7316 H         1 RES1    0.0000
     38 H19        3.4574    1.5823   -1.7657 H         1 RES1    0.0000
     39 C20        4.4254    0.7623    0.5086 C.2       1 RES1    0.0000
     40 C21        4.4937    0.8068    1.9973 C.ar      1 RES1    0.0000
     41 C22        5.7161    1.0335    2.6096 C.ar      1 RES1    0.0000
     42 H20        6.4836    1.1142    2.0896 H         1 RES1    0.0000
     43 C23        5.8075    1.1413    3.9881 C.ar      1 RES1    0.0000
     44 H21        6.6233    1.3034    4.4044 H         1 RES1    0.0000
     45 C24        4.6542    1.0008    4.7203 C.ar      1 RES1    0.0000
     46 C25        3.4340    0.7699    4.1436 C.ar      1 RES1    0.0000
     47 H22        2.6721    0.6802    4.6685 H         1 RES1    0.0000
     48 C26        3.3564    0.6733    2.7781 C.ar      1 RES1    0.0000
     49 H23        2.5337    0.5168    2.3731 H         1 RES1    0.0000
     50 N1        -0.6442    1.0321   -1.7349 N.3       1 RES1    0.0000
     51 N2        -0.3203    2.3320   -1.6257 N.2       1 RES1    0.0000
     52 N3         0.9972    2.3752   -1.5008 N.2       1 RES1    0.0000
     53 N4         4.7173    1.1260    6.1944 N.pl3     1 RES1    0.0000
     54 O1         1.1304   -0.9327   -4.0790 O.3       1 RES1    0.0000
     55 O2         1.5847   -1.7854   -1.3280 O.3       1 RES1    0.0000
     56 H24        1.5762   -2.6026   -1.3996 H         1 RES1    0.0000
     57 O3         3.1738    0.8694    0.0849 O.3       1 RES1    0.0000
     58 O4         5.3770    0.6427   -0.2161 O.2       1 RES1    0.0000
     59 O5         3.6874    1.0954    6.8094 O.2       1 RES1    0.0000
     60 O6         5.8108    1.2707    6.6999 O.2       1 RES1    0.0000
@<TRIPOS>BOND
     1    1    2 1
     2    2    3 1
     3    4    2 1
     4    5    4 1
     5    6    4 1
     6    7    8 1
     7    9    7 1
     8   10    7 1
     9   11   10 ar
    10   12   11 1
    11   13   11 ar
    12   14   13 1
    13   15   13 ar
    14   16   15 1
    15   17   15 ar
    16   18   17 1
    17   19   10 ar
    18   20   19 1
    19   21   22 1
    20   23   21 1
    21   24   21 1
    22   25   24 ar
    23   26   25 1
    24   27   25 ar
    25   28   27 1
    26   29   27 ar
    27   30   29 1
    28   31   29 ar
    29   32   31 1
    30   33   24 ar
    31   34   33 1
    32   35    1 2
    33   36   35 1
    34   37   36 1
    35   38   36 1
    36   39   40 1
    37   40   41 ar
    38   41   42 1
    39   43   41 ar
    40   44   43 1
    41   45   43 ar
    42   46   45 ar
    43   47   46 1
    44   48   40 ar
    45   49   48 1
    46   50    1 1
    47   51   50 1
    48   52   35 1
    49   53   45 1
    50   54    4 1
    51   55    2 1
    52   56   55 1
    53   57   36 1
    54   58   39 2
    55   59   53 2
    56   60   53 2
    57    7   54 1
    58   17   19 ar
    59   21   50 1
    60   31   33 ar
    61   39   57 1
    62   46   48 ar
    63   51   52 2
@<TRIPOS>SUBSTRUCTURE
     1 RES1 1

@<TRIPOS>CRYSIN
  10.4494    6.9551   16.3650  90.0000  98.1750  90.0000   4 1

