# MOL2 file generated by ConQuest
# Please check atom types

@<TRIPOS>MOLECULE
HOKLEA
    41    44     1
SMALL
NO_CHARGES
****
Generated from CSD

@<TRIPOS>ATOM
      1 O1        10.3012    8.0649    0.2229 O.3       1 RES1    0.0000
      2 N1         4.0537    7.2466    1.1763 N.am      1 RES1    0.0000
      3 C1         8.2868    7.1691    0.9918 C.ar      1 RES1    0.0000
      4 C2         6.1825    6.1637    1.7207 C.ar      1 RES1    0.0000
      5 O2         4.0738    5.3162    2.3710 O.2       1 RES1    0.0000
      6 C3         6.1516    8.2026    0.3653 C.ar      1 RES1    0.0000
      7 C4         6.8655    7.1898    1.0278 C.ar      1 RES1    0.0000
      8 C5         8.9704    6.1335    1.6567 C.ar      1 RES1    0.0000
      9 O3         4.0274    9.0689   -0.1714 O.2       1 RES1    0.0000
     10 C6         8.9373    8.1908    0.2523 C.ar      1 RES1    0.0000
     11 C7         4.7048    6.1814    1.7901 C.2       1 RES1    0.0000
     12 C8         4.6871    8.2270    0.4108 C.2       1 RES1    0.0000
     13 C9         8.2792    5.1536    2.3072 C.ar      1 RES1    0.0000
     14 C10        6.8780    5.1626    2.3385 C.ar      1 RES1    0.0000
     15 C11        8.2323    9.1618   -0.4097 C.ar      1 RES1    0.0000
     16 C12       11.1008    9.0478   -0.3545 C.ar      1 RES1    0.0000
     17 N2        13.7896   11.8003   -1.9830 N.pl3     1 RES1    0.0000
     18 O4        14.6649   11.3952   -2.7270 O.2       1 RES1    0.0000
     19 C13       11.9549   11.2565   -0.4514 C.ar      1 RES1    0.0000
     20 C14        6.8366    9.1616   -0.3347 C.ar      1 RES1    0.0000
     21 C15       12.8417   10.8319   -1.4169 C.ar      1 RES1    0.0000
     22 O5        13.6726   12.9705   -1.6650 O.2       1 RES1    0.0000
     23 C16        2.5750    7.3344    1.2938 C.3       1 RES1    0.0000
     24 C17       11.0748   10.3468    0.0970 C.ar      1 RES1    0.0000
     25 C18       12.8767    9.5288   -1.8610 C.ar      1 RES1    0.0000
     26 C19       11.9862    8.6282   -1.3230 C.ar      1 RES1    0.0000
     27 C20        1.8719    6.7736    0.0970 C.3       1 RES1    0.0000
     28 H1         6.3328    9.8268   -0.7924 H         1 RES1    0.0000
     29 H2        10.4808   10.6300    0.7611 H         1 RES1    0.0000
     30 H3         8.7009    9.8188   -0.9175 H         1 RES1    0.0000
     31 H4         2.0904    5.7551   -0.0209 H         1 RES1    0.0000
     32 H5         6.4102    4.4523    2.8045 H         1 RES1    0.0000
     33 H6         2.3939    6.8540    2.1477 H         1 RES1    0.0000
     34 H7         8.7807    4.4636    2.7316 H         1 RES1    0.0000
     35 H8        13.4940    9.2649   -2.4918 H         1 RES1    0.0000
     36 H9        11.9673    7.7717   -1.6264 H         1 RES1    0.0000
     37 H10       11.9273   12.1447   -0.1564 H         1 RES1    0.0000
     38 H11        9.9115    6.1403    1.6264 H         1 RES1    0.0000
     39 H12        2.1675    7.2732   -0.7715 H         1 RES1    0.0000
     40 H13        2.3412    8.3381    1.4492 H         1 RES1    0.0000
     41 H14        0.9446    6.9220    0.2085 H         1 RES1    0.0000
@<TRIPOS>BOND
     1    1   10 1
     2    2   11 1
     3    3    7 ar
     4    4    7 ar
     5    5   11 2
     6    6    7 ar
     7    8    3 ar
     8    9   12 2
     9   10    3 ar
    10   11    4 1
    11   12    2 1
    12   13    8 ar
    13   14    4 ar
    14   15   10 ar
    15   16    1 1
    16   17   18 2
    17   19   21 ar
    18   20    6 ar
    19   21   17 1
    20   22   17 2
    21   23    2 1
    22   24   16 ar
    23   25   21 ar
    24   26   16 ar
    25   27   23 1
    26   28   20 1
    27   29   24 1
    28   30   15 1
    29   31   27 1
    30   32   14 1
    31   33   23 1
    32   34   13 1
    33   35   25 1
    34   36   26 1
    35   37   19 1
    36   38    8 1
    37   39   27 1
    38   40   23 1
    39   41   27 1
    40    6   12 1
    41   13   14 ar
    42   15   20 ar
    43   19   24 ar
    44   25   26 ar
@<TRIPOS>SUBSTRUCTURE
     1 RES1 1

@<TRIPOS>CRYSIN
  13.9160   11.3290   10.5300  90.0000  98.0670  90.0000  14 1

