# MOL2 file generated by ConQuest
# Please check atom types

@<TRIPOS>MOLECULE
HOLGUL
    78    78     2
SMALL
NO_CHARGES
****
Generated from CSD

@<TRIPOS>ATOM
      1 O1         0.4899   10.1861    3.8744 O.2       1 RES1    0.0000
      2 O2        -1.5137    9.8907    4.5994 O.2       1 RES1    0.0000
      3 O3         1.0611    4.7489    6.9083 O.3       1 RES1    0.0000
      4 O4         2.8385    5.8143    8.5441 O.2       1 RES1    0.0000
      5 O5         4.5413    2.6963    6.6544 O.2       1 RES1    0.0000
      6 O6         4.2962    3.6576   10.4662 O.2       1 RES1    0.0000
      7 O7         6.6647    6.8404    9.5652 O.2       1 RES1    0.0000
      8 N1        -0.3388    9.5601    4.5145 N.pl3     1 RES1    0.0000
      9 N2         4.5823    4.4727    8.0407 N.am      1 RES1    0.0000
     10 N3         5.2719    5.1371    9.0642 N.am      1 RES1    0.0000
     11 C1         1.7604    6.7091    5.6385 C.ar      1 RES1    0.0000
     12 H1         2.6361    6.4078    5.5637 H         1 RES1    0.0000
     13 C2         1.3755    7.9013    5.0445 C.ar      1 RES1    0.0000
     14 H2         1.9880    8.4042    4.5581 H         1 RES1    0.0000
     15 C3         0.0863    8.3304    5.1824 C.ar      1 RES1    0.0000
     16 C4        -0.8466    7.6176    5.9109 C.ar      1 RES1    0.0000
     17 H3        -1.7160    7.9330    6.0009 H         1 RES1    0.0000
     18 C5        -0.4690    6.4312    6.5010 C.ar      1 RES1    0.0000
     19 H4        -1.0801    5.9436    7.0029 H         1 RES1    0.0000
     20 C6         0.8237    5.9717    6.3430 C.ar      1 RES1    0.0000
     21 C7         2.3613    4.1980    6.8713 C.3       1 RES1    0.0000
     22 H5         2.7380    4.3082    5.9845 H         1 RES1    0.0000
     23 H6         2.3193    3.2484    7.0666 H         1 RES1    0.0000
     24 C8         3.2386    4.8897    7.8879 C.2       1 RES1    0.0000
     25 C9         5.1349    3.2848    7.5275 C.2       1 RES1    0.0000
     26 C10        6.4434    2.8487    8.0814 C.3       1 RES1    0.0000
     27 H7         6.7867    2.1207    7.5585 H         1 RES1    0.0000
     28 H8         6.3276    2.5615    8.9904 H         1 RES1    0.0000
     29 H9         7.0625    3.5814    8.0540 H         1 RES1    0.0000
     30 C11        4.9450    4.6634   10.3773 C.2       1 RES1    0.0000
     31 C12        5.4271    5.4406   11.5628 C.3       1 RES1    0.0000
     32 H10        5.1120    5.0245   12.3680 H         1 RES1    0.0000
     33 H11        5.0900    6.3386   11.5154 H         1 RES1    0.0000
     34 H12        6.3870    5.4582   11.5664 H         1 RES1    0.0000
     35 C13        6.0205    6.2812    8.7226 C.2       1 RES1    0.0000
     36 C14        5.9715    6.7091    7.2925 C.3       1 RES1    0.0000
     37 H13        6.5249    7.4840    7.1723 H         1 RES1    0.0000
     38 H14        5.0663    6.9236    7.0539 H         1 RES1    0.0000
     39 H15        6.2892    5.9975    6.7351 H         1 RES1    0.0000
     40 O8        -1.8212    1.7655    5.4974 O.2       2 RES2    0.0000
     41 O9         0.3107    1.7221    5.1436 O.2       2 RES2    0.0000
     42 O10       -0.9925    6.9442    2.0662 O.3       2 RES2    0.0000
     43 O11       -2.4652    5.9358    0.1102 O.2       2 RES2    0.0000
     44 O12       -4.1856    9.3606    1.3620 O.2       2 RES2    0.0000
     45 O13       -3.7040    7.9165   -2.1896 O.2       2 RES2    0.0000
     46 O14       -6.1669    4.8369   -1.1200 O.2       2 RES2    0.0000
     47 N4        -0.7872    2.2285    5.0150 N.pl3     2 RES2    0.0000
     48 N5        -4.2007    7.3639    0.2898 N.am      2 RES2    0.0000
     49 N6        -4.8213    6.6146   -0.7145 N.am      2 RES2    0.0000
     50 C15       -2.1813    5.2683    3.3892 C.ar      2 RES2    0.0000
     51 H16       -2.9927    5.7173    3.3211 H         2 RES2    0.0000
     52 C16       -2.0905    4.0960    4.1219 C.ar      2 RES2    0.0000
     53 H17       -2.8392    3.7537    4.5544 H         2 RES2    0.0000
     54 C17       -0.8871    3.4489    4.2012 C.ar      2 RES2    0.0000
     55 C18        0.2337    3.9225    3.5659 C.ar      2 RES2    0.0000
     56 H18        1.0386    3.4630    3.6308 H         2 RES2    0.0000
     57 C19        0.1511    5.0890    2.8285 C.ar      2 RES2    0.0000
     58 H19        0.8995    5.4160    2.3829 H         2 RES2    0.0000
     59 C20       -1.0515    5.7665    2.7578 C.ar      2 RES2    0.0000
     60 C21       -2.1917    7.6340    1.7584 C.3       2 RES2    0.0000
     61 H20       -1.9874    8.5414    1.4847 H         2 RES2    0.0000
     62 H21       -2.7599    7.6739    2.5450 H         2 RES2    0.0000
     63 C22       -2.9089    6.9177    0.6509 C.2       2 RES2    0.0000
     64 C23       -4.7858    8.6152    0.6383 C.2       2 RES2    0.0000
     65 C24       -6.1356    8.8790    0.0935 C.3       2 RES2    0.0000
     66 H22       -6.4519    9.7266    0.4172 H         2 RES2    0.0000
     67 H23       -6.7349    8.1850    0.3753 H         2 RES2    0.0000
     68 H24       -6.0949    8.8978   -0.8653 H         2 RES2    0.0000
     69 C25       -4.4239    6.9705   -2.0493 C.2       2 RES2    0.0000
     70 C26       -4.9338    6.1464   -3.1852 C.3       2 RES2    0.0000
     71 H25       -4.6474    6.5344   -4.0152 H         2 RES2    0.0000
     72 H26       -5.8928    6.1218   -3.1571 H         2 RES2    0.0000
     73 H27       -4.5887    5.2531   -3.1134 H         2 RES2    0.0000
     74 C27       -5.5689    5.4887   -0.3028 C.2       2 RES2    0.0000
     75 C28       -5.5935    5.1698    1.1490 C.3       2 RES2    0.0000
     76 H28       -6.1979    4.4418    1.3062 H         2 RES2    0.0000
     77 H29       -5.8863    5.9412    1.6414 H         2 RES2    0.0000
     78 H30       -4.7119    4.9225    1.4374 H         2 RES2    0.0000
@<TRIPOS>BOND
     1    1    8 2
     2    2    8 2
     3    3   20 1
     4    4   24 2
     5    5   25 2
     6    6   30 2
     7    7   35 2
     8    8   15 1
     9    9   10 1
    10   10   30 1
    11   11   12 1
    12   13   11 ar
    13   14   13 1
    14   15   13 ar
    15   16   15 ar
    16   17   16 1
    17   18   16 ar
    18   19   18 1
    19   20   11 ar
    20   21    3 1
    21   22   21 1
    22   23   21 1
    23   24    9 1
    24   25    9 1
    25   26   25 1
    26   27   26 1
    27   28   26 1
    28   29   26 1
    29   30   31 1
    30   31   32 1
    31   33   31 1
    32   34   31 1
    33   35   10 1
    34   36   35 1
    35   37   36 1
    36   38   36 1
    37   39   36 1
    38   40   47 2
    39   41   47 2
    40   42   59 1
    41   43   63 2
    42   44   64 2
    43   45   69 2
    44   46   74 2
    45   47   54 1
    46   48   49 1
    47   49   69 1
    48   50   51 1
    49   52   50 ar
    50   53   52 1
    51   54   52 ar
    52   55   54 ar
    53   56   55 1
    54   57   55 ar
    55   58   57 1
    56   59   50 ar
    57   60   42 1
    58   61   60 1
    59   62   60 1
    60   63   48 1
    61   64   48 1
    62   65   64 1
    63   66   65 1
    64   67   65 1
    65   68   65 1
    66   69   70 1
    67   70   71 1
    68   72   70 1
    69   73   70 1
    70   74   49 1
    71   75   74 1
    72   76   75 1
    73   77   75 1
    74   78   75 1
    75   18   20 ar
    76   21   24 1
    77   57   59 ar
    78   60   63 1
@<TRIPOS>SUBSTRUCTURE
     1 RES1 1
     2 RES2 40

@<TRIPOS>CRYSIN
  14.9490   11.7230   23.0340  90.0000 127.7300  90.0000  14 1

