# MOL2 file generated by ConQuest
# Please check atom types

@<TRIPOS>MOLECULE
HOLHEW
    54    58     1
SMALL
NO_CHARGES
****
Generated from CSD

@<TRIPOS>ATOM
      1 C1         7.8359    8.3385    0.6321 C.3       1 RES1    0.0000
      2 C2         9.3812    8.4067    0.8689 C.3       1 RES1    0.0000
      3 C3         9.7306    9.6827    0.1128 C.ar      1 RES1    0.0000
      4 C4        10.9396   10.1948   -0.2863 C.ar      1 RES1    0.0000
      5 H1        11.7400    9.7060   -0.1376 H         1 RES1    0.0000
      6 C5        10.9787   11.4420   -0.9147 C.ar      1 RES1    0.0000
      7 H2        11.8103   11.8077   -1.1948 H         1 RES1    0.0000
      8 C6         9.8116   12.1393   -1.1267 C.ar      1 RES1    0.0000
      9 H3         9.8495   12.9857   -1.5568 H         1 RES1    0.0000
     10 C7         8.5809   11.6379   -0.7288 C.ar      1 RES1    0.0000
     11 H4         7.7785   12.1240   -0.8800 H         1 RES1    0.0000
     12 C8         8.5678   10.4015   -0.1016 C.ar      1 RES1    0.0000
     13 C9         6.2145    6.5234    0.9222 C.3       1 RES1    0.0000
     14 H5         5.3306    6.8792    0.6197 H         1 RES1    0.0000
     15 C10        6.9931    7.6034    1.6782 C.3       1 RES1    0.0000
     16 H6         6.3697    8.2315    2.1232 H         1 RES1    0.0000
     17 H7         7.5747    7.1937    2.3649 H         1 RES1    0.0000
     18 C11        6.6233    5.6554   -1.3882 C.ar      1 RES1    0.0000
     19 C12        7.3023    5.8324   -2.5818 C.ar      1 RES1    0.0000
     20 H8         8.0329    6.4371   -2.6240 H         1 RES1    0.0000
     21 C13        6.9202    5.1289   -3.7159 C.ar      1 RES1    0.0000
     22 H9         7.3799    5.2619   -4.5365 H         1 RES1    0.0000
     23 C14        5.8653    4.2321   -3.6478 C.ar      1 RES1    0.0000
     24 H10        5.6102    3.7406   -4.4187 H         1 RES1    0.0000
     25 C15        5.1930    4.0551   -2.4703 C.ar      1 RES1    0.0000
     26 H11        4.4774    3.4333   -2.4281 H         1 RES1    0.0000
     27 C16        5.5464    4.7775   -1.3312 C.ar      1 RES1    0.0000
     28 H12        5.0564    4.6715   -0.5243 H         1 RES1    0.0000
     29 C17        6.0221    5.2672    1.7415 C.ar      1 RES1    0.0000
     30 C18        7.0510    4.3768    1.9509 C.ar      1 RES1    0.0000
     31 H13        7.9012    4.5430    1.5605 H         1 RES1    0.0000
     32 C19        6.8658    3.2437    2.7206 C.ar      1 RES1    0.0000
     33 H14        7.5855    2.6381    2.8533 H         1 RES1    0.0000
     34 C20        5.6481    2.9921    3.2945 C.ar      1 RES1    0.0000
     35 H15        5.5272    2.2104    3.8200 H         1 RES1    0.0000
     36 C21        4.5982    3.8628    3.1148 C.ar      1 RES1    0.0000
     37 H16        3.7576    3.6921    3.5213 H         1 RES1    0.0000
     38 C22        4.7826    4.9986    2.3277 C.ar      1 RES1    0.0000
     39 H17        4.0570    5.5970    2.1901 H         1 RES1    0.0000
     40 C23        6.1141   10.0654    0.0025 C.3       1 RES1    0.0000
     41 H18        5.9349   11.0053    0.2169 H         1 RES1    0.0000
     42 H19        5.4695    9.4949    0.4710 H         1 RES1    0.0000
     43 H20        6.0287    9.9298   -0.9643 H         1 RES1    0.0000
     44 C24        9.6889    8.6260    2.3562 C.3       1 RES1    0.0000
     45 H21       10.6324    8.8695    2.4616 H         1 RES1    0.0000
     46 H22        9.5067    7.8011    2.8520 H         1 RES1    0.0000
     47 H23        9.1243    9.3475    2.7033 H         1 RES1    0.0000
     48 C25       10.1092    7.1811    0.3532 C.3       1 RES1    0.0000
     49 H24        9.8928    7.0490   -0.5937 H         1 RES1    0.0000
     50 H25        9.8278    6.3949    0.8652 H         1 RES1    0.0000
     51 H26       11.0743    7.3087    0.4536 H         1 RES1    0.0000
     52 N1         7.4657    9.7213    0.4227 N.3       1 RES1    0.0000
     53 N2         7.0947    6.3104   -0.2231 N.3       1 RES1    0.0000
     54 O1         7.5384    7.6385   -0.6153 O.3       1 RES1    0.0000
@<TRIPOS>BOND
     1    1    2 1
     2    2    3 1
     3    3    4 ar
     4    4    5 1
     5    6    4 ar
     6    7    6 1
     7    8    6 ar
     8    9    8 1
     9   10    8 ar
    10   11   10 1
    11   12    3 ar
    12   13   14 1
    13   15    1 1
    14   16   15 1
    15   17   15 1
    16   18   19 ar
    17   19   20 1
    18   21   19 ar
    19   22   21 1
    20   23   21 ar
    21   24   23 1
    22   25   23 ar
    23   26   25 1
    24   27   18 ar
    25   28   27 1
    26   29   13 1
    27   30   29 ar
    28   31   30 1
    29   32   30 ar
    30   33   32 1
    31   34   32 ar
    32   35   34 1
    33   36   34 ar
    34   37   36 1
    35   38   29 ar
    36   39   38 1
    37   40   41 1
    38   42   40 1
    39   43   40 1
    40   44    2 1
    41   45   44 1
    42   46   44 1
    43   47   44 1
    44   48    2 1
    45   49   48 1
    46   50   48 1
    47   51   48 1
    48   52    1 1
    49   53   13 1
    50   54    1 1
    51   10   12 ar
    52   12   52 1
    53   13   15 1
    54   18   53 1
    55   25   27 ar
    56   36   38 ar
    57   40   52 1
    58   53   54 1
@<TRIPOS>SUBSTRUCTURE
     1 RES1 1

@<TRIPOS>CRYSIN
  18.0393    8.9854   12.3947  90.0000  90.0000  90.0000  33 1

