# MOL2 file generated by ConQuest
# Please check atom types

@<TRIPOS>MOLECULE
HOLSIM01
   120   126     4
SMALL
NO_CHARGES
****
Generated from CSD

@<TRIPOS>ATOM
      1 O1         9.5713    1.0547   10.2293 O.3       1 RES1    0.0000
      2 O2        10.8029    2.9067   10.6565 O.2       1 RES1    0.0000
      3 O3         8.8645    6.5522    9.6892 O.3       1 RES1    0.0000
      4 N1         8.1869    0.8005    9.9095 N.2       1 RES1    0.0000
      5 N2         8.5296    2.9681   10.1356 N.am      1 RES1    0.0000
      6 N3         8.5760    5.0807    8.0640 N.2       1 RES1    0.0000
      7 N4         9.0573    7.2565    8.4657 N.2       1 RES1    0.0000
      8 C1         7.6337    1.9648    9.8685 C.2       1 RES1    0.0000
      9 C2         9.7550    2.3895   10.3669 C.2       1 RES1    0.0000
     10 C3         8.2445    4.3529   10.4531 C.3       1 RES1    0.0000
     11 H1         8.7613    4.6117   11.2576 H         1 RES1    0.0000
     12 H2         7.2826    4.4430   10.6686 H         1 RES1    0.0000
     13 C4         8.5834    5.2930    9.3294 C.2       1 RES1    0.0000
     14 C5         8.8695    6.3432    7.5528 C.2       1 RES1    0.0000
     15 C6         6.2110    2.1681    9.5301 C.ar      1 RES1    0.0000
     16 C7         5.2201    1.7355   10.4051 C.ar      1 RES1    0.0000
     17 H3         5.4531    1.3522   11.2428 H         1 RES1    0.0000
     18 C8         3.8823    1.8691   10.0421 C.ar      1 RES1    0.0000
     19 H4         3.1988    1.5877   10.6392 H         1 RES1    0.0000
     20 C9         3.5467    2.4120    8.8129 C.ar      1 RES1    0.0000
     21 H5         2.6337    2.4877    8.5617 H         1 RES1    0.0000
     22 C10        4.5399    2.8464    7.9485 C.ar      1 RES1    0.0000
     23 H6         4.3049    3.2183    7.1055 H         1 RES1    0.0000
     24 C11        5.8731    2.7393    8.3098 C.ar      1 RES1    0.0000
     25 H7         6.5519    3.0547    7.7254 H         1 RES1    0.0000
     26 C12        8.9175    6.6280    6.1133 C.ar      1 RES1    0.0000
     27 C13        8.8017    5.5794    5.2081 C.ar      1 RES1    0.0000
     28 H8         8.7225    4.6867    5.5242 H         1 RES1    0.0000
     29 C14        8.8011    5.8340    3.8471 C.ar      1 RES1    0.0000
     30 H9         8.7285    5.1100    3.2377 H         1 RES1    0.0000
     31 C15        8.9055    7.1331    3.3550 C.ar      1 RES1    0.0000
     32 C16        9.0230    8.1775    4.2708 C.ar      1 RES1    0.0000
     33 H10        9.1004    9.0709    3.9562 H         1 RES1    0.0000
     34 C17        9.0288    7.9314    5.6361 C.ar      1 RES1    0.0000
     35 H11        9.1089    8.6548    6.2472 H         1 RES1    0.0000
     36 C18        8.8663    7.4046    1.8744 C.3       1 RES1    0.0000
     37 H12        8.9522    8.3686    1.7168 H         1 RES1    0.0000
     38 H13        8.0147    7.0881    1.5062 H         1 RES1    0.0000
     39 H14        9.6063    6.9350    1.4370 H         1 RES1    0.0000
     40 H15        8.7630    6.5597    1.3899 Du        4 SUP4    0.0000
     41 H16        9.6999    7.8383    1.5990 Du        4 SUP4    0.0000
     42 H17        8.1087    7.9918    1.6696 Du        4 SUP4    0.0000
     43 O4        16.8385    6.5201   12.1183 O.3       2 RES2    0.0000
     44 O5        17.7493    8.3792   13.0429 O.2       2 RES2    0.0000
     45 O6        14.8632   11.5821   13.3384 O.3       2 RES2    0.0000
     46 N5        15.5029    6.0313   11.9136 N.2       2 RES2    0.0000
     47 N6        15.4520    8.0104   12.9033 N.am      2 RES2    0.0000
     48 N7        14.9392   10.3988   11.4665 N.2       2 RES2    0.0000
     49 N8        14.8126   12.5219   12.2611 N.2       2 RES2    0.0000
     50 C19       14.7308    6.9517   12.3976 C.2       2 RES2    0.0000
     51 C20       16.7827    7.7289   12.7312 C.2       2 RES2    0.0000
     52 C21       15.0130    9.1819   13.6436 C.3       2 RES2    0.0000
     53 H18       15.6454    9.3610   14.3848 H         2 RES2    0.0000
     54 H19       14.1217    9.0092   14.0373 H         2 RES2    0.0000
     55 C22       14.9405   10.3779   12.7517 C.2       2 RES2    0.0000
     56 C23       14.8681   11.7618   11.1945 C.2       2 RES2    0.0000
     57 C24       13.2656    6.8363   12.3991 C.ar      2 RES2    0.0000
     58 C25       12.6900    5.5913   12.6620 C.ar      2 RES2    0.0000
     59 H20       13.2422    4.8382   12.8330 H         2 RES2    0.0000
     60 C26       11.3144    5.4597   12.6735 C.ar      2 RES2    0.0000
     61 H21       10.9219    4.6133   12.8506 H         2 RES2    0.0000
     62 C27       10.5035    6.5619   12.4276 C.ar      2 RES2    0.0000
     63 H22        9.5584    6.4718   12.4605 H         2 RES2    0.0000
     64 C28       11.0704    7.7946   12.1333 C.ar      2 RES2    0.0000
     65 H23       10.5135    8.5412   11.9437 H         2 RES2    0.0000
     66 C29       12.4499    7.9358   12.1156 C.ar      2 RES2    0.0000
     67 H24       12.8398    8.7777   11.9113 H         2 RES2    0.0000
     68 C30       14.8570   12.2748    9.8185 C.ar      2 RES2    0.0000
     69 C31       14.6488   11.3849    8.7689 C.ar      2 RES2    0.0000
     70 H25       14.4944   10.4659    8.9533 H         2 RES2    0.0000
     71 C32       14.6649   11.8279    7.4644 C.ar      2 RES2    0.0000
     72 H26       14.5065   11.2088    6.7610 H         2 RES2    0.0000
     73 C33       14.9088   13.1634    7.1540 C.ar      2 RES2    0.0000
     74 C34       15.1101   14.0473    8.2077 C.ar      2 RES2    0.0000
     75 H27       15.2761   14.9643    8.0199 H         2 RES2    0.0000
     76 C35       15.0741   13.6207    9.5312 C.ar      2 RES2    0.0000
     77 H28       15.1969   14.2446   10.2372 H         2 RES2    0.0000
     78 C36       14.9430   13.6038    5.7139 C.3       2 RES2    0.0000
     79 H29       14.0295   13.7799    5.4050 H         2 RES2    0.0000
     80 H30       15.3424   12.8966    5.1650 H         2 RES2    0.0000
     81 H31       15.4783   14.4203    5.6347 H         2 RES2    0.0000
     82 O7         9.7794   17.0976   13.3478 O.3       3 RES3    0.0000
     83 O8         8.8132   15.0967   13.8072 O.2       3 RES3    0.0000
     84 O9        11.6846   11.8630   13.4609 O.3       3 RES3    0.0000
     85 N9        11.1307   17.5964   13.3190 N.2       3 RES3    0.0000
     86 N10       11.1189   15.4402   13.8414 N.am      3 RES3    0.0000
     87 N11       11.4765   13.4151   11.8917 N.2       3 RES3    0.0000
     88 N12       11.6582   11.1764   12.2105 N.2       3 RES3    0.0000
     89 C37       11.8723   16.5728   13.6245 C.2       3 RES3    0.0000
     90 C38        9.7995   15.7800   13.6812 C.2       3 RES3    0.0000
     91 C39       11.5332   14.1218   14.2891 C.3       3 RES3    0.0000
     92 H32       10.9022   13.7933   14.9782 H         3 RES3    0.0000
     93 H33       12.4325   14.1791   14.6984 H         3 RES3    0.0000
     94 C40       11.5668   13.1608   13.1470 C.2       3 RES3    0.0000
     95 C41       11.5258   12.1414   11.3328 C.2       3 RES3    0.0000
     96 C42       13.3336   16.6627   13.7298 C.ar      3 RES3    0.0000
     97 C43       13.8851   17.7374   14.4306 C.ar      3 RES3    0.0000
     98 H34       13.3200   18.3787   14.8442 H         3 RES3    0.0000
     99 C44       15.2666   17.8605   14.5170 C.ar      3 RES3    0.0000
    100 H35       15.6473   18.5937   14.9870 H         3 RES3    0.0000
    101 C45       16.0960   16.9146   13.9182 C.ar      3 RES3    0.0000
    102 H36       17.0401   17.0009   13.9814 H         3 RES3    0.0000
    103 C46       15.5394   15.8459   13.2306 C.ar      3 RES3    0.0000
    104 H37       16.1070   15.1983   12.8286 H         3 RES3    0.0000
    105 C47       14.1621   15.7131   13.1251 C.ar      3 RES3    0.0000
    106 H38       13.7854   14.9839   12.6460 H         3 RES3    0.0000
    107 C48       11.4427   11.9138    9.8927 C.ar      3 RES3    0.0000
    108 C49       11.5645   12.9909    9.0200 C.ar      3 RES3    0.0000
    109 H39       11.6861   13.8679    9.3641 H         3 RES3    0.0000
    110 C50       11.5092   12.7861    7.6524 C.ar      3 RES3    0.0000
    111 H40       11.6098   13.5263    7.0658 H         3 RES3    0.0000
    112 C51       11.3086   11.5136    7.1216 C.ar      3 RES3    0.0000
    113 C52       11.1551   10.4461    8.0065 C.ar      3 RES3    0.0000
    114 H41       10.9931    9.5750    7.6636 H         3 RES3    0.0000
    115 C53       11.2352   10.6342    9.3755 C.ar      3 RES3    0.0000
    116 H42       11.1487    9.8924    9.9634 H         3 RES3    0.0000
    117 C54       11.2821   11.3105    5.6325 C.3       3 RES3    0.0000
    118 H43       10.9074   12.1067    5.2003 H         3 RES3    0.0000
    119 H44       10.7284   10.5307    5.4182 H         3 RES3    0.0000
    120 H45       12.1951   11.1625    5.3063 H         3 RES3    0.0000
@<TRIPOS>BOND
     1    1    4 1
     2    2    9 2
     3    3    7 1
     4    4    8 2
     5    5    8 1
     6    6   13 2
     7    7   14 2
     8    8   15 1
     9    9    1 1
    10   10    5 1
    11   11   10 1
    12   12   10 1
    13   13    3 1
    14   14    6 1
    15   15   16 ar
    16   16   17 1
    17   18   16 ar
    18   19   18 1
    19   20   18 ar
    20   21   20 1
    21   22   20 ar
    22   23   22 1
    23   24   15 ar
    24   25   24 1
    25   26   14 1
    26   27   26 ar
    27   28   27 1
    28   29   27 ar
    29   30   29 1
    30   31   29 ar
    31   32   31 ar
    32   33   32 1
    33   34   26 ar
    34   35   34 1
    35   36   31 1
    36   37   36 1
    37   38   36 1
    38   39   36 1
    39   43   46 1
    40   44   51 2
    41   45   49 1
    42   46   50 2
    43   47   50 1
    44   48   55 2
    45   49   56 2
    46   50   57 1
    47   51   43 1
    48   52   47 1
    49   53   52 1
    50   54   52 1
    51   55   45 1
    52   56   48 1
    53   57   58 ar
    54   58   59 1
    55   60   58 ar
    56   61   60 1
    57   62   60 ar
    58   63   62 1
    59   64   62 ar
    60   65   64 1
    61   66   57 ar
    62   67   66 1
    63   68   56 1
    64   69   68 ar
    65   70   69 1
    66   71   69 ar
    67   72   71 1
    68   73   71 ar
    69   74   73 ar
    70   75   74 1
    71   76   68 ar
    72   77   76 1
    73   78   73 1
    74   79   78 1
    75   80   78 1
    76   81   78 1
    77   82   85 1
    78   83   90 2
    79   84   88 1
    80   85   89 2
    81   86   89 1
    82   87   94 2
    83   88   95 2
    84   89   96 1
    85   90   82 1
    86   91   86 1
    87   92   91 1
    88   93   91 1
    89   94   84 1
    90   95   87 1
    91   96   97 ar
    92   97   98 1
    93   99   97 ar
    94  100   99 1
    95  101   99 ar
    96  102  101 1
    97  103  101 ar
    98  104  103 1
    99  105   96 ar
   100  106  105 1
   101  107   95 1
   102  108  107 ar
   103  109  108 1
   104  110  108 ar
   105  111  110 1
   106  112  110 ar
   107  113  112 ar
   108  114  113 1
   109  115  107 ar
   110  116  115 1
   111  117  112 1
   112  118  117 1
   113  119  117 1
   114  120  117 1
   115    5    9 1
   116   10   13 1
   117   22   24 ar
   118   32   34 ar
   119   47   51 1
   120   52   55 1
   121   64   66 ar
   122   74   76 ar
   123   86   90 1
   124   91   94 1
   125  103  105 ar
   126  113  115 ar
@<TRIPOS>SUBSTRUCTURE
     1 RES1 1
     2 RES2 43
     3 RES3 82
     4 SUP4 40

@<TRIPOS>CRYSIN
  10.1883   15.5657   15.8539  73.9390  73.4250  81.4650   2 1

