# MOL2 file generated by ConQuest
# Please check atom types

@<TRIPOS>MOLECULE
HOLXIR
    28    29     1
SMALL
NO_CHARGES
****
Generated from CSD

@<TRIPOS>ATOM
      1 O1         2.3096    2.5441    6.8587 O.3       1 RES1    0.0000
      2 O2         3.3605    0.0361    9.0307 O.2       1 RES1    0.0000
      3 O3         0.8839   -0.0992    6.7610 O.3       1 RES1    0.0000
      4 H1         1.5992   -0.1349    6.3807 H         1 RES1    0.0000
      5 N1         2.2003    1.5577    7.8618 N.am      1 RES1    0.0000
      6 C1         1.5913    6.4043    8.1932 C.ar      1 RES1    0.0000
      7 H2         1.4498    7.2732    8.4903 H         1 RES1    0.0000
      8 C2         2.6387    6.1259    7.3446 C.ar      1 RES1    0.0000
      9 H3         3.1931    6.8118    7.0484 H         1 RES1    0.0000
     10 C3         2.8654    4.8254    6.9339 C.ar      1 RES1    0.0000
     11 H4         3.5785    4.6288    6.3711 H         1 RES1    0.0000
     12 C4         2.0240    3.8264    7.3670 C.ar      1 RES1    0.0000
     13 C5         3.3818    1.0211    8.3029 C.2       1 RES1    0.0000
     14 C6         4.6311    1.7167    7.8786 C.3       1 RES1    0.0000
     15 H5         5.3638    1.4151    8.4206 H         1 RES1    0.0000
     16 H6         4.5223    2.6636    7.9859 H         1 RES1    0.0000
     17 H7         4.8107    1.5173    6.9571 H         1 RES1    0.0000
     18 C7         0.7563    5.3870    8.5983 C.ar      1 RES1    0.0000
     19 H8         0.0485    5.5912    9.1668 H         1 RES1    0.0000
     20 C8         0.9269    4.0605    8.1924 C.ar      1 RES1    0.0000
     21 C9         0.9426    0.8208    7.8226 C.3       1 RES1    0.0000
     22 H9         0.8442    0.3285    8.6648 H         1 RES1    0.0000
     23 C10       -0.1987    1.8053    7.7073 C.3       1 RES1    0.0000
     24 H10       -1.0303    1.3477    7.9082 H         1 RES1    0.0000
     25 H11       -0.2491    2.1232    6.7922 H         1 RES1    0.0000
     26 C11       -0.0537    3.0027    8.6408 C.3       1 RES1    0.0000
     27 H12       -0.9241    3.4170    8.7456 H         1 RES1    0.0000
     28 H13        0.2215    2.6790    9.5126 H         1 RES1    0.0000
@<TRIPOS>BOND
     1    1    5 1
     2    2   13 2
     3    3    4 1
     4    5   13 1
     5    6    7 1
     6    8    6 ar
     7    9    8 1
     8   10    8 ar
     9   11   10 1
    10   12    1 1
    11   13   14 1
    12   14   15 1
    13   16   14 1
    14   17   14 1
    15   18    6 ar
    16   19   18 1
    17   20   12 ar
    18   21    3 1
    19   22   21 1
    20   23   21 1
    21   24   23 1
    22   25   23 1
    23   26   20 1
    24   27   26 1
    25   28   26 1
    26    5   21 1
    27   10   12 ar
    28   18   20 ar
    29   23   26 1
@<TRIPOS>SUBSTRUCTURE
     1 RES1 1

@<TRIPOS>CRYSIN
  13.1081    9.6334    8.0059  90.0000  90.0000  90.0000  29 1

