# MOL2 file generated by ConQuest
# Please check atom types

@<TRIPOS>MOLECULE
HOLXOX
    32    33     1
SMALL
NO_CHARGES
****
Generated from CSD

@<TRIPOS>ATOM
      1 O1         2.4136    1.4204    1.0772 O.3       1 RES1    0.0000
      2 O2         4.2110    2.2298   -1.3121 O.3       1 RES1    0.0000
      3 H1         4.5812    2.9045   -1.0272 H         1 RES1    0.0000
      4 O3         5.6212    2.6746    1.5577 O.2       1 RES1    0.0000
      5 N1         3.8145    1.5363    0.9368 N.am      1 RES1    0.0000
      6 C1         4.4531    2.3879    1.7818 C.2       1 RES1    0.0000
      7 C2         2.0505    0.1916    1.7859 C.3       1 RES1    0.0000
      8 H2         2.6315    0.0931    2.5688 H         1 RES1    0.0000
      9 C3         0.6406    0.4214    2.2489 C.3       1 RES1    0.0000
     10 H3         0.0951    0.7256    1.5064 H         1 RES1    0.0000
     11 H4         0.6262    1.1048    2.9373 H         1 RES1    0.0000
     12 C4         3.6675   -0.0342   -0.9355 C.3       1 RES1    0.0000
     13 H5         4.1954   -0.3779   -1.6725 H         1 RES1    0.0000
     14 H6         2.8027    0.2278   -1.2891 H         1 RES1    0.0000
     15 C5         3.4610   -1.1564    0.0918 C.3       1 RES1    0.0000
     16 H7         3.4376   -2.0060   -0.3753 H         1 RES1    0.0000
     17 H8         4.2236   -1.1732    0.6925 H         1 RES1    0.0000
     18 C6         4.3514    1.1852   -0.3753 C.3       1 RES1    0.0000
     19 H9         5.3053    0.9849   -0.2754 H         1 RES1    0.0000
     20 C7         3.7077    2.8837    2.9697 C.3       1 RES1    0.0000
     21 H10        3.4074    2.1380    3.4934 H         1 RES1    0.0000
     22 H11        2.9503    3.3982    2.6795 H         1 RES1    0.0000
     23 H12        4.2859    3.4364    3.5015 H         1 RES1    0.0000
     24 C8         2.2070   -1.0184    0.9085 C.2       1 RES1    0.0000
     25 C9         0.0810   -0.8864    2.8037 C.3       1 RES1    0.0000
     26 H13       -0.8157   -0.7363    3.1438 H         1 RES1    0.0000
     27 H14        0.6345   -1.1886    3.5407 H         1 RES1    0.0000
     28 C10        1.2717   -1.9665    0.9085 C.2       1 RES1    0.0000
     29 H15        1.4062   -2.6947    0.3469 H         1 RES1    0.0000
     30 C11        0.0406   -1.9651    1.7211 C.3       1 RES1    0.0000
     31 H16       -0.0686   -2.8341    2.1382 H         1 RES1    0.0000
     32 H17       -0.7231   -1.8117    1.1433 H         1 RES1    0.0000
@<TRIPOS>BOND
     1    1    5 1
     2    2    3 1
     3    4    6 2
     4    5    6 1
     5    6   20 1
     6    7    1 1
     7    8    7 1
     8    9    7 1
     9   10    9 1
    10   11    9 1
    11   12   13 1
    12   14   12 1
    13   15   12 1
    14   16   15 1
    15   17   15 1
    16   18    2 1
    17   19   18 1
    18   20   21 1
    19   22   20 1
    20   23   20 1
    21   24    7 1
    22   25    9 1
    23   26   25 1
    24   27   25 1
    25   28   24 2
    26   29   28 1
    27   30   25 1
    28   31   30 1
    29   32   30 1
    30    5   18 1
    31   12   18 1
    32   15   24 1
    33   28   30 1
@<TRIPOS>SUBSTRUCTURE
     1 RES1 1

@<TRIPOS>CRYSIN
  11.9758    6.7000   14.3713  90.0000 110.0700  90.0000  14 1

