# MOL2 file generated by ConQuest
# Please check atom types

@<TRIPOS>MOLECULE
HOMDAO
    29    30     1
SMALL
NO_CHARGES
****
Generated from CSD

@<TRIPOS>ATOM
      1 N1        -4.2146   -1.0165    9.5592 N.am      1 RES1    0.0000
      2 C1        -5.1608   -1.8978    9.1268 C.2       1 RES1    0.0000
      3 C2        -6.3238   -2.0356    9.7520 C.2       1 RES1    0.0000
      4 C3        -6.6020   -1.2333   10.8713 C.2       1 RES1    0.0000
      5 C4        -5.6744   -0.3415   11.3037 C.2       1 RES1    0.0000
      6 C5        -4.3967   -0.1957   10.6635 C.2       1 RES1    0.0000
      7 C6        -2.9864   -0.8471    8.8002 C.3       1 RES1    0.0000
      8 C7        -3.1319    0.2669    7.7782 C.2       1 RES1    0.0000
      9 O1        -4.1273    0.9366    7.7155 O.2       1 RES1    0.0000
     10 C8        -2.0002    0.4758    6.8123 C.ar      1 RES1    0.0000
     11 C9        -0.8180   -0.2440    6.8797 C.ar      1 RES1    0.0000
     12 C10        0.2107   -0.0272    6.0009 C.ar      1 RES1    0.0000
     13 C11        0.0288    0.9559    5.0407 C.ar      1 RES1    0.0000
     14 C12       -1.1168    1.6924    4.9527 C.ar      1 RES1    0.0000
     15 C13       -2.1307    1.4457    5.8343 C.ar      1 RES1    0.0000
     16 N2         1.1475    1.2930    4.1086 N.pl3     1 RES1    0.0000
     17 O2         2.0058    0.4380    4.0103 O.2       1 RES1    0.0000
     18 O3         1.0892    2.3411    3.4927 O.2       1 RES1    0.0000
     19 O4        -3.5028    0.5697   11.0192 O.2       1 RES1    0.0000
     20 H1        -4.9446   -2.4649    8.4052 H         1 RES1    0.0000
     21 H2        -6.9792   -2.7317    9.4927 H         1 RES1    0.0000
     22 H3        -7.4735   -1.2965   11.3533 H         1 RES1    0.0000
     23 H4        -5.7704    0.1325   12.0309 H         1 RES1    0.0000
     24 H5        -2.8275   -1.6397    8.2985 H         1 RES1    0.0000
     25 H6        -2.2258   -0.6487    9.4675 H         1 RES1    0.0000
     26 H7        -0.7325   -0.8778    7.5040 H         1 RES1    0.0000
     27 H8         1.0495   -0.5056    6.0561 H         1 RES1    0.0000
     28 H9        -1.2212    2.3665    4.2677 H         1 RES1    0.0000
     29 H10       -2.9760    1.9917    5.7529 H         1 RES1    0.0000
@<TRIPOS>BOND
     1    1    2 1
     2    2    3 2
     3    3    4 1
     4    4    5 2
     5    5    6 1
     6    6    1 1
     7    7    1 1
     8    8    7 1
     9    9    8 2
    10   10    8 1
    11   11   10 ar
    12   12   11 ar
    13   13   12 ar
    14   14   13 ar
    15   15   10 ar
    16   16   13 1
    17   17   16 2
    18   18   16 2
    19   19    6 2
    20   20    2 1
    21   21    3 1
    22   22    4 1
    23   23    5 1
    24   24    7 1
    25   25    7 1
    26   26   11 1
    27   27   12 1
    28   28   14 1
    29   29   15 1
    30   14   15 ar
@<TRIPOS>SUBSTRUCTURE
     1 RES1 1

@<TRIPOS>CRYSIN
   7.1325    8.7780    9.8333  90.0000 107.8700  90.0000   4 1

