# MOL2 file generated by ConQuest
# Please check atom types

@<TRIPOS>MOLECULE
HOMZUF
    31    32     1
SMALL
NO_CHARGES
****
Generated from CSD

@<TRIPOS>ATOM
      1 O1         2.2851   -1.0259   -0.1753 O.3       1 RES1    0.0000
      2 C1         1.3809   -0.2988    0.5575 C.ar      1 RES1    0.0000
      3 C2         1.4672    0.0613    1.8790 C.ar      1 RES1    0.0000
      4 H1         2.2039   -0.2037    2.4182 H         1 RES1    0.0000
      5 C3         0.4146    0.8419    2.4030 C.ar      1 RES1    0.0000
      6 C4        -0.6538    1.2047    1.5886 C.ar      1 RES1    0.0000
      7 H2        -1.3574    1.7248    1.9593 H         1 RES1    0.0000
      8 C5        -0.7255    0.8255    0.2314 C.ar      1 RES1    0.0000
      9 H3        -1.4543    1.0812   -0.3215 H         1 RES1    0.0000
     10 C6         0.3070    0.0722   -0.2429 C.ar      1 RES1    0.0000
     11 O2         0.4952   -0.4076   -1.5243 O.3       1 RES1    0.0000
     12 C7         1.7182   -1.1514   -1.4858 C.3       1 RES1    0.0000
     13 H4         2.3495   -0.8003   -2.1626 H         1 RES1    0.0000
     14 H5         1.5417   -2.1045   -1.6900 H         1 RES1    0.0000
     15 C8         0.4386    1.2975    3.8548 C.3       1 RES1    0.0000
     16 H6        -0.4246    1.7649    4.0477 H         1 RES1    0.0000
     17 C9         1.5848    2.2851    4.1246 C.3       1 RES1    0.0000
     18 H7         2.4408    1.7881    4.1164 H         1 RES1    0.0000
     19 H8         1.6140    2.9464    3.3882 H         1 RES1    0.0000
     20 C10        1.4666    3.0305    5.4472 C.2       1 RES1    0.0000
     21 O3         0.5171    2.8737    6.1767 O.2       1 RES1    0.0000
     22 C11        2.5943    3.9682    5.7852 C.3       1 RES1    0.0000
     23 H9         2.6935    4.6311    5.0699 H         1 RES1    0.0000
     24 H10        3.4268    3.4588    5.8750 H         1 RES1    0.0000
     25 H11        2.3971    4.4250    6.6307 H         1 RES1    0.0000
     26 C12        0.5647    0.1170    4.8250 C.3       1 RES1    0.0000
     27 H12        1.4515   -0.3087    4.7126 H         1 RES1    0.0000
     28 H13        0.5003    0.4476    5.7569 H         1 RES1    0.0000
     29 N1        -0.5098   -0.8965    4.5810 N.pl3     1 RES1    0.0000
     30 O4        -1.6605   -0.4960    4.4733 O.2       1 RES1    0.0000
     31 O5        -0.1905   -2.0705    4.5019 O.2       1 RES1    0.0000
@<TRIPOS>BOND
     1    1    2 1
     2    2    3 ar
     3    3    4 1
     4    5    3 ar
     5    6    5 ar
     6    7    6 1
     7    8    6 ar
     8    9    8 1
     9   10    2 ar
    10   11   10 1
    11   12    1 1
    12   13   12 1
    13   14   12 1
    14   15    5 1
    15   16   15 1
    16   17   15 1
    17   18   17 1
    18   19   17 1
    19   20   17 1
    20   21   20 2
    21   22   20 1
    22   23   22 1
    23   24   22 1
    24   25   22 1
    25   26   15 1
    26   27   26 1
    27   28   26 1
    28   29   26 1
    29   30   29 2
    30   31   29 2
    31    8   10 ar
    32   11   12 1
@<TRIPOS>SUBSTRUCTURE
     1 RES1 1

@<TRIPOS>CRYSIN
   5.6021    7.7172   27.4790  90.0000  90.0000  90.0000  19 1

