# MOL2 file generated by ConQuest
# Please check atom types

@<TRIPOS>MOLECULE
HONFAS
    72    74     2
SMALL
NO_CHARGES
****
Generated from CSD

@<TRIPOS>ATOM
      1 O1         1.0608    3.1945    7.0838 O.2       1 RES1    0.0000
      2 O2        -0.5172    4.0382    5.8618 O.2       1 RES1    0.0000
      3 N1        -2.2864    7.5445    7.3587 N.3       1 RES1    0.0000
      4 N2        -0.0159    3.7918    6.9595 N.pl3     1 RES1    0.0000
      5 C1        -4.3319    6.3098    7.8175 C.ar      1 RES1    0.0000
      6 C2        -3.5576    7.0708    6.9224 C.ar      1 RES1    0.0000
      7 C3        -4.0799    7.3516    5.6464 C.ar      1 RES1    0.0000
      8 C4        -5.3423    6.9218    5.2940 C.ar      1 RES1    0.0000
      9 C5        -6.1194    6.2116    6.1771 C.ar      1 RES1    0.0000
     10 C6        -5.6170    5.9080    7.4324 C.ar      1 RES1    0.0000
     11 C7        -3.8287    5.9121    9.1656 C.ar      1 RES1    0.0000
     12 C8        -2.6408    5.1504    9.3153 C.ar      1 RES1    0.0000
     13 C9        -2.2446    4.7699   10.6145 C.ar      1 RES1    0.0000
     14 C10       -2.9856    5.1334   11.7193 C.ar      1 RES1    0.0000
     15 C11       -4.1452    5.8685   11.5696 C.ar      1 RES1    0.0000
     16 C12       -4.5572    6.2580   10.2958 C.ar      1 RES1    0.0000
     17 C13       -1.8840    4.7383    8.1468 C.2       1 RES1    0.0000
     18 C14       -0.6580    4.2151    8.1659 C.2       1 RES1    0.0000
     19 C15       -2.4111    8.6936    8.2872 C.3       1 RES1    0.0000
     20 H1        -2.7354    9.4767    7.7950 H         1 RES1    0.0000
     21 H2        -1.5350    8.8938    8.6795 H         1 RES1    0.0000
     22 H3        -3.0440    8.4701    9.0002 H         1 RES1    0.0000
     23 C16       -1.3143    7.8284    6.3118 C.3       1 RES1    0.0000
     24 H4        -1.2863    7.0801    5.6801 H         1 RES1    0.0000
     25 H5        -0.4288    7.9517    6.7123 H         1 RES1    0.0000
     26 H6        -1.5756    8.6460    5.8386 H         1 RES1    0.0000
     27 O3         4.3558    8.5398    1.9658 O.2       2 RES2    0.0000
     28 O4         2.7865    9.4191    3.1711 O.2       2 RES2    0.0000
     29 N3         1.0010   12.8806    1.7426 N.3       2 RES2    0.0000
     30 N4         3.2735    9.1443    2.0726 N.pl3     2 RES2    0.0000
     31 C17       -1.0385   11.6210    1.2792 C.ar      2 RES2    0.0000
     32 C18       -0.2609   12.3789    2.1810 C.ar      2 RES2    0.0000
     33 C19       -0.7464   12.6237    3.4659 C.ar      2 RES2    0.0000
     34 C20       -1.9934   12.1348    3.8552 C.ar      2 RES2    0.0000
     35 C21       -2.7835   11.4563    2.9562 C.ar      2 RES2    0.0000
     36 C22       -2.3048   11.1954    1.6811 C.ar      2 RES2    0.0000
     37 C23       -0.5496   11.2480   -0.0701 C.ar      2 RES2    0.0000
     38 C24        0.6072   10.4675   -0.2499 C.ar      2 RES2    0.0000
     39 C25        0.9705   10.0556   -1.5464 C.ar      2 RES2    0.0000
     40 C26        0.2228   10.4456   -2.6453 C.ar      2 RES2    0.0000
     41 C27       -0.8862   11.2427   -2.4729 C.ar      2 RES2    0.0000
     42 C28       -1.2800   11.6303   -1.2086 C.ar      2 RES2    0.0000
     43 C29        1.3963   10.0501    0.9123 C.2       2 RES2    0.0000
     44 C30        2.6081    9.5278    0.8687 C.2       2 RES2    0.0000
     45 C31        0.8647   14.0107    0.8018 C.3       2 RES2    0.0000
     46 H7         0.2719   13.7533    0.0649 H         2 RES2    0.0000
     47 H8         1.7465   14.2459    0.4450 H         2 RES2    0.0000
     48 H9         0.4863   14.7829    1.2718 H         2 RES2    0.0000
     49 C32        1.9774   13.1765    2.7793 C.3       2 RES2    0.0000
     50 H10        1.6952   13.9725    3.2769 H         2 RES2    0.0000
     51 H11        2.8520   13.3411    2.3671 H         2 RES2    0.0000
     52 H12        2.0440   12.4150    3.3922 H         2 RES2    0.0000
     53 H13       -3.5520    7.7978    5.0081 H         1 RES1    0.0000
     54 H14       -5.6409    7.1185    4.3596 H         1 RES1    0.0000
     55 H15       -7.0028    5.9814    5.9269 H         1 RES1    0.0000
     56 H16       -6.1898    5.3803    8.1607 H         1 RES1    0.0000
     57 H17       -1.4019    4.1490   10.6828 H         1 RES1    0.0000
     58 H18       -2.6362    4.8825   12.6644 H         1 RES1    0.0000
     59 H19       -4.7148    6.1854   12.3762 H         1 RES1    0.0000
     60 H20       -5.3853    6.7971   10.2144 H         1 RES1    0.0000
     61 H21       -2.2424    4.8250    7.2419 H         1 RES1    0.0000
     62 H22       -0.0811    4.0259    8.9714 H         1 RES1    0.0000
     63 H23       -0.1910   13.1506    4.1254 H         2 RES2    0.0000
     64 H24       -2.3026   12.3910    4.7379 H         2 RES2    0.0000
     65 H25       -3.5977   10.9599    3.1886 H         2 RES2    0.0000
     66 H26       -2.8753   10.6264    1.0088 H         2 RES2    0.0000
     67 H27        1.7718    9.4878   -1.6213 H         2 RES2    0.0000
     68 H28        0.4749   10.1614   -3.6030 H         2 RES2    0.0000
     69 H29       -1.5064   11.5258   -3.2607 H         2 RES2    0.0000
     70 H30       -2.0435   12.1637   -1.0268 H         2 RES2    0.0000
     71 H31        1.0079   10.1410    1.8015 H         2 RES2    0.0000
     72 H32        3.1213    9.4144    0.1081 H         2 RES2    0.0000
@<TRIPOS>BOND
     1    1    4 2
     2    2    4 2
     3    3    6 1
     4    4   18 1
     5    5    6 ar
     6    6    7 ar
     7    7    8 ar
     8    8    9 ar
     9    9   10 ar
    10   10    5 ar
    11   11    5 1
    12   12   11 ar
    13   13   12 ar
    14   14   13 ar
    15   15   14 ar
    16   16   11 ar
    17   17   12 1
    18   18   17 2
    19   19    3 1
    20   20   19 1
    21   21   19 1
    22   22   19 1
    23   23    3 1
    24   24   23 1
    25   25   23 1
    26   26   23 1
    27   27   30 2
    28   28   30 2
    29   29   32 1
    30   30   44 1
    31   31   32 ar
    32   32   33 ar
    33   33   34 ar
    34   34   35 ar
    35   35   36 ar
    36   36   31 ar
    37   37   31 1
    38   38   37 ar
    39   39   38 ar
    40   40   39 ar
    41   41   40 ar
    42   42   37 ar
    43   43   38 1
    44   44   43 2
    45   45   29 1
    46   46   45 1
    47   47   45 1
    48   48   45 1
    49   49   29 1
    50   50   49 1
    51   51   49 1
    52   52   49 1
    53   53    7 1
    54   54    8 1
    55   55    9 1
    56   56   10 1
    57   57   13 1
    58   58   14 1
    59   59   15 1
    60   60   16 1
    61   61   17 1
    62   62   18 1
    63   63   33 1
    64   64   34 1
    65   65   35 1
    66   66   36 1
    67   67   39 1
    68   68   40 1
    69   69   41 1
    70   70   42 1
    71   71   43 1
    72   72   44 1
    73   15   16 ar
    74   41   42 ar
@<TRIPOS>SUBSTRUCTURE
     1 RES1 1
     2 RES2 27

@<TRIPOS>CRYSIN
   8.8510    9.8816   18.2164  92.1632  96.4141 116.4160   2 1

