# MOL2 file generated by ConQuest
# Please check atom types

@<TRIPOS>MOLECULE
HONHOJ
    29    30     1
SMALL
NO_CHARGES
****
Generated from CSD

@<TRIPOS>ATOM
      1 O1         5.0531    9.0805    0.3368 O.2       1 RES1    0.0000
      2 O2         6.7558    8.8486    1.6334 O.2       1 RES1    0.0000
      3 O3         1.1162    2.9461    5.6503 O.2       1 RES1    0.0000
      4 N1         5.6298    8.5470    1.2646 N.pl3     1 RES1    0.0000
      5 C1         4.9396    7.4719    1.9853 C.ar      1 RES1    0.0000
      6 C2         5.5521    6.9089    3.0848 C.ar      1 RES1    0.0000
      7 H1         6.3994    7.1876    3.3482 H         1 RES1    0.0000
      8 C3         4.8915    5.9299    3.7857 C.ar      1 RES1    0.0000
      9 H2         5.2973    5.5393    4.5257 H         1 RES1    0.0000
     10 C4         3.6152    5.5154    3.3956 C.ar      1 RES1    0.0000
     11 C5         2.8382    4.5258    4.1533 C.2       1 RES1    0.0000
     12 H3         1.9592    4.3935    3.8797 H         1 RES1    0.0000
     13 C6         3.2496    3.8031    5.1783 C.2       1 RES1    0.0000
     14 H4         4.1339    3.8595    5.4607 H         1 RES1    0.0000
     15 C7         2.3087    2.9055    5.8784 C.2       1 RES1    0.0000
     16 C8         2.8285    1.9326    6.8807 C.ar      1 RES1    0.0000
     17 C9         1.9394    1.0614    7.4960 C.ar      1 RES1    0.0000
     18 H5         1.0331    1.0955    7.2900 H         1 RES1    0.0000
     19 C10        2.4043    0.1490    8.4109 C.ar      1 RES1    0.0000
     20 H6         1.8208   -0.4425    8.8284 H         1 RES1    0.0000
     21 C11        3.7433    0.1277    8.6962 C.ar      1 RES1    0.0000
     22 H7         4.0520   -0.4938    9.3153 H         1 RES1    0.0000
     23 C12        3.6910    7.0829    1.5564 C.ar      1 RES1    0.0000
     24 H8         3.2979    7.4714    0.8089 H         1 RES1    0.0000
     25 C13        3.0388    6.0978    2.2710 C.ar      1 RES1    0.0000
     26 H9         2.1964    5.8170    1.9942 H         1 RES1    0.0000
     27 C14        4.1625    1.8217    7.2402 C.ar      1 RES1    0.0000
     28 H10        4.7726    2.3923    6.8303 H         1 RES1    0.0000
     29 N2         4.6277    0.9520    8.1323 N.ar      1 RES1    0.0000
@<TRIPOS>BOND
     1    1    4 2
     2    2    4 2
     3    3   15 2
     4    4    5 1
     5    5    6 ar
     6    6    7 1
     7    8    6 ar
     8    9    8 1
     9   10    8 ar
    10   11   10 1
    11   12   11 1
    12   13   11 2
    13   14   13 1
    14   15   13 1
    15   16   15 1
    16   17   16 ar
    17   18   17 1
    18   19   17 ar
    19   20   19 1
    20   21   19 ar
    21   22   21 1
    22   23    5 ar
    23   24   23 1
    24   25   10 ar
    25   26   25 1
    26   27   16 ar
    27   28   27 1
    28   29   21 ar
    29   23   25 ar
    30   27   29 ar
@<TRIPOS>SUBSTRUCTURE
     1 RES1 1

@<TRIPOS>CRYSIN
   6.0420    5.0857   19.4786  90.0000  95.1910  90.0000   4 1

