# MOL2 file generated by ConQuest
# Please check atom types

@<TRIPOS>MOLECULE
HONLOL
    64    68     1
SMALL
NO_CHARGES
****
Generated from CSD

@<TRIPOS>ATOM
      1 O1        12.2162   -0.5395    8.8397 O.3       1 RES1    0.0000
      2 C1         8.8135   -0.6278    9.4876 C.ar      1 RES1    0.0000
      3 O2        13.1016   -2.8268   11.2892 O.3       1 RES1    0.0000
      4 C2         9.5192    0.3249    8.7996 C.ar      1 RES1    0.0000
      5 N1        12.3181   -1.8056   10.6562 N.am      1 RES1    0.0000
      6 O3        13.2319   -2.5481    8.6906 O.2       1 RES1    0.0000
      7 C3        11.3016    0.6769    6.9806 C.3       1 RES1    0.0000
      8 C4         9.4690    1.7469   10.7743 C.ar      1 RES1    0.0000
      9 C5         9.8572    0.1758    7.3066 C.3       1 RES1    0.0000
     10 C6         9.8351    1.5308    9.4812 C.ar      1 RES1    0.0000
     11 C7         8.3811   -0.4212   10.8284 C.ar      1 RES1    0.0000
     12 C8         8.7090    0.7919   11.4809 C.ar      1 RES1    0.0000
     13 C9        12.4015   -0.2857    7.4204 C.3       1 RES1    0.0000
     14 C10       11.5405    0.9847    5.4982 C.3       1 RES1    0.0000
     15 C11       12.6853   -1.6950    9.3257 C.2       1 RES1    0.0000
     16 C12        7.5938   -1.3840   11.5040 C.ar      1 RES1    0.0000
     17 C13       13.7855    0.2995    7.1960 C.3       1 RES1    0.0000
     18 C14        9.6668   -1.2642    6.8248 C.3       1 RES1    0.0000
     19 C15        8.8084    1.0409    6.5688 C.3       1 RES1    0.0000
     20 C16       14.4065   -1.0328   12.2239 C.2       1 RES1    0.0000
     21 C17       13.6322   -0.1174   11.6970 C.2       1 RES1    0.0000
     22 C18       12.9258    1.5660    5.2419 C.3       1 RES1    0.0000
     23 C19       12.2408   -0.5924   11.4894 C.3       1 RES1    0.0000
     24 C20        8.2416    0.9979   12.8058 C.ar      1 RES1    0.0000
     25 C21        7.1435   -1.1412   12.7589 C.ar      1 RES1    0.0000
     26 C22       14.0215    0.6433    5.7342 C.3       1 RES1    0.0000
     27 C23       13.7031   -2.2960   12.5175 C.3       1 RES1    0.0000
     28 C24       11.6346   -1.0154   12.8245 C.3       1 RES1    0.0000
     29 C25       12.5537   -2.0414   13.4737 C.3       1 RES1    0.0000
     30 C26        7.4648    0.0521   13.4125 C.ar      1 RES1    0.0000
     31 C27       15.3873    1.2971    5.5306 C.3       1 RES1    0.0000
     32 H1        12.9984    2.3995    5.7121 H         1 RES1    0.0000
     33 H2        11.4470    1.5147    7.4265 H         1 RES1    0.0000
     34 H3        16.0686    0.6873    5.8253 H         1 RES1    0.0000
     35 H4        10.2382   -1.8462    7.3314 H         1 RES1    0.0000
     36 H5         8.6051   -1.4583    9.0539 H         1 RES1    0.0000
     37 H6        14.0041   -0.1636    5.2143 H         1 RES1    0.0000
     38 H7        11.4531    0.1754    4.9894 H         1 RES1    0.0000
     39 H8        10.3122    2.2177    9.0099 H         1 RES1    0.0000
     40 H9        10.8750    1.6115    5.2046 H         1 RES1    0.0000
     41 H10        7.9235    0.7123    6.7476 H         1 RES1    0.0000
     42 H11        9.0190    0.9536    5.6361 H         1 RES1    0.0000
     43 H12       14.4430   -0.3370    7.4852 H         1 RES1    0.0000
     44 H13        9.7480    2.5508   11.2191 H         1 RES1    0.0000
     45 H14        8.4742    1.8017   13.2759 H         1 RES1    0.0000
     46 H15        9.8771   -1.3515    5.8933 H         1 RES1    0.0000
     47 H16        8.7526   -1.5225    6.9661 H         1 RES1    0.0000
     48 H17        8.8613    1.9593    6.8425 H         1 RES1    0.0000
     49 H18       13.8730    1.0991    7.7203 H         1 RES1    0.0000
     50 H19        7.1309    0.2121   14.2987 H         1 RES1    0.0000
     51 H20        6.6180   -1.8019   13.2158 H         1 RES1    0.0000
     52 H21       13.0400    1.7266    4.3027 H         1 RES1    0.0000
     53 H22       15.3428   -0.9031   12.3917 H         1 RES1    0.0000
     54 H23       11.7004    0.0817   11.1352 H         1 RES1    0.0000
     55 H24       15.4443    2.1040    6.0483 H         1 RES1    0.0000
     56 H25       15.5324    1.5069    4.6046 H         1 RES1    0.0000
     57 H26        7.3745   -2.2121   11.0713 H         1 RES1    0.0000
     58 H27       12.3342   -1.1059    6.9259 H         1 RES1    0.0000
     59 H28       14.3328   -2.9319   12.8618 H         1 RES1    0.0000
     60 H29       13.9368    0.7628   11.4641 H         1 RES1    0.0000
     61 H30       11.5553   -0.2553   13.4051 H         1 RES1    0.0000
     62 H31       10.7644   -1.3907   12.6799 H         1 RES1    0.0000
     63 H32       12.8791   -1.7186   14.3173 H         1 RES1    0.0000
     64 H33       12.0686   -2.8572   13.6173 H         1 RES1    0.0000
@<TRIPOS>BOND
     1    1   13 1
     2    2    4 ar
     3    3    5 1
     4    4    9 1
     5    5   15 1
     6    6   15 2
     7    7    9 1
     8    8   10 ar
     9    9   18 1
    10   10    4 ar
    11   11    2 ar
    12   12    8 ar
    13   13    7 1
    14   14    7 1
    15   15    1 1
    16   16   11 ar
    17   17   13 1
    18   18   35 1
    19   19    9 1
    20   20   21 2
    21   21   23 1
    22   22   14 1
    23   23    5 1
    24   24   12 ar
    25   25   16 ar
    26   26   17 1
    27   27    3 1
    28   28   23 1
    29   29   27 1
    30   30   24 ar
    31   31   26 1
    32   32   22 1
    33   33    7 1
    34   34   31 1
    35   36    2 1
    36   37   26 1
    37   38   14 1
    38   39   10 1
    39   40   14 1
    40   41   19 1
    41   42   19 1
    42   43   17 1
    43   44    8 1
    44   45   24 1
    45   46   18 1
    46   47   18 1
    47   48   19 1
    48   49   17 1
    49   50   30 1
    50   51   25 1
    51   52   22 1
    52   53   20 1
    53   54   23 1
    54   55   31 1
    55   56   31 1
    56   57   16 1
    57   58   13 1
    58   59   27 1
    59   60   21 1
    60   61   28 1
    61   62   28 1
    62   63   29 1
    63   64   29 1
    64   11   12 ar
    65   20   27 1
    66   22   26 1
    67   25   30 ar
    68   28   29 1
@<TRIPOS>SUBSTRUCTURE
     1 RES1 1

@<TRIPOS>CRYSIN
  17.7800    6.0620   11.2920  90.0000 102.2000  90.0000   4 1

