# MOL2 file generated by ConQuest
# Please check atom types

@<TRIPOS>MOLECULE
HONPUV
    32    35     1
SMALL
NO_CHARGES
****
Generated from CSD

@<TRIPOS>ATOM
      1 N1         1.3488    6.4712   17.8930 N.3       1 RES1    0.0000
      2 C1         0.7848    6.2878   19.2502 C.3       1 RES1    0.0000
      3 N2         0.0877    7.4216   19.8134 N.3       1 RES1    0.0000
      4 C2         0.9549    8.5891   19.9715 C.3       1 RES1    0.0000
      5 C3         2.0679    8.1380   20.8980 C.3       1 RES1    0.0000
      6 O1         2.8211    7.0608   20.3418 O.3       1 RES1    0.0000
      7 C4         1.9987    5.9212   20.0957 C.3       1 RES1    0.0000
      8 C5         2.7990    5.0257   19.1770 C.3       1 RES1    0.0000
      9 O2         2.2440    3.7180   19.1970 O.3       1 RES1    0.0000
     10 C6         2.3973    3.1891   17.8704 C.3       1 RES1    0.0000
     11 C7         2.0590    4.3490   16.9586 C.3       1 RES1    0.0000
     12 C8         0.5795    4.6067   16.7931 C.3       1 RES1    0.0000
     13 O3         0.4219    6.0234   16.8922 O.3       1 RES1    0.0000
     14 C9         2.5227    5.5698   17.7740 C.3       1 RES1    0.0000
     15 O4        -0.9531    7.7755   18.8716 O.3       1 RES1    0.0000
     16 C10        0.1880    9.7448   20.5896 C.3       1 RES1    0.0000
     17 H1         0.2208    5.5165   19.2539 H         1 RES1    0.0000
     18 H2         1.2294    8.8113   19.0910 H         1 RES1    0.0000
     19 H3         1.7546    8.0425   21.7842 H         1 RES1    0.0000
     20 H4         2.7035    8.8535   21.0088 H         1 RES1    0.0000
     21 H5         1.8202    5.6095   21.0305 H         1 RES1    0.0000
     22 H6         3.7539    4.9928   19.3733 H         1 RES1    0.0000
     23 H7         3.3242    2.8301   17.7879 H         1 RES1    0.0000
     24 H8         1.9396    2.5260   17.7879 H         1 RES1    0.0000
     25 H9         2.3633    4.2493   16.0938 H         1 RES1    0.0000
     26 H10        0.1910    4.1818   17.4186 H         1 RES1    0.0000
     27 H11        0.2686    4.4183   15.9417 H         1 RES1    0.0000
     28 H12        3.2168    6.0741   17.3969 H         1 RES1    0.0000
     29 H13       -1.6054    7.5610   19.3733 H         1 RES1    0.0000
     30 H14       -0.0656    9.5631   21.4149 H         1 RES1    0.0000
     31 H15       -0.4774    9.9686   19.9598 H         1 RES1    0.0000
     32 H16        0.9012   10.4164   20.6331 H         1 RES1    0.0000
@<TRIPOS>BOND
     1    1    2 1
     2    2    3 1
     3    3    4 1
     4    4    5 1
     5    5    6 1
     6    6    7 1
     7    7    2 1
     8    8    7 1
     9    9    8 1
    10   10    9 1
    11   11   10 1
    12   12   11 1
    13   13    1 1
    14   14    1 1
    15   15    3 1
    16   16    4 1
    17   17    2 1
    18   18    4 1
    19   19    5 1
    20   20    5 1
    21   21    7 1
    22   22    8 1
    23   23   10 1
    24   24   10 1
    25   25   11 1
    26   26   12 1
    27   27   12 1
    28   28   14 1
    29   29   15 1
    30   30   16 1
    31   31   16 1
    32   32   16 1
    33    8   14 1
    34   11   14 1
    35   12   13 1
@<TRIPOS>SUBSTRUCTURE
     1 RES1 1

@<TRIPOS>CRYSIN
   5.9680    8.4480   21.7190  90.0000  90.0000  90.0000  19 1

