# MOL2 file generated by ConQuest
# Please check atom types

@<TRIPOS>MOLECULE
HOPINA
    36    39     1
SMALL
NO_CHARGES
****
Generated from CSD

@<TRIPOS>ATOM
      1 O1        -4.4019    5.7971    4.9135 O.2       1 RES1    0.0000
      2 O2        -4.6346    4.1073    0.5026 O.2       1 RES1    0.0000
      3 N1        -4.8372    4.3076    1.7194 N.pl3     1 RES1    0.0000
      4 C1        -4.2032    5.4479    2.5149 C.3       1 RES1    0.0000
      5 C2        -4.7211    5.1510    3.9003 C.2       1 RES1    0.0000
      6 C3        -5.6711    4.0920    3.8581 C.ar      1 RES1    0.0000
      7 C4        -6.4733    3.5898    4.8884 C.ar      1 RES1    0.0000
      8 C5        -7.3404    2.5621    4.5453 C.ar      1 RES1    0.0000
      9 C6        -7.4109    2.0599    3.2392 C.ar      1 RES1    0.0000
     10 C7        -6.6187    2.5597    2.2200 C.ar      1 RES1    0.0000
     11 C8        -5.7447    3.5918    2.5580 C.ar      1 RES1    0.0000
     12 C9        -2.6658    5.3926    2.5079 C.ar      1 RES1    0.0000
     13 C10       -1.9793    6.3987    3.1900 C.ar      1 RES1    0.0000
     14 C11       -0.5781    6.3617    3.2442 C.ar      1 RES1    0.0000
     15 C12        0.1150    5.3418    2.6102 C.ar      1 RES1    0.0000
     16 C13       -0.5650    4.3547    1.9190 C.ar      1 RES1    0.0000
     17 C14       -1.9647    4.3697    1.8839 C.ar      1 RES1    0.0000
     18 C15       -4.7946    6.7394    1.9712 C.ar      1 RES1    0.0000
     19 C16       -4.2841    7.2735    0.7995 C.ar      1 RES1    0.0000
     20 C17       -4.8941    8.3808    0.2077 C.ar      1 RES1    0.0000
     21 C18       -6.0345    8.9464    0.7925 C.ar      1 RES1    0.0000
     22 C19       -6.5233    8.4124    1.9562 C.ar      1 RES1    0.0000
     23 C20       -5.9158    7.3141    2.5591 C.ar      1 RES1    0.0000
     24 H1        -6.4210    3.9550    5.8685 H         1 RES1    0.0000
     25 H2        -7.9081    2.1391    5.2666 H         1 RES1    0.0000
     26 H3        -8.0414    1.2947    3.0496 H         1 RES1    0.0000
     27 H4        -6.6609    2.2019    1.2840 H         1 RES1    0.0000
     28 H5        -2.5034    7.1692    3.6515 H         1 RES1    0.0000
     29 H6        -0.0930    7.1088    3.7418 H         1 RES1    0.0000
     30 H7         1.1167    5.4599    2.7486 H         1 RES1    0.0000
     31 H8        -0.0498    3.5915    1.4245 H         1 RES1    0.0000
     32 H9        -2.4345    3.6018    1.4145 H         1 RES1    0.0000
     33 H10       -3.4767    6.8365    0.3611 H         1 RES1    0.0000
     34 H11       -4.5280    8.7938   -0.6420 H         1 RES1    0.0000
     35 H12       -6.4718    9.7402    0.3712 H         1 RES1    0.0000
     36 H13       -6.2660    6.9217    3.4107 H         1 RES1    0.0000
@<TRIPOS>BOND
     1    1    5 2
     2    2    3 1
     3    3    4 1
     4    4    5 1
     5    5    6 1
     6    6    7 ar
     7    7    8 ar
     8    8    9 ar
     9    9   10 ar
    10   10   11 ar
    11   11    3 1
    12   12    4 1
    13   13   12 ar
    14   14   13 ar
    15   15   14 ar
    16   16   15 ar
    17   17   12 ar
    18   18    4 1
    19   19   18 ar
    20   20   19 ar
    21   21   20 ar
    22   22   21 ar
    23   23   18 ar
    24   24    7 1
    25   25    8 1
    26   26    9 1
    27   27   10 1
    28   28   13 1
    29   29   14 1
    30   30   15 1
    31   31   16 1
    32   32   17 1
    33   33   19 1
    34   34   20 1
    35   35   21 1
    36   36   23 1
    37    6   11 ar
    38   16   17 ar
    39   22   23 ar
@<TRIPOS>SUBSTRUCTURE
     1 RES1 1

@<TRIPOS>CRYSIN
   9.4400    8.5900   14.8800  54.6000 128.5000 109.1000   2 1

