# MOL2 file generated by ConQuest
# Please check atom types

@<TRIPOS>MOLECULE
HOPINB
    39    42     1
SMALL
NO_CHARGES
****
Generated from CSD

@<TRIPOS>ATOM
      1 O1        -3.3398    6.0384    8.6528 O.2       1 RES1    0.0000
      2 N1        -2.3050    5.8414    7.9145 N.pl3     1 RES1    0.0000
      3 C1        -2.5375    5.1247    6.6320 C.3       1 RES1    0.0000
      4 C2        -1.2895    5.1736    5.7655 C.2       1 RES1    0.0000
      5 C3        -0.1426    5.5676    6.1648 C.2       1 RES1    0.0000
      6 C4         0.0824    6.0663    7.4863 C.ar      1 RES1    0.0000
      7 C5         1.3302    6.4098    7.9246 C.ar      1 RES1    0.0000
      8 C6         1.4947    6.9260    9.1490 C.ar      1 RES1    0.0000
      9 C7         0.4427    7.1387   10.0211 C.ar      1 RES1    0.0000
     10 C8        -0.8786    6.7516    9.6141 C.ar      1 RES1    0.0000
     11 C9        -1.0338    6.2180    8.3617 C.ar      1 RES1    0.0000
     12 C10       -2.9050    3.6949    6.9722 C.ar      1 RES1    0.0000
     13 C11       -4.1162    3.3985    7.5498 C.ar      1 RES1    0.0000
     14 C12       -4.4181    2.0767    7.9301 C.ar      1 RES1    0.0000
     15 C13       -3.4294    1.1020    7.6937 C.ar      1 RES1    0.0000
     16 C14       -2.2772    1.3862    6.9923 C.ar      1 RES1    0.0000
     17 C15       -1.9807    2.6818    6.7045 C.ar      1 RES1    0.0000
     18 C16       -3.6172    5.8798    5.8369 C.ar      1 RES1    0.0000
     19 C17       -4.3946    5.2381    4.9135 C.ar      1 RES1    0.0000
     20 C18       -5.2977    5.9303    4.1206 C.ar      1 RES1    0.0000
     21 C19       -5.4044    7.2991    4.2455 C.ar      1 RES1    0.0000
     22 C20       -4.6232    7.9582    5.1288 C.ar      1 RES1    0.0000
     23 C21       -3.7020    7.2643    5.9295 C.ar      1 RES1    0.0000
     24 H1        -1.3720    4.7254    4.8288 H         1 RES1    0.0000
     25 H2         0.7074    5.5101    5.4979 H         1 RES1    0.0000
     26 H3         2.1966    6.2773    7.3045 H         1 RES1    0.0000
     27 H4         2.4568    7.0445    9.2226 H         1 RES1    0.0000
     28 H5         0.2980    7.3933   11.0181 H         1 RES1    0.0000
     29 H6        -1.5960    6.8004   10.2040 H         1 RES1    0.0000
     30 H7        -4.8152    4.0977    7.6837 H         1 RES1    0.0000
     31 H8        -5.2761    1.5345    8.1855 H         1 RES1    0.0000
     32 H9        -3.3444    0.2092    7.9179 H         1 RES1    0.0000
     33 H10       -1.6514    0.5754    6.7135 H         1 RES1    0.0000
     34 H11       -1.3135    2.9817    6.4235 H         1 RES1    0.0000
     35 H12       -4.3010    4.4290    4.8176 H         1 RES1    0.0000
     36 H13       -5.7859    5.3008    3.3902 H         1 RES1    0.0000
     37 H14       -6.1888    7.7943    3.6578 H         1 RES1    0.0000
     38 H15       -4.6816    8.8754    5.2079 H         1 RES1    0.0000
     39 H16       -2.9818    7.7420    6.5573 H         1 RES1    0.0000
@<TRIPOS>BOND
     1    1    2 1
     2    2    3 1
     3    3    4 1
     4    4    5 2
     5    5    6 1
     6    6    7 ar
     7    7    8 ar
     8    8    9 ar
     9    9   10 ar
    10   10   11 ar
    11   11    2 1
    12   12    3 1
    13   13   12 ar
    14   14   13 ar
    15   15   14 ar
    16   16   15 ar
    17   17   12 ar
    18   18    3 1
    19   19   18 ar
    20   20   19 ar
    21   21   20 ar
    22   22   21 ar
    23   23   18 ar
    24   24    4 1
    25   25    5 1
    26   26    7 1
    27   27    8 1
    28   28    9 1
    29   29   10 1
    30   30   13 1
    31   31   14 1
    32   32   15 1
    33   33   16 1
    34   34   17 1
    35   35   19 1
    36   36   20 1
    37   37   21 1
    38   38   22 1
    39   39   23 1
    40    6   11 ar
    41   16   17 ar
    42   22   23 ar
@<TRIPOS>SUBSTRUCTURE
     1 RES1 1

@<TRIPOS>CRYSIN
   8.2640   17.4370   12.1150  90.0000 113.0000  90.0000  14 1

