# MOL2 file generated by ConQuest
# Please check atom types

@<TRIPOS>MOLECULE
HOPKUT01
    18    18     2
SMALL
NO_CHARGES
****
Generated from CSD

@<TRIPOS>ATOM
      1 O1         4.8751    3.4796    3.8256 O.2       1 RES1    0.0000
      2 O2         3.1213    3.3950    5.1123 O.2       1 RES1    0.0000
      3 N1         3.7743    1.6662    2.1315 N.2       1 RES1    0.0000
      4 N2         2.9231    0.8159    1.6057 N.2       1 RES1    0.0000
      5 N3         1.9140    0.7378    2.4507 N.3       1 RES1    0.0000
      6 N4         2.0358    1.4904    3.5300 N.2       1 RES1    0.0000
      7 N5         3.7816    3.0482    4.1373 N.pl3     1 RES1    0.0000
      8 C1         3.1967    2.0483    3.2762 C.2       1 RES1    0.0000
      9 H1         1.1958    0.2316    2.2700 H         1 RES1    0.0000
     10 O3         0.5668    2.3035    6.4926 O.2       2 RES2    0.0000
     11 O4        -0.2400    0.5758    5.4387 O.2       2 RES2    0.0000
     12 N6         2.6181    0.8261    7.4612 N.2       2 RES2    0.0000
     13 N7         3.2617   -0.2158    7.9474 N.2       2 RES2    0.0000
     14 N8         2.5894   -1.2756    7.5477 N.3       2 RES2    0.0000
     15 N9         1.5288   -1.0151    6.8151 N.2       2 RES2    0.0000
     16 N10        0.5630    1.1193    6.1887 N.pl3     2 RES2    0.0000
     17 C2         1.5798    0.2959    6.7881 C.2       2 RES2    0.0000
     18 H2         2.8116   -2.1085    7.8258 H         2 RES2    0.0000
@<TRIPOS>BOND
     1    1    7 2
     2    2    7 2
     3    3    4 2
     4    4    5 1
     5    5    6 1
     6    6    8 2
     7    7    8 1
     8    8    3 1
     9    9    5 1
    10   10   16 2
    11   11   16 2
    12   12   13 2
    13   13   14 1
    14   14   15 1
    15   15   17 2
    16   16   17 1
    17   17   12 1
    18   18   14 1
@<TRIPOS>SUBSTRUCTURE
     1 RES1 1
     2 RES2 10

@<TRIPOS>CRYSIN
   5.3320    9.4551    8.3027  90.0000 107.0700  90.0000   4 1

