# MOL2 file generated by ConQuest
# Please check atom types

@<TRIPOS>MOLECULE
HOPKUT
    18    18     2
SMALL
NO_CHARGES
****
Generated from CSD

@<TRIPOS>ATOM
      1 N1         3.6477   12.0603    5.4920 N.3       1 RES1    0.0000
      2 N2         2.6407   11.9883    6.3465 N.2       1 RES1    0.0000
      3 N3         1.7921   11.1304    5.8182 N.2       1 RES1    0.0000
      4 N4         3.5335   11.3057    4.4148 N.2       1 RES1    0.0000
      5 H1         4.2712   12.6083    5.6328 H         1 RES1    0.0000
      6 O1         0.6929    9.3182    4.1260 O.2       1 RES1    0.0000
      7 O2         2.4438    9.4012    2.8363 O.2       1 RES1    0.0000
      8 N5         1.7851    9.7483    3.8117 N.pl3     1 RES1    0.0000
      9 C1         2.3759   10.7512    4.6773 C.2       1 RES1    0.0000
     10 N6        -0.0477    7.2371    7.4738 N.2       2 RES2    0.0000
     11 N7        -1.1308    9.0794    6.8310 N.2       2 RES2    0.0000
     12 N8        -0.0632    9.3424    7.5701 N.3       2 RES2    0.0000
     13 N9         0.6060    8.2778    7.9695 N.2       2 RES2    0.0000
     14 H2         0.2324   10.2193    7.8844 H         2 RES2    0.0000
     15 N10       -2.0973    6.9402    6.2080 N.pl3     2 RES2    0.0000
     16 O3        -2.0916    5.7568    6.5072 O.2       2 RES2    0.0000
     17 O4        -2.9036    7.4847    5.4573 O.2       2 RES2    0.0000
     18 C2        -1.0771    7.7602    6.8071 C.2       2 RES2    0.0000
@<TRIPOS>BOND
     1    1    2 1
     2    2    3 2
     3    3    9 1
     4    4    1 1
     5    5    1 1
     6    6    8 2
     7    7    8 2
     8    8    9 1
     9    9    4 2
    10   10   13 2
    11   11   12 1
    12   12   13 1
    13   14   12 1
    14   15   16 2
    15   17   15 2
    16   18   10 1
    17   11   18 2
    18   15   18 1
@<TRIPOS>SUBSTRUCTURE
     1 RES1 1
     2 RES2 10

@<TRIPOS>CRYSIN
   5.3358    9.4799    8.3190  90.0000 106.9890  90.0000   4 1

