# MOL2 file generated by ConQuest
# Please check atom types

@<TRIPOS>MOLECULE
HOPKON
    36    36     3
SMALL
NO_CHARGES
****
Generated from CSD

@<TRIPOS>ATOM
      1 O1         6.7124    1.8994    8.4412 O.2       1 RES1    0.0000
      2 O2         6.5172    1.8605   10.5491 O.2       1 RES1    0.0000
      3 O3         1.5883    1.1462    6.8126 O.2       2 RES2    0.0000
      4 N1         1.1524    1.5218    9.5049 N.3       2 RES2    0.0000
      5 N2         4.6773    5.4487   10.0505 N.2       1 RES1    0.0000
      6 N3        -0.1012    0.7308   13.5960 N.3       3 RES3    0.0000
      7 O4        -0.1850    3.4794   13.4082 O.2       3 RES3    0.0000
      8 N4         1.9452    0.9133   14.3067 N.2       3 RES3    0.0000
      9 N5         6.3654    2.3633    9.4757 N.pl3     1 RES1    0.0000
     10 C1         2.3352    1.5791    8.9318 C.2       2 RES2    0.0000
     11 N6         0.8797    2.9980   13.7158 N.pl3     3 RES3    0.0000
     12 N7         4.8440    5.4186    8.7359 N.2       1 RES1    0.0000
     13 N8         2.5522    1.3685    7.4812 N.pl3     2 RES2    0.0000
     14 N9         2.6587    1.8411   10.9733 N.2       2 RES2    0.0000
     15 O5         1.9073    3.5687   13.9019 O.2       3 RES3    0.0000
     16 N10        0.3309   -0.5037   13.8696 N.2       3 RES3    0.0000
     17 O6         3.6961    1.4122    7.1153 O.2       2 RES2    0.0000
     18 N11        1.3599    1.6820   10.8243 N.2       2 RES2    0.0000
     19 N12        5.4515    4.3151    8.3522 N.2       1 RES1    0.0000
     20 C2         5.6935    3.6347    9.4272 C.2       1 RES1    0.0000
     21 N13        5.2570    4.3112   10.5005 N.3       1 RES1    0.0000
     22 N14        3.2994    1.7460    9.7736 N.2       2 RES2    0.0000
     23 C3         0.9019    1.5558   13.8615 C.2       3 RES3    0.0000
     24 C4        -0.2118    1.4073    8.9480 C.3       2 RES2    0.0000
     25 C5         5.3203    4.0006   11.9527 C.3       1 RES1    0.0000
     26 H1         4.7785    3.2048   12.1405 H         1 RES1    0.0000
     27 H2         4.9726    4.7605   12.4659 H         1 RES1    0.0000
     28 H3         6.2506    3.8298   12.2101 H         1 RES1    0.0000
     29 C6        -1.4607    0.9647   13.1135 C.3       3 RES3    0.0000
     30 H4        -1.9784    1.4257   13.8064 H         3 RES3    0.0000
     31 H5        -1.8851    0.1058   12.9047 H         3 RES3    0.0000
     32 H6        -1.4302    1.5179   12.3057 H         3 RES3    0.0000
     33 N15        1.5509   -0.3843   14.2921 N.2       3 RES3    0.0000
     34 H7        -0.2952    0.4562    8.6128 H         2 RES2    0.0000
     35 H8        -0.3153    2.0284    8.3700 H         2 RES2    0.0000
     36 H9        -0.8350    1.4267    9.5680 H         2 RES2    0.0000
@<TRIPOS>BOND
     1    1    9 2
     2    2    9 2
     3    3   13 2
     4    4   10 1
     5    5   12 2
     6    6   16 1
     7    7   11 2
     8    8   23 2
     9    9   20 1
    10   10   13 1
    11   11   15 2
    12   12   19 1
    13   13   17 2
    14   14   18 2
    15   16   33 2
    16   18    4 1
    17   19   20 2
    18   20   21 1
    19   21    5 1
    20   22   10 2
    21   23    6 1
    22   24    4 1
    23   25   21 1
    24   26   25 1
    25   27   25 1
    26   28   25 1
    27   29    6 1
    28   30   29 1
    29   31   29 1
    30   32   29 1
    31   33    8 1
    32   34   24 1
    33   35   24 1
    34   36   24 1
    35   11   23 1
    36   14   22 1
@<TRIPOS>SUBSTRUCTURE
     1 RES1 1
     2 RES2 3
     3 RES3 6

@<TRIPOS>CRYSIN
  10.0578    9.7055   16.5331  90.0000 101.7010  90.0000 231 1

