# MOL2 file generated by ConQuest
# Please check atom types

@<TRIPOS>MOLECULE
HOQDIC
   172   184     4
SMALL
USER_CHARGES
****
Generated from CSD

@<TRIPOS>ATOM
      1 N1         9.1768    3.6407    6.4915 N.pl3     1 RES1    1.0000
      2 N2         8.5602    1.8099    7.8885 N.3       1 RES1    0.0000
      3 O1         9.0946    4.4629    7.5029 O.2       1 RES1   -1.0000
      4 C1         8.9397    2.3202    6.6586 C.ar      1 RES1    0.0000
      5 C2         9.1269    1.4367    5.5582 C.ar      1 RES1    0.0000
      6 C3         8.9255    0.0620    5.7025 C.ar      1 RES1    0.0000
      7 H1         8.6290   -0.2800    6.5163 H         1 RES1    0.0000
      8 C4         9.1618   -0.7871    4.6519 C.ar      1 RES1    0.0000
      9 H2         9.0487   -1.7032    4.7636 H         1 RES1    0.0000
     10 C5         9.5704   -0.2828    3.4201 C.ar      1 RES1    0.0000
     11 H3         9.7168   -0.8654    2.7111 H         1 RES1    0.0000
     12 C6         9.7573    1.0515    3.2451 C.ar      1 RES1    0.0000
     13 H4        10.0251    1.3772    2.4164 H         1 RES1    0.0000
     14 C7         9.5464    1.9460    4.3218 C.ar      1 RES1    0.0000
     15 C8         9.7265    3.3247    4.1937 C.ar      1 RES1    0.0000
     16 H5         9.9824    3.6726    3.3696 H         1 RES1    0.0000
     17 C9         9.5397    4.1742    5.2395 C.ar      1 RES1    0.0000
     18 C10        9.5777    1.6894    8.9056 C.3       1 RES1    0.0000
     19 H6         9.7388    2.5548    9.3120 H         1 RES1    0.0000
     20 H7        10.4063    1.3818    8.5048 H         1 RES1    0.0000
     21 C11        9.1302    0.7143    9.9552 C.3       1 RES1    0.0000
     22 H8         9.0811   -0.1722    9.5631 H         1 RES1    0.0000
     23 H9         9.7910    0.6886   10.6650 H         1 RES1    0.0000
     24 C12        7.7972    1.0655   10.5394 C.3       1 RES1    0.0000
     25 H10        7.8811    1.8616   11.0878 H         1 RES1    0.0000
     26 H11        7.4898    0.3397   11.1057 H         1 RES1    0.0000
     27 C13        6.7983    1.3098    9.4498 C.3       1 RES1    0.0000
     28 H12        5.9756    1.6458    9.8373 H         1 RES1    0.0000
     29 H13        6.5988    0.4729    9.0019 H         1 RES1    0.0000
     30 C14        7.3188    2.2982    8.4487 C.3       1 RES1    0.0000
     31 H14        6.6665    2.4239    7.7412 H         1 RES1    0.0000
     32 H15        7.4675    3.1539    8.8789 H         1 RES1    0.0000
     33 C15        9.7479    5.6233    5.1367 C.ar      1 RES1    0.0000
     34 C16       10.8906    6.1159    4.5479 C.ar      1 RES1    0.0000
     35 H16       11.5465    5.5204    4.2639 H         1 RES1    0.0000
     36 C17       11.0870    7.4601    4.3698 C.ar      1 RES1    0.0000
     37 H17       11.8672    7.7676    3.9693 H         1 RES1    0.0000
     38 C18       10.1266    8.3518    4.7841 C.ar      1 RES1    0.0000
     39 H18       10.2563    9.2665    4.6739 H         1 RES1    0.0000
     40 C19        8.9693    7.8774    5.3668 C.ar      1 RES1    0.0000
     41 H19        8.3120    8.4769    5.6400 H         1 RES1    0.0000
     42 C20        8.7755    6.5189    5.5490 C.ar      1 RES1    0.0000
     43 H20        7.9946    6.2091    5.9475 H         1 RES1    0.0000
     44 N3        -0.1704   15.9145    4.1958 N.pl3     2 RES2    1.0000
     45 N4        -1.6728   17.5844    3.3955 N.3       2 RES2    0.0000
     46 O2        -1.1396   15.0427    4.2158 O.2       2 RES2   -1.0000
     47 C21       -0.3955   17.1971    3.8429 C.ar      2 RES2    0.0000
     48 C22        0.6358   18.1550    3.9867 C.ar      2 RES2    0.0000
     49 C23        0.4100   19.5139    3.6792 C.ar      2 RES2    0.0000
     50 H21       -0.4081   19.7841    3.3286 H         2 RES2    0.0000
     51 C24        1.3981   20.4286    3.8970 C.ar      2 RES2    0.0000
     52 H22        1.2421   21.3266    3.7156 H         2 RES2    0.0000
     53 C25        2.6416   20.0308    4.3900 C.ar      2 RES2    0.0000
     54 H23        3.3054   20.6655    4.5381 H         2 RES2    0.0000
     55 C26        2.8872   18.7277    4.6516 C.ar      2 RES2    0.0000
     56 H24        3.7254   18.4734    4.9609 H         2 RES2    0.0000
     57 C27        1.8949   17.7565    4.4620 C.ar      2 RES2    0.0000
     58 C28        2.0962   16.3894    4.7321 C.ar      2 RES2    0.0000
     59 H25        2.9360   16.1045    5.0147 H         2 RES2    0.0000
     60 C29        1.1109   15.4772    4.5955 C.ar      2 RES2    0.0000
     61 C30       -2.6602   17.8327    4.4487 C.3       2 RES2    0.0000
     62 H26       -2.2581   18.3655    5.1531 H         2 RES2    0.0000
     63 H27       -2.9441   16.9883    4.8354 H         2 RES2    0.0000
     64 C31       -3.8620   18.5611    3.8834 C.3       2 RES2    0.0000
     65 H28       -4.5288   18.6708    4.5791 H         2 RES2    0.0000
     66 H29       -3.5935   19.4443    3.5849 H         2 RES2    0.0000
     67 C32       -4.4613   17.8034    2.7316 C.3       2 RES2    0.0000
     68 H30       -4.8112   16.9538    3.0442 H         2 RES2    0.0000
     69 H31       -5.1954   18.3127    2.3523 H         2 RES2    0.0000
     70 C33       -3.4181   17.5626    1.6833 C.3       2 RES2    0.0000
     71 H32       -3.1239   18.4114    1.3197 H         2 RES2    0.0000
     72 H33       -3.8017   17.0433    0.9584 H         2 RES2    0.0000
     73 C34       -2.2229   16.8186    2.2598 C.3       2 RES2    0.0000
     74 H34       -2.4973   15.9370    2.5599 H         2 RES2    0.0000
     75 H35       -1.5425   16.7105    1.5759 H         2 RES2    0.0000
     76 C35        1.2637   14.0458    4.8958 C.ar      2 RES2    0.0000
     77 C36        1.7920   13.6572    6.1148 C.ar      2 RES2    0.0000
     78 H36        2.0442   14.3003    6.7367 H         2 RES2    0.0000
     79 C37        1.9469   12.3212    6.4102 C.ar      2 RES2    0.0000
     80 H37        2.2963   12.0669    7.2338 H         2 RES2    0.0000
     81 C38        1.5886   11.3726    5.5024 C.ar      2 RES2    0.0000
     82 H38        1.6825   10.4716    5.7092 H         2 RES2    0.0000
     83 C39        1.0877   11.7506    4.2752 C.ar      2 RES2    0.0000
     84 H39        0.8621   11.1028    3.6489 H         2 RES2    0.0000
     85 C40        0.9183   13.0826    3.9731 C.ar      2 RES2    0.0000
     86 H40        0.5717   13.3317    3.1467 H         2 RES2    0.0000
     87 N5         5.3546    4.2288    3.0414 N.pl3     3 RES3    1.0000
     88 N6         6.0648    2.5878    1.4683 N.3       3 RES3    0.0000
     89 O3         5.4112    5.1497    2.1248 O.2       3 RES3   -1.0000
     90 C41        5.6613    2.9439    2.7518 C.ar      3 RES3    0.0000
     91 C42        5.5350    1.9458    3.7420 C.ar      3 RES3    0.0000
     92 C43        5.8231    0.6009    3.4606 C.ar      3 RES3    0.0000
     93 H41        6.1402    0.3627    2.6188 H         3 RES3    0.0000
     94 C44        5.6425   -0.3540    4.4041 C.ar      3 RES3    0.0000
     95 H42        5.8401   -1.2418    4.2076 H         3 RES3    0.0000
     96 C45        5.1649   -0.0163    5.6618 C.ar      3 RES3    0.0000
     97 H43        5.0263   -0.6840    6.2934 H         3 RES3    0.0000
     98 C46        4.8970    1.2781    5.9816 C.ar      3 RES3    0.0000
     99 H44        4.5892    1.4920    6.8315 H         3 RES3    0.0000
    100 C47        5.0865    2.2908    5.0245 C.ar      3 RES3    0.0000
    101 C48        4.8201    3.6506    5.2797 C.ar      3 RES3    0.0000
    102 H45        4.5460    3.8999    6.1320 H         3 RES3    0.0000
    103 C49        4.9484    4.6071    4.3280 C.ar      3 RES3    0.0000
    104 C50        5.1072    2.7820    0.3915 C.3       3 RES3    0.0000
    105 H46        5.0706    3.7208    0.1486 H         3 RES3    0.0000
    106 H47        4.2236    2.5089    0.6842 H         3 RES3    0.0000
    107 C51        5.5278    1.9642   -0.7967 C.3       3 RES3    0.0000
    108 H48        4.9130    2.1209   -1.5298 H         3 RES3    0.0000
    109 H49        5.4885    1.0215   -0.5689 H         3 RES3    0.0000
    110 C52        6.9247    2.3119   -1.2356 C.3       3 RES3    0.0000
    111 H50        6.9367    3.2136   -1.5939 H         3 RES3    0.0000
    112 H51        7.2058    1.7032   -1.9372 H         3 RES3    0.0000
    113 C53        7.8828    2.2185   -0.0723 C.3       3 RES3    0.0000
    114 H52        7.9728    1.2923    0.1973 H         3 RES3    0.0000
    115 H53        8.7561    2.5387   -0.3459 H         3 RES3    0.0000
    116 C54        7.3910    3.0364    1.0934 C.3       3 RES3    0.0000
    117 H54        7.9968    2.9358    1.8450 H         3 RES3    0.0000
    118 H55        7.3639    3.9756    0.8482 H         3 RES3    0.0000
    119 C55        4.6697    6.0215    4.5845 C.ar      3 RES3    0.0000
    120 C56        3.5156    6.3927    5.2405 C.ar      3 RES3    0.0000
    121 H56        2.9005    5.7408    5.4862 H         3 RES3    0.0000
    122 C57        3.2569    7.7121    5.5406 C.ar      3 RES3    0.0000
    123 H57        2.4753    7.9421    5.9910 H         3 RES3    0.0000
    124 C58        4.1505    8.6835    5.1764 C.ar      3 RES3    0.0000
    125 H58        3.9721    9.5764    5.3607 H         3 RES3    0.0000
    126 C59        5.3056    8.3321    4.5394 C.ar      3 RES3    0.0000
    127 H59        5.9245    8.9888    4.3152 H         3 RES3    0.0000
    128 C60        5.5661    7.0163    4.2240 C.ar      3 RES3    0.0000
    129 H60        6.3456    6.7944    3.7668 H         3 RES3    0.0000
    130 N7        11.1177    5.4311    1.0332 N.pl3     4 RES4    1.0000
    131 N8         9.5984    7.1263    0.3195 N.3       4 RES4    0.0000
    132 O4        10.1574    4.5497    1.0350 O.2       4 RES4   -1.0000
    133 C61       10.8715    6.7189    0.7385 C.ar      4 RES4    0.0000
    134 C62       11.9224    7.6637    0.8674 C.ar      4 RES4    0.0000
    135 C63       11.7264    9.0232    0.5691 C.ar      4 RES4    0.0000
    136 H61       10.8961    9.3170    0.2716 H         4 RES4    0.0000
    137 C64       12.7585    9.9203    0.7144 C.ar      4 RES4    0.0000
    138 H62       12.6195   10.8182    0.5202 H         4 RES4    0.0000
    139 C65       14.0222    9.4887    1.1531 C.ar      4 RES4    0.0000
    140 H63       14.7139   10.1044    1.2428 H         4 RES4    0.0000
    141 C66       14.2417    8.1852    1.4463 C.ar      4 RES4    0.0000
    142 H64       15.0785    7.9099    1.7450 H         4 RES4    0.0000
    143 C67       13.2042    7.2507    1.2999 C.ar      4 RES4    0.0000
    144 C68       13.4084    5.8781    1.5300 C.ar      4 RES4    0.0000
    145 H65       14.2507    5.5824    1.7937 H         4 RES4    0.0000
    146 C69       12.4149    4.9808    1.3776 C.ar      4 RES4    0.0000
    147 C70        9.0453    6.4482   -0.8630 C.3       4 RES4    0.0000
    148 H66        8.7641    5.5526   -0.6227 H         4 RES4    0.0000
    149 H67        9.7298    6.3766   -1.5452 H         4 RES4    0.0000
    150 C71        7.8656    7.2200   -1.4083 C.3       4 RES4    0.0000
    151 H68        8.1640    8.0867   -1.7220 H         4 RES4    0.0000
    152 H69        7.4848    6.7416   -2.1602 H         4 RES4    0.0000
    153 C72        6.8222    7.4027   -0.3534 C.3       4 RES4    0.0000
    154 H70        6.4570    6.5396   -0.1025 H         4 RES4    0.0000
    155 H71        6.0993    7.9467   -0.7021 H         4 RES4    0.0000
    156 C73        7.4133    8.0667    0.8543 C.3       4 RES4    0.0000
    157 H72        6.7409    8.1349    1.5503 H         4 RES4    0.0000
    158 H73        7.6985    8.9658    0.6227 H         4 RES4    0.0000
    159 C74        8.6024    7.2748    1.3737 C.3       4 RES4    0.0000
    160 H74        8.9955    7.7355    2.1320 H         4 RES4    0.0000
    161 H75        8.3083    6.3996    1.6707 H         4 RES4    0.0000
    162 C75       12.6007    3.5280    1.5257 C.ar      4 RES4    0.0000
    163 C76       13.1908    3.0051    2.6609 C.ar      4 RES4    0.0000
    164 H76       13.4181    3.5739    3.3619 H         4 RES4    0.0000
    165 C77       13.4485    1.6600    2.7739 C.ar      4 RES4    0.0000
    166 H77       13.8301    1.3222    3.5516 H         4 RES4    0.0000
    167 C78       13.1414    0.8181    1.7430 C.ar      4 RES4    0.0000
    168 H78       13.3221   -0.0918    1.8168 H         4 RES4    0.0000
    169 C79       12.5658    1.3127    0.5963 C.ar      4 RES4    0.0000
    170 H79       12.3683    0.7391   -0.1076 H         4 RES4    0.0000
    171 C80       12.2780    2.6608    0.4879 C.ar      4 RES4    0.0000
    172 H80       11.8686    2.9886   -0.2793 H         4 RES4    0.0000
@<TRIPOS>BOND
     1    1    3 1
     2    2    4 1
     3    4    1 ar
     4    5    4 ar
     5    6    5 ar
     6    7    6 1
     7    8    6 ar
     8    9    8 1
     9   10    8 ar
    10   11   10 1
    11   12   10 ar
    12   13   12 1
    13   14    5 ar
    14   15   14 ar
    15   16   15 1
    16   17    1 ar
    17   18    2 1
    18   19   18 1
    19   20   18 1
    20   21   18 1
    21   22   21 1
    22   23   21 1
    23   24   21 1
    24   25   24 1
    25   26   24 1
    26   27   24 1
    27   28   27 1
    28   29   27 1
    29   30    2 1
    30   31   30 1
    31   32   30 1
    32   33   17 1
    33   34   33 ar
    34   35   34 1
    35   36   34 ar
    36   37   36 1
    37   38   36 ar
    38   39   38 1
    39   40   38 ar
    40   41   40 1
    41   42   33 ar
    42   43   42 1
    43   44   46 1
    44   45   47 1
    45   47   44 ar
    46   48   47 ar
    47   49   48 ar
    48   50   49 1
    49   51   49 ar
    50   52   51 1
    51   53   51 ar
    52   54   53 1
    53   55   53 ar
    54   56   55 1
    55   57   48 ar
    56   58   57 ar
    57   59   58 1
    58   60   44 ar
    59   61   45 1
    60   62   61 1
    61   63   61 1
    62   64   61 1
    63   65   64 1
    64   66   64 1
    65   67   64 1
    66   68   67 1
    67   69   67 1
    68   70   67 1
    69   71   70 1
    70   72   70 1
    71   73   45 1
    72   74   73 1
    73   75   73 1
    74   76   60 1
    75   77   76 ar
    76   78   77 1
    77   79   77 ar
    78   80   79 1
    79   81   79 ar
    80   82   81 1
    81   83   81 ar
    82   84   83 1
    83   85   76 ar
    84   86   85 1
    85   87   89 1
    86   88   90 1
    87   90   87 ar
    88   91   90 ar
    89   92   91 ar
    90   93   92 1
    91   94   92 ar
    92   95   94 1
    93   96   94 ar
    94   97   96 1
    95   98   96 ar
    96   99   98 1
    97  100   91 ar
    98  101  100 ar
    99  102  101 1
   100  103   87 ar
   101  104   88 1
   102  105  104 1
   103  106  104 1
   104  107  104 1
   105  108  107 1
   106  109  107 1
   107  110  107 1
   108  111  110 1
   109  112  110 1
   110  113  110 1
   111  114  113 1
   112  115  113 1
   113  116   88 1
   114  117  116 1
   115  118  116 1
   116  119  103 1
   117  120  119 ar
   118  121  120 1
   119  122  120 ar
   120  123  122 1
   121  124  122 ar
   122  125  124 1
   123  126  124 ar
   124  127  126 1
   125  128  119 ar
   126  129  128 1
   127  130  132 1
   128  131  133 1
   129  133  130 ar
   130  134  133 ar
   131  135  134 ar
   132  136  135 1
   133  137  135 ar
   134  138  137 1
   135  139  137 ar
   136  140  139 1
   137  141  139 ar
   138  142  141 1
   139  143  134 ar
   140  144  143 ar
   141  145  144 1
   142  146  130 ar
   143  147  131 1
   144  148  147 1
   145  149  147 1
   146  150  147 1
   147  151  150 1
   148  152  150 1
   149  153  150 1
   150  154  153 1
   151  155  153 1
   152  156  153 1
   153  157  156 1
   154  158  156 1
   155  159  131 1
   156  160  159 1
   157  161  159 1
   158  162  146 1
   159  163  162 ar
   160  164  163 1
   161  165  163 ar
   162  166  165 1
   163  167  165 ar
   164  168  167 1
   165  169  167 ar
   166  170  169 1
   167  171  162 ar
   168  172  171 1
   169   12   14 ar
   170   15   17 ar
   171   27   30 1
   172   40   42 ar
   173   55   57 ar
   174   58   60 ar
   175   70   73 1
   176   83   85 ar
   177   98  100 ar
   178  101  103 ar
   179  113  116 1
   180  126  128 ar
   181  141  143 ar
   182  144  146 ar
   183  156  159 1
   184  169  171 ar
@<TRIPOS>SUBSTRUCTURE
     1 RES1 1
     2 RES2 44
     3 RES3 87
     4 RES4 130

@<TRIPOS>CRYSIN
  11.2450   22.9540   26.0710  90.0000 100.6180  90.0000 231 1

