# MOL2 file generated by ConQuest
# Please check atom types

@<TRIPOS>MOLECULE
HOQQUA
    36    39     1
SMALL
NO_CHARGES
****
Generated from CSD

@<TRIPOS>ATOM
      1 C1         7.0040    3.2385   10.7407 C.3       1 RES1    0.0000
      2 H1         7.5452    4.0259   10.9586 H         1 RES1    0.0000
      3 C2         7.7396    2.0113   11.3741 C.3       1 RES1    0.0000
      4 H2         8.6858    2.2479   11.4709 H         1 RES1    0.0000
      5 C3         7.1391    1.8863   12.7911 C.3       1 RES1    0.0000
      6 H3         7.2223    0.9790   13.1217 H         1 RES1    0.0000
      7 H4         7.5845    2.4878   13.4091 H         1 RES1    0.0000
      8 C4         5.6729    2.2712   12.6222 C.3       1 RES1    0.0000
      9 H5         5.1532    1.5089   12.2914 H         1 RES1    0.0000
     10 C5         5.7527    3.3377   11.5850 C.2       1 RES1    0.0000
     11 C6         6.8181    3.2552    9.2368 C.ar      1 RES1    0.0000
     12 C7         5.7351    2.6645    8.6114 C.ar      1 RES1    0.0000
     13 H6         5.0888    2.2304    9.1204 H         1 RES1    0.0000
     14 C8         5.6053    2.7153    7.2294 C.ar      1 RES1    0.0000
     15 H7         4.8719    2.3204    6.8170 H         1 RES1    0.0000
     16 C9         6.5613    3.3502    6.4741 C.ar      1 RES1    0.0000
     17 H8         6.4681    3.3910    5.5494 H         1 RES1    0.0000
     18 C10        7.6395    3.9176    7.0697 C.ar      1 RES1    0.0000
     19 H9         8.2852    4.3425    6.5532 H         1 RES1    0.0000
     20 C11        7.7827    3.8667    8.4482 C.ar      1 RES1    0.0000
     21 H10        8.5324    4.2467    8.8482 H         1 RES1    0.0000
     22 C12        7.6647    0.7407   10.5814 C.3       1 RES1    0.0000
     23 H11        7.9489    0.9157    9.6604 H         1 RES1    0.0000
     24 C13        6.5873   -1.2206   10.3671 C.3       1 RES1    0.0000
     25 H12        6.6030   -1.4314    9.4216 H         1 RES1    0.0000
     26 H13        5.8873   -1.7405   10.7934 H         1 RES1    0.0000
     27 C14        7.9057   -1.5005   10.9919 C.3       1 RES1    0.0000
     28 H14        7.7922   -1.9421   11.8485 H         1 RES1    0.0000
     29 H15        8.4434   -2.0671   10.4171 H         1 RES1    0.0000
     30 C15        4.8890    3.0352   13.6622 C.3       1 RES1    0.0000
     31 H16        4.2804    2.4479   14.1380 H         1 RES1    0.0000
     32 H17        5.4825    3.4585   14.3018 H         1 RES1    0.0000
     33 N1         4.9593    4.3125   11.7216 N.2       1 RES1    0.0000
     34 O1         6.3759    0.1733   10.5716 O.3       1 RES1    0.0000
     35 O2         8.5212   -0.2300   11.1620 O.3       1 RES1    0.0000
     36 O3         4.1576    4.0292   12.8941 O.3       1 RES1    0.0000
@<TRIPOS>BOND
     1    1    2 1
     2    3    1 1
     3    4    3 1
     4    5    3 1
     5    6    5 1
     6    7    5 1
     7    8    5 1
     8    9    8 1
     9   10    1 1
    10   11    1 1
    11   12   11 ar
    12   13   12 1
    13   14   12 ar
    14   15   14 1
    15   16   14 ar
    16   17   16 1
    17   18   16 ar
    18   19   18 1
    19   20   11 ar
    20   21   20 1
    21   22    3 1
    22   23   22 1
    23   24   25 1
    24   26   24 1
    25   27   24 1
    26   28   27 1
    27   29   27 1
    28   30    8 1
    29   31   30 1
    30   32   30 1
    31   33   10 2
    32   34   22 1
    33   35   22 1
    34   36   30 1
    35    8   10 1
    36   18   20 ar
    37   24   34 1
    38   27   35 1
    39   33   36 1
@<TRIPOS>SUBSTRUCTURE
     1 RES1 1

@<TRIPOS>CRYSIN
   5.7133    8.3317   13.9177  90.0000  93.9920  90.0000   4 1

