# MOL2 file generated by ConQuest
# Please check atom types

@<TRIPOS>MOLECULE
HOQVUF
    64    68     2
SMALL
NO_CHARGES
****
Generated from CSD

@<TRIPOS>ATOM
      1 O1         7.6701   -2.6680   12.7563 O.2       1 RES1    0.0000
      2 O2         8.9215   -1.1265   11.9390 O.2       1 RES1    0.0000
      3 O3         6.7233    2.6959    9.6412 O.2       1 RES1    0.0000
      4 O4         4.9582    1.9193    8.6576 O.2       1 RES1    0.0000
      5 O5        11.8092    0.1962   17.2623 O.2       2 RES2    0.0000
      6 O6        13.5706   -0.5891   16.2899 O.2       2 RES2    0.0000
      7 O7        15.8226    3.2083   13.9849 O.2       2 RES2    0.0000
      8 O8        14.5871    4.7800   13.1826 O.2       2 RES2    0.0000
      9 N1         3.2035    1.3558   10.9192 N.pl3     1 RES1    0.0000
     10 N2         3.2388    2.6959   10.7749 N.2       1 RES1    0.0000
     11 N3         1.9868    3.0685   10.6158 N.2       1 RES1    0.0000
     12 N4         7.8352   -1.5908   12.2154 N.pl3     1 RES1    0.0000
     13 N5         5.7693    1.9443    9.5755 N.pl3     1 RES1    0.0000
     14 N6        10.0737    0.7800   14.9951 N.pl3     2 RES2    0.0000
     15 N7        10.1040   -0.5566   15.1191 N.2       2 RES2    0.0000
     16 N8         8.8667   -0.9338   15.2757 N.2       2 RES2    0.0000
     17 N9        12.6215    0.1701   16.3476 N.pl3     2 RES2    0.0000
     18 N10       14.7364    3.6964   13.7204 N.pl3     2 RES2    0.0000
     19 C1         1.9602    0.8886   10.8326 C.2       1 RES1    0.0000
     20 H1         1.6849    0.0023   10.8976 H         1 RES1    0.0000
     21 C2         1.1903    1.9634   10.6324 C.2       1 RES1    0.0000
     22 C3        -0.2793    2.0360   10.4556 C.ar      1 RES1    0.0000
     23 C4        -0.8806    3.1793    9.9180 C.ar      1 RES1    0.0000
     24 H2        -0.3561    3.9025    9.6599 H         1 RES1    0.0000
     25 C5        -2.2550    3.2339    9.7705 C.ar      1 RES1    0.0000
     26 H3        -2.6460    4.0069    9.4334 H         1 RES1    0.0000
     27 C6        -3.0369    2.1904   10.1042 C.ar      1 RES1    0.0000
     28 H4        -3.9577    2.2379    9.9866 H         1 RES1    0.0000
     29 C7        -2.4595    1.0482   10.6228 C.ar      1 RES1    0.0000
     30 H5        -2.9990    0.3262   10.8509 H         1 RES1    0.0000
     31 C8        -1.0837    0.9605   10.8095 C.ar      1 RES1    0.0000
     32 H6        -0.7066    0.1892   11.1673 H         1 RES1    0.0000
     33 C9         4.3844    0.6286   11.2001 C.ar      1 RES1    0.0000
     34 C10        5.6239    0.9420   10.6419 C.ar      1 RES1    0.0000
     35 C11        6.7684    0.2501   10.9941 C.ar      1 RES1    0.0000
     36 H7         7.5988    0.4823   10.6470 H         1 RES1    0.0000
     37 C12        6.6303   -0.8015   11.8831 C.ar      1 RES1    0.0000
     38 C13        5.4218   -1.1718   12.4247 C.ar      1 RES1    0.0000
     39 H8         5.3611   -1.9065   12.9911 H         1 RES1    0.0000
     40 C14        4.3007   -0.4295   12.1091 C.ar      1 RES1    0.0000
     41 H9         3.4858   -0.6349   12.5053 H         1 RES1    0.0000
     42 C15        8.8230    1.2577   15.0949 C.2       2 RES2    0.0000
     43 H10        8.5479    2.1445   15.0465 H         2 RES2    0.0000
     44 C16        8.0572    0.1666   15.2790 C.2       2 RES2    0.0000
     45 C17        6.5926    0.0714   15.4734 C.ar      2 RES2    0.0000
     46 C18        5.7692    1.1381   15.1225 C.ar      2 RES2    0.0000
     47 H11        6.1386    1.9147   14.7681 H         2 RES2    0.0000
     48 C19        4.3966    1.0406   15.3006 C.ar      2 RES2    0.0000
     49 H12        3.8501    1.7522   15.0568 H         2 RES2    0.0000
     50 C20        3.8273   -0.1149   15.8417 C.ar      2 RES2    0.0000
     51 H13        2.9086   -0.1724   15.9713 H         2 RES2    0.0000
     52 C21        4.6362   -1.1515   16.1718 C.ar      2 RES2    0.0000
     53 H14        4.2613   -1.9280   16.5193 H         2 RES2    0.0000
     54 C22        6.0101   -1.0795   16.0042 C.ar      2 RES2    0.0000
     55 H15        6.5457   -1.8003   16.2462 H         2 RES2    0.0000
     56 C23       11.2575    1.5049   14.7180 C.ar      2 RES2    0.0000
     57 C24       12.4991    1.1753   15.2791 C.ar      2 RES2    0.0000
     58 C25       13.6437    1.8566   14.9237 C.ar      2 RES2    0.0000
     59 H16       14.4715    1.6036   15.2625 H         2 RES2    0.0000
     60 C26       13.5316    2.9216   14.0545 C.ar      2 RES2    0.0000
     61 C27       12.3150    3.2989   13.5002 C.ar      2 RES2    0.0000
     62 H17       12.2602    4.0319   12.9306 H         2 RES2    0.0000
     63 C28       11.1909    2.5630   13.8137 C.ar      2 RES2    0.0000
     64 H18       10.3781    2.7760   13.4163 H         2 RES2    0.0000
@<TRIPOS>BOND
     1    1   12 2
     2    2   12 2
     3    3   13 2
     4    4   13 2
     5    5   17 2
     6    6   17 2
     7    7   18 2
     8    8   18 2
     9    9   10 1
    10   10   11 2
    11   11   21 1
    12   12   37 1
    13   13   34 1
    14   14   15 1
    15   15   16 2
    16   16   44 1
    17   17   57 1
    18   18   60 1
    19   19    9 1
    20   20   19 1
    21   21   19 2
    22   22   21 1
    23   23   22 ar
    24   24   23 1
    25   25   23 ar
    26   26   25 1
    27   27   25 ar
    28   28   27 1
    29   29   27 ar
    30   30   29 1
    31   31   22 ar
    32   32   31 1
    33   33    9 1
    34   34   33 ar
    35   35   34 ar
    36   36   35 1
    37   37   35 ar
    38   38   37 ar
    39   39   38 1
    40   40   33 ar
    41   41   40 1
    42   42   14 1
    43   43   42 1
    44   44   42 2
    45   45   44 1
    46   46   45 ar
    47   47   46 1
    48   48   46 ar
    49   49   48 1
    50   50   48 ar
    51   51   50 1
    52   52   50 ar
    53   53   52 1
    54   54   45 ar
    55   55   54 1
    56   56   14 1
    57   57   56 ar
    58   58   57 ar
    59   59   58 1
    60   60   58 ar
    61   61   60 ar
    62   62   61 1
    63   63   56 ar
    64   64   63 1
    65   29   31 ar
    66   38   40 ar
    67   52   54 ar
    68   61   63 ar
@<TRIPOS>SUBSTRUCTURE
     1 RES1 1
     2 RES2 5

@<TRIPOS>CRYSIN
  13.7484    5.8038   17.2869  90.0000  90.1550  90.0000   4 1

