# MOL2 file generated by ConQuest
# Please check atom types

@<TRIPOS>MOLECULE
HOQZUK
    67    68     1
SMALL
NO_CHARGES
****
Generated from CSD

@<TRIPOS>ATOM
      1 C1         1.4141    0.9077   18.0620 C.3       1 RES1    0.0000
      2 H1         1.1116    1.8072   17.8172 H         1 RES1    0.0000
      3 C2         2.0717    0.2493   16.8785 C.3       1 RES1    0.0000
      4 H2         2.2509   -0.6909   17.0892 H         1 RES1    0.0000
      5 C3         3.3594    0.9234   16.4712 C.3       1 RES1    0.0000
      6 H3         3.1655    1.7780   16.0321 H         1 RES1    0.0000
      7 C4         4.2598    1.1477   17.6638 C.3       1 RES1    0.0000
      8 H4         4.6463    0.2986   17.9649 H         1 RES1    0.0000
      9 C5         3.4715    1.8062   18.8017 C.3       1 RES1    0.0000
     10 H5         3.1584    2.6905   18.5193 H         1 RES1    0.0000
     11 C6         0.7209   -0.8128   15.2214 C.2       1 RES1    0.0000
     12 C7        -0.2244   -0.5278   14.1074 C.3       1 RES1    0.0000
     13 H6         0.2509   -0.1171   13.3817 H         1 RES1    0.0000
     14 H7        -0.9128    0.0661   14.4154 H         1 RES1    0.0000
     15 H8        -0.6214   -1.3482   13.8066 H         1 RES1    0.0000
     16 C8         4.5883    0.5040   14.4475 C.2       1 RES1    0.0000
     17 C9         5.1674   -0.5815   13.6356 C.3       1 RES1    0.0000
     18 H9         5.1125   -0.3495   12.7055 H         1 RES1    0.0000
     19 H10        4.6797   -1.3932   13.7910 H         1 RES1    0.0000
     20 H11        6.0871   -0.7083   13.8791 H         1 RES1    0.0000
     21 C10        6.5038    1.5986   16.9552 C.2       1 RES1    0.0000
     22 C11        7.4274    2.6705   16.6181 C.3       1 RES1    0.0000
     23 H12        8.2313    2.2960   16.2497 H         1 RES1    0.0000
     24 H13        7.6407    3.1701   17.4104 H         1 RES1    0.0000
     25 H14        7.0206    3.2530   15.9725 H         1 RES1    0.0000
     26 C12        4.2914    1.9373   20.0476 C.3       1 RES1    0.0000
     27 H15        4.3449    1.0854   20.5091 H         1 RES1    0.0000
     28 H16        5.1909    2.2299   19.8303 H         1 RES1    0.0000
     29 C13        4.0100    3.0010   22.1390 C.2       1 RES1    0.0000
     30 C14        3.2910    4.0577   22.8724 C.3       1 RES1    0.0000
     31 H17        3.4650    3.9694   23.8124 H         1 RES1    0.0000
     32 H18        2.3489    3.9738   22.7113 H         1 RES1    0.0000
     33 H19        3.5912    4.9183   22.5714 H         1 RES1    0.0000
     34 C15        0.2514    0.1003   18.5830 C.3       1 RES1    0.0000
     35 H20        0.5667   -0.7793   18.8432 H         1 RES1    0.0000
     36 H21       -0.3984   -0.0146   17.8716 H         1 RES1    0.0000
     37 C16       -0.4241    0.7576   19.7746 C.2       1 RES1    0.0000
     38 C17       -0.6197   -0.0981   20.9661 C.3       1 RES1    0.0000
     39 H22        0.2520   -0.3333   21.3200 H         1 RES1    0.0000
     40 H23       -1.0510   -0.9207   20.6852 H         1 RES1    0.0000
     41 C18       -1.4412    0.5170   22.0830 C.3       1 RES1    0.0000
     42 H24       -1.2175    1.4658   22.1802 H         1 RES1    0.0000
     43 C19       -1.1680   -0.2141   23.3782 C.ar      1 RES1    0.0000
     44 C20       -2.0074   -1.2621   23.7207 C.ar      1 RES1    0.0000
     45 H25       -2.7246   -1.4572   23.1621 H         1 RES1    0.0000
     46 C21       -1.8313   -2.0207   24.8420 C.ar      1 RES1    0.0000
     47 H26       -2.4148   -2.7225   25.0223 H         1 RES1    0.0000
     48 C22       -0.8310   -1.7606   25.6780 C.ar      1 RES1    0.0000
     49 H27       -0.7206   -2.2814   26.4421 H         1 RES1    0.0000
     50 C23        0.0269   -0.7484   25.4288 C.ar      1 RES1    0.0000
     51 H28        0.7200   -0.5609   26.0198 H         1 RES1    0.0000
     52 C24       -0.1454    0.0201   24.2593 C.ar      1 RES1    0.0000
     53 N1         0.8326    1.0524   24.0272 N.pl3     1 RES1    0.0000
     54 O1         2.3628    0.9868   19.1212 O.3       1 RES1    0.0000
     55 O2         1.1684    0.3241   15.7608 O.3       1 RES1    0.0000
     56 O3         1.0356   -1.8929   15.5937 O.2       1 RES1    0.0000
     57 O4         3.9856    0.0190   15.5344 O.3       1 RES1    0.0000
     58 O5         4.6595    1.6577   14.1991 O.2       1 RES1    0.0000
     59 O6         6.7506    0.4368   16.9244 O.2       1 RES1    0.0000
     60 O7         5.2968    2.0706   17.3128 O.3       1 RES1    0.0000
     61 O8         3.6311    2.9143   20.8752 O.3       1 RES1    0.0000
     62 O9         4.8343    2.2819   22.6157 O.2       1 RES1    0.0000
     63 O10       -0.7555    1.9216   19.7165 O.2       1 RES1    0.0000
     64 O11       -2.7920    0.3782   21.6949 O.3       1 RES1    0.0000
     65 H29       -3.2427    0.9565   22.0610 H         1 RES1    0.0000
     66 O12        0.9613    1.4924   22.9349 O.2       1 RES1    0.0000
     67 O13        1.4858    1.4528   24.9749 O.2       1 RES1    0.0000
@<TRIPOS>BOND
     1    1    2 1
     2    3    1 1
     3    4    3 1
     4    5    3 1
     5    6    5 1
     6    7    5 1
     7    8    7 1
     8    9    7 1
     9   10    9 1
    10   11   12 1
    11   12   13 1
    12   14   12 1
    13   15   12 1
    14   16   17 1
    15   17   18 1
    16   19   17 1
    17   20   17 1
    18   21   22 1
    19   22   23 1
    20   24   22 1
    21   25   22 1
    22   26    9 1
    23   27   26 1
    24   28   26 1
    25   29   30 1
    26   30   31 1
    27   32   30 1
    28   33   30 1
    29   34    1 1
    30   35   34 1
    31   36   34 1
    32   37   34 1
    33   38   37 1
    34   39   38 1
    35   40   38 1
    36   41   38 1
    37   42   41 1
    38   43   41 1
    39   44   43 ar
    40   45   44 1
    41   46   44 ar
    42   47   46 1
    43   48   46 ar
    44   49   48 1
    45   50   48 ar
    46   51   50 1
    47   52   43 ar
    48   53   52 1
    49   54    1 1
    50   55    3 1
    51   56   11 2
    52   57    5 1
    53   58   16 2
    54   59   21 2
    55   60    7 1
    56   61   26 1
    57   62   29 2
    58   63   37 2
    59   64   41 1
    60   65   64 1
    61   66   53 2
    62   67   53 2
    63    9   54 1
    64   11   55 1
    65   16   57 1
    66   21   60 1
    67   29   61 1
    68   50   52 ar
@<TRIPOS>SUBSTRUCTURE
     1 RES1 1

@<TRIPOS>CRYSIN
   9.5230    5.4190   26.0340  90.0000  95.6310  90.0000   4 1

