# MOL2 file generated by ConQuest
# Please check atom types

@<TRIPOS>MOLECULE
HOSDOK
    44    47     1
SMALL
NO_CHARGES
****
Generated from CSD

@<TRIPOS>ATOM
      1 O1         4.0575    4.4676    7.3779 O.3       1 RES1    0.0000
      2 N1         5.3738    2.5653    7.2183 N.3       1 RES1    0.0000
      3 C1         4.8257    1.7575    8.2273 C.ar      1 RES1    0.0000
      4 C2         4.9037    2.4099    9.4567 C.ar      1 RES1    0.0000
      5 C3         3.8718    5.8054    7.2577 C.ar      1 RES1    0.0000
      6 C4         5.5419    3.7699    9.2575 C.3       1 RES1    0.0000
      7 C5         5.4004    3.9346    7.6948 C.3       1 RES1    0.0000
      8 C6         2.5442    6.2201    7.0943 C.ar      1 RES1    0.0000
      9 H1         1.8877    5.5566    7.0450 H         1 RES1    0.0000
     10 C7         4.4808    1.7745   10.6092 C.ar      1 RES1    0.0000
     11 H2         4.6033    2.1972   11.4940 H         1 RES1    0.0000
     12 C8         4.9218    6.7371    7.3042 C.ar      1 RES1    0.0000
     13 O2         3.8561   10.6903    7.4975 O.2       1 RES1    0.0000
     14 N2         2.9580    9.9016    7.2185 N.pl3     1 RES1    0.0000
     15 C9         4.2999    0.4807    8.1146 C.ar      1 RES1    0.0000
     16 H3         4.1747    0.0297    7.2177 H         1 RES1    0.0000
     17 C10        2.2395    7.5638    7.0518 C.ar      1 RES1    0.0000
     18 H4         1.3437    7.8173    6.9650 H         1 RES1    0.0000
     19 C11        4.6005    8.0887    7.2783 C.ar      1 RES1    0.0000
     20 H5         5.3510    8.7105    7.3967 H         1 RES1    0.0000
     21 C12        3.8567   -0.1423    9.2849 C.ar      1 RES1    0.0000
     22 H6         3.4271   -1.0554    9.2074 H         1 RES1    0.0000
     23 C13        3.2735    8.4803    7.1709 C.ar      1 RES1    0.0000
     24 C14        6.3473    6.2574    7.3922 C.3       1 RES1    0.0000
     25 H7         6.9005    6.7890    6.8155 H         1 RES1    0.0000
     26 H8         6.6483    6.3498    8.2999 H         1 RES1    0.0000
     27 C15        3.9505    0.4911   10.5177 C.ar      1 RES1    0.0000
     28 H9         3.5379   -0.0919   11.2813 H         1 RES1    0.0000
     29 C16        4.8484    4.8505   10.0934 C.3       1 RES1    0.0000
     30 H10        5.2774    5.6958    9.9422 H         1 RES1    0.0000
     31 H11        4.9087    4.6228   11.0245 H         1 RES1    0.0000
     32 H12        3.9247    4.9093    9.8369 H         1 RES1    0.0000
     33 C17        4.9918    2.2868    5.8411 C.3       1 RES1    0.0000
     34 H13        5.3193    1.3689    5.6028 H         1 RES1    0.0000
     35 H14        4.0378    2.3324    5.7038 H         1 RES1    0.0000
     36 H15        5.4516    2.9040    5.2217 H         1 RES1    0.0000
     37 C18        6.4439    4.7881    6.9831 C.3       1 RES1    0.0000
     38 H16        7.2873    4.4053    7.1250 H         1 RES1    0.0000
     39 H17        6.2569    4.7350    6.0639 H         1 RES1    0.0000
     40 O3         1.8032   10.2554    6.9846 O.2       1 RES1    0.0000
     41 C19        7.0270    3.6703    9.6533 C.3       1 RES1    0.0000
     42 H18        7.4479    4.5255    9.5359 H         1 RES1    0.0000
     43 H19        7.4615    3.0202    9.0958 H         1 RES1    0.0000
     44 H20        7.0984    3.4026   10.5718 H         1 RES1    0.0000
@<TRIPOS>BOND
     1    1    5 1
     2    2    3 1
     3    3    4 ar
     4    4    6 1
     5    5    8 ar
     6    6    7 1
     7    7    1 1
     8    8    9 1
     9   10    4 ar
    10   11   10 1
    11   12    5 ar
    12   13   14 2
    13   14   23 1
    14   15    3 ar
    15   16   15 1
    16   17    8 ar
    17   18   17 1
    18   19   12 ar
    19   20   19 1
    20   21   15 ar
    21   22   21 1
    22   23   17 ar
    23   24   12 1
    24   25   24 1
    25   26   24 1
    26   27   10 ar
    27   28   27 1
    28   29    6 1
    29   30   29 1
    30   31   29 1
    31   32   29 1
    32   33    2 1
    33   34   33 1
    34   35   33 1
    35   36   33 1
    36   37    7 1
    37   38   37 1
    38   39   37 1
    39   40   14 2
    40   41    6 1
    41   42   41 1
    42   43   41 1
    43   44   41 1
    44    2    7 1
    45   19   23 ar
    46   21   27 ar
    47   24   37 1
@<TRIPOS>SUBSTRUCTURE
     1 RES1 1

@<TRIPOS>CRYSIN
  11.3104   13.5131   21.0551  90.0000  90.0000  90.0000  60 5

