# MOL2 file generated by ConQuest
# Please check atom types

@<TRIPOS>MOLECULE
HOSPAG
    51    52     1
SMALL
NO_CHARGES
****
Generated from CSD

@<TRIPOS>ATOM
      1 O1         0.7566    9.8733    1.7665 O.3       1 RES1    0.0000
      2 O2        -0.6913   12.2705    2.4525 O.3       1 RES1    0.0000
      3 O3        -0.0157   14.7257    3.7845 O.3       1 RES1    0.0000
      4 O4        -0.1160   13.9939    5.8686 O.2       1 RES1    0.0000
      5 O5         4.1008    9.5484    5.5250 O.2       1 RES1    0.0000
      6 O6         4.2673   11.6768    6.1662 O.3       1 RES1    0.0000
      7 O7         3.9149    9.0480    2.4962 O.2       1 RES1    0.0000
      8 O8         2.3430    8.0018    3.7042 O.3       1 RES1    0.0000
      9 O9         2.7390    1.6193    0.6152 O.2       1 RES1    0.0000
     10 O10        3.9199    2.0081    2.3309 O.2       1 RES1    0.0000
     11 O11        0.7630    7.2887   -0.8620 O.2       1 RES1    0.0000
     12 O12        0.7260    5.3425   -1.7216 O.2       1 RES1    0.0000
     13 N1         1.9510   12.2505    4.9500 N.ar      1 RES1    0.0000
     14 N2         3.1887    2.3704    1.4583 N.pl3     1 RES1    0.0000
     15 N3         1.0258    6.1177   -0.8431 N.pl3     1 RES1    0.0000
     16 C1         1.1103   10.7080    2.7808 C.ar      1 RES1    0.0000
     17 C2         0.4118   11.8632    3.1398 C.ar      1 RES1    0.0000
     18 C3         0.8917   12.6026    4.2190 C.ar      1 RES1    0.0000
     19 C4         2.5806   11.1243    4.6205 C.ar      1 RES1    0.0000
     20 C5         2.1985   10.3215    3.5495 C.ar      1 RES1    0.0000
     21 C6         0.5230   10.4303    0.4759 C.3       1 RES1    0.0000
     22 C7        -1.8743   11.5995    2.7525 C.3       1 RES1    0.0000
     23 C8         0.1858   13.8401    4.7244 C.2       1 RES1    0.0000
     24 C9        -0.7240   15.9237    4.1824 C.3       1 RES1    0.0000
     25 C10        3.7243   10.6867    5.4766 C.2       1 RES1    0.0000
     26 C11        5.3510   11.3014    7.0388 C.3       1 RES1    0.0000
     27 C12        2.9392    9.0761    3.1835 C.2       1 RES1    0.0000
     28 C13        3.0936    6.7705    3.6499 C.3       1 RES1    0.0000
     29 C14        2.7307    5.9224    2.4655 C.ar      1 RES1    0.0000
     30 C15        3.1193    4.5903    2.4809 C.ar      1 RES1    0.0000
     31 C16        2.7947    3.7794    1.4063 C.ar      1 RES1    0.0000
     32 C17        2.1148    4.2394    0.3141 C.ar      1 RES1    0.0000
     33 C18        1.7501    5.5625    0.3224 C.ar      1 RES1    0.0000
     34 C19        2.0288    6.4077    1.3756 C.ar      1 RES1    0.0000
     35 H1         0.6512    9.7523   -0.1913 H         1 RES1    0.0000
     36 H2         1.1389   11.1501    0.3224 H         1 RES1    0.0000
     37 H3        -0.3771   10.7623    0.4275 H         1 RES1    0.0000
     38 H4        -2.5001   11.7164    2.0345 H         1 RES1    0.0000
     39 H5        -2.2477   11.9535    3.5625 H         1 RES1    0.0000
     40 H6        -1.6898   10.6635    2.8694 H         1 RES1    0.0000
     41 H7        -0.8218   16.5054    3.4243 H         1 RES1    0.0000
     42 H8        -0.2284   16.3741    4.8697 H         1 RES1    0.0000
     43 H9        -1.5924   15.6877    4.5166 H         1 RES1    0.0000
     44 H10        5.7496   12.0913    7.4096 H         1 RES1    0.0000
     45 H11        6.0107   10.8144    6.5405 H         1 RES1    0.0000
     46 H12        5.0140   10.7491    7.7485 H         1 RES1    0.0000
     47 H13        2.9338    6.2657    4.4623 H         1 RES1    0.0000
     48 H14        4.0408    6.9788    3.6109 H         1 RES1    0.0000
     49 H15        3.3610    4.2465    3.2035 H         1 RES1    0.0000
     50 H16        1.9091    3.6812   -0.4003 H         1 RES1    0.0000
     51 H17        1.7472    7.2931    1.3532 H         1 RES1    0.0000
@<TRIPOS>BOND
     1    1   16 1
     2    2   17 1
     3    3   23 1
     4    4   23 2
     5    5   25 2
     6    6   25 1
     7    7   27 2
     8    8   27 1
     9    9   14 2
    10   10   14 2
    11   11   15 2
    12   12   15 2
    13   13   18 ar
    14   14   31 1
    15   15   33 1
    16   16   17 ar
    17   17   18 ar
    18   18   23 1
    19   19   13 ar
    20   20   16 ar
    21   21    1 1
    22   22    2 1
    23   24    3 1
    24   25   19 1
    25   26    6 1
    26   27   20 1
    27   28    8 1
    28   29   28 1
    29   30   29 ar
    30   31   30 ar
    31   32   31 ar
    32   33   32 ar
    33   34   29 ar
    34   35   21 1
    35   36   21 1
    36   37   21 1
    37   38   22 1
    38   39   22 1
    39   40   22 1
    40   41   24 1
    41   42   24 1
    42   43   24 1
    43   44   26 1
    44   45   26 1
    45   46   26 1
    46   47   28 1
    47   48   28 1
    48   49   30 1
    49   50   32 1
    50   51   34 1
    51   19   20 ar
    52   33   34 ar
@<TRIPOS>SUBSTRUCTURE
     1 RES1 1

@<TRIPOS>CRYSIN
   7.7160   11.9830   13.0120 112.6400  98.3600  93.3600   2 1

