# MOL2 file generated by ConQuest
# Please check atom types

@<TRIPOS>MOLECULE
HOSSIR
    54    56     1
SMALL
NO_CHARGES
****
Generated from CSD

@<TRIPOS>ATOM
      1 O1         4.1048    6.9597    4.6271 O.3       1 RES1    0.0000
      2 N1         2.7807    7.1319    4.1129 N.2       1 RES1    0.0000
      3 C1         2.6035    8.3678    3.8368 C.2       1 RES1    0.0000
      4 C2         3.7646    9.2435    4.1603 C.3       1 RES1    0.0000
      5 C3         4.8371    8.2215    4.5086 C.3       1 RES1    0.0000
      6 C4         5.7716    7.9877    3.3083 C.2       1 RES1    0.0000
      7 O2         6.7828    7.1946    3.6184 O.3       1 RES1    0.0000
      8 O3         5.5657    8.4235    2.2203 O.2       1 RES1    0.0000
      9 C5         7.6797    6.8214    2.5479 C.3       1 RES1    0.0000
     10 C6         5.6183    8.5220    5.8088 C.3       1 RES1    0.0000
     11 C7         4.9072    8.0742    7.0709 C.3       1 RES1    0.0000
     12 O4         5.9784    9.8943    5.8284 O.3       1 RES1    0.0000
     13 C8         5.6269    8.4663    8.3681 C.3       1 RES1    0.0000
     14 O5         4.6393    9.0355    9.1789 O.3       1 RES1    0.0000
     15 C9         3.3735    8.8365    8.5947 C.3       1 RES1    0.0000
     16 C10        2.5443   10.0525    8.8420 C.3       1 RES1    0.0000
     17 C11        2.7331    7.5767    9.0975 C.3       1 RES1    0.0000
     18 O6         3.6472    8.7360    7.1956 O.3       1 RES1    0.0000
     19 C12        1.1977    9.2375    1.9658 C.ar      1 RES1    0.0000
     20 C13        0.0659    9.9301    1.5454 C.ar      1 RES1    0.0000
     21 C14       -0.9230   10.3281    2.4325 C.ar      1 RES1    0.0000
     22 C15       -0.7905    9.9749    3.7730 C.ar      1 RES1    0.0000
     23 C16        0.3100    9.2644    4.2325 C.ar      1 RES1    0.0000
     24 C17        1.3256    8.9251    3.3258 C.ar      1 RES1    0.0000
     25 C18        2.2556    8.8305    0.9705 C.3       1 RES1    0.0000
     26 C19       -2.1125   11.1143    1.9617 C.3       1 RES1    0.0000
     27 C20        0.4036    8.8823    5.6800 C.3       1 RES1    0.0000
     28 H1         3.5099    9.7788    4.8980 H         1 RES1    0.0000
     29 H2         4.0053    9.8595    3.4144 H         1 RES1    0.0000
     30 H3         8.5161    6.5358    2.9570 H         1 RES1    0.0000
     31 H4         7.2384    6.3477    1.9802 H         1 RES1    0.0000
     32 H5         7.9494    7.5608    2.0760 H         1 RES1    0.0000
     33 H6         6.4927    7.9499    5.7882 H         1 RES1    0.0000
     34 H7         4.7901    7.0801    7.0235 H         1 RES1    0.0000
     35 H8         5.2337   10.4277    6.1334 H         1 RES1    0.0000
     36 H9         6.4104    9.2803    8.2547 H         1 RES1    0.0000
     37 H10        5.9932    7.7508    8.8544 H         1 RES1    0.0000
     38 H11        2.9490   10.8098    8.4938 H         1 RES1    0.0000
     39 H12        1.6801    9.9182    8.3310 H         1 RES1    0.0000
     40 H13        2.4106   10.1550    9.8342 H         1 RES1    0.0000
     41 H14        3.6331    6.8970    8.8647 H         1 RES1    0.0000
     42 H15        2.5245    7.6513    9.9846 H         1 RES1    0.0000
     43 H16        1.9424    7.5478    8.6184 H         1 RES1    0.0000
     44 H17       -0.0290   10.2057    0.6048 H         1 RES1    0.0000
     45 H18       -1.5066   10.2734    4.3571 H         1 RES1    0.0000
     46 H19        2.0439    9.3042    0.1782 H         1 RES1    0.0000
     47 H20        3.1797    9.1042    1.2528 H         1 RES1    0.0000
     48 H21        2.2957    7.9230    0.7573 H         1 RES1    0.0000
     49 H22       -2.4092   10.8167    1.1611 H         1 RES1    0.0000
     50 H23       -2.8663   11.0675    2.4789 H         1 RES1    0.0000
     51 H24       -1.8083   12.2377    2.0740 H         1 RES1    0.0000
     52 H25       -0.4133    9.1101    6.1828 H         1 RES1    0.0000
     53 H26        0.5050    7.9100    5.7697 H         1 RES1    0.0000
     54 H27        1.2684    8.9798    6.0365 H         1 RES1    0.0000
@<TRIPOS>BOND
     1    1    2 1
     2    2    3 2
     3    3    4 1
     4    4    5 1
     5    5    1 1
     6    6    5 1
     7    7    6 1
     8    8    6 2
     9    9    7 1
    10   10    5 1
    11   11   10 1
    12   12   10 1
    13   13   11 1
    14   14   13 1
    15   15   14 1
    16   16   15 1
    17   17   15 1
    18   18   11 1
    19   19   20 ar
    20   20   21 ar
    21   21   22 ar
    22   22   23 ar
    23   23   24 ar
    24   24    3 1
    25   25   19 1
    26   26   21 1
    27   27   23 1
    28   28    4 1
    29   29    4 1
    30   30    9 1
    31   31    9 1
    32   32    9 1
    33   33   10 1
    34   34   11 1
    35   35   12 1
    36   36   13 1
    37   37   13 1
    38   38   16 1
    39   39   16 1
    40   40   16 1
    41   41   17 1
    42   42   17 1
    43   43   17 1
    44   44   20 1
    45   45   22 1
    46   46   25 1
    47   47   25 1
    48   48   25 1
    49   49   26 1
    50   50   26 1
    51   51   26 1
    52   52   27 1
    53   53   27 1
    54   54   27 1
    55   15   18 1
    56   19   24 ar
@<TRIPOS>SUBSTRUCTURE
     1 RES1 1

@<TRIPOS>CRYSIN
   9.5980    9.9510   10.7070  90.0000 105.7900  90.0000   4 1

