# MOL2 file generated by ConQuest
# Please check atom types

@<TRIPOS>MOLECULE
HOTCUQ
   126   123     2
SMALL
NO_CHARGES
****
Generated from CSD

@<TRIPOS>ATOM
      1 O1        10.8261    4.1502   11.5048 O.2       1 RES1    0.0000
      2 O2         5.5893   10.0768    9.1124 O.2       1 RES1    0.0000
      3 O3         2.6078    9.3885    5.3620 O.2       1 RES1    0.0000
      4 O4         0.7203   10.4163    5.4295 O.2       1 RES1    0.0000
      5 N1         9.5301    4.7994    9.7650 N.am      1 RES1    0.0000
      6 N2         6.2283    8.6875    7.4017 N.am      1 RES1    0.0000
      7 H1         6.1868    8.6400    6.5580 H         1 RES1    0.0000
      8 N3         4.4766   10.1020    7.0851 N.am      1 RES1    0.0000
      9 H2         4.1940    9.6302    6.3034 H         1 RES1    0.0000
     10 N4         1.9013   10.3429    5.7212 N.pl3     1 RES1    0.0000
     11 C1        11.1302    7.3457   10.0758 C.ar      1 RES1    0.0000
     12 H3        11.1390    7.0532    9.1716 H         1 RES1    0.0000
     13 C2        10.6953    6.4916   11.0764 C.ar      1 RES1    0.0000
     14 C3        10.3424    5.0584   10.8039 C.2       1 RES1    0.0000
     15 C4         9.2999    3.4045    9.3835 C.3       1 RES1    0.0000
     16 H4        10.0327    2.8487    9.7221 H         1 RES1    0.0000
     17 H5         9.2634    3.3362    8.4064 H         1 RES1    0.0000
     18 H6         8.4526    3.0975    9.7648 H         1 RES1    0.0000
     19 C5         8.6926    5.8104    9.1826 C.ar      1 RES1    0.0000
     20 C6         8.7741    6.0775    7.8159 C.ar      1 RES1    0.0000
     21 H7         9.3746    5.5857    7.2668 H         1 RES1    0.0000
     22 C7         7.9767    7.0623    7.2641 C.ar      1 RES1    0.0000
     23 H8         8.0395    7.2512    6.3351 H         1 RES1    0.0000
     24 C8         7.0760    7.7844    8.0623 C.ar      1 RES1    0.0000
     25 C9         6.9983    7.5125    9.4248 C.ar      1 RES1    0.0000
     26 H9         6.4022    8.0028    9.9781 H         1 RES1    0.0000
     27 C10        7.7987    6.5167    9.9698 C.ar      1 RES1    0.0000
     28 H10        7.7325    6.3169   10.8961 H         1 RES1    0.0000
     29 C11        5.4530    9.6658    7.9770 C.2       1 RES1    0.0000
     30 C12        3.6956   11.2587    7.2214 C.ar      1 RES1    0.0000
     31 C13        4.1070   12.3256    8.0031 C.ar      1 RES1    0.0000
     32 H11        4.8962   12.2479    8.5261 H         1 RES1    0.0000
     33 C14        3.3794   13.5118    8.0320 C.ar      1 RES1    0.0000
     34 H12        3.6846   14.2359    8.5688 H         1 RES1    0.0000
     35 C15        2.2287   13.6519    7.2998 C.ar      1 RES1    0.0000
     36 H13        1.7480   14.4720    7.3164 H         1 RES1    0.0000
     37 C16        1.7784   12.5983    6.5429 C.ar      1 RES1    0.0000
     38 H14        0.9759   12.6846    6.0405 H         1 RES1    0.0000
     39 C17        2.4874   11.4184    6.5112 C.ar      1 RES1    0.0000
     40 O5        12.0052    9.5594   14.4177 O.2       1 RES1    0.0000
     41 O6         4.6653    6.8534   11.8448 O.2       1 RES1    0.0000
     42 O7         2.7272    2.5011   12.7004 O.2       1 RES1    0.0000
     43 O8         1.9118    1.8184   10.8135 O.2       1 RES1    0.0000
     44 N5        10.2257    8.3074   15.0394 N.am      1 RES1    0.0000
     45 N6         5.4408    5.7200   13.6638 N.am      1 RES1    0.0000
     46 H15        5.2330    5.0728   14.2033 H         1 RES1    0.0000
     47 N7         3.4810    5.0908   12.7100 N.am      1 RES1    0.0000
     48 H16        3.5695    4.2908   13.1573 H         1 RES1    0.0000
     49 N8         2.1628    2.7103   11.6352 N.pl3     1 RES1    0.0000
     50 C18       10.6691    6.9204   12.3962 C.ar      1 RES1    0.0000
     51 H17       10.3796    6.3296   13.0803 H         1 RES1    0.0000
     52 C19       11.0648    8.2117   12.7183 C.ar      1 RES1    0.0000
     53 C20       11.1216    8.7502   14.1249 C.2       1 RES1    0.0000
     54 C21       10.3834    8.7147   16.4412 C.3       1 RES1    0.0000
     55 H18       11.3248    8.9269   16.6146 H         1 RES1    0.0000
     56 H19       10.1012    7.9825   17.0275 H         1 RES1    0.0000
     57 H20        9.8314    9.5058   16.6159 H         1 RES1    0.0000
     58 C22        9.0014    7.6641   14.6823 C.ar      1 RES1    0.0000
     59 C23        8.0968    8.2953   13.8331 C.ar      1 RES1    0.0000
     60 H21        8.2905    9.1681   13.5097 H         1 RES1    0.0000
     61 C24        6.9299    7.6803   13.4546 C.ar      1 RES1    0.0000
     62 H22        6.3232    8.1221   12.8738 H         1 RES1    0.0000
     63 C25        6.6386    6.3910   13.9322 C.ar      1 RES1    0.0000
     64 C26        7.5422    5.7726   14.7965 C.ar      1 RES1    0.0000
     65 H23        7.3506    4.9027   15.1282 H         1 RES1    0.0000
     66 C27        8.7046    6.4017   15.1763 C.ar      1 RES1    0.0000
     67 H24        9.3029    5.9716   15.7750 H         1 RES1    0.0000
     68 C28        4.5564    5.9752   12.6756 C.2       1 RES1    0.0000
     69 C29        2.3812    5.1795   11.8581 C.ar      1 RES1    0.0000
     70 C30        1.8668    6.4241   11.4948 C.ar      1 RES1    0.0000
     71 H25        2.2701    7.2132   11.8361 H         1 RES1    0.0000
     72 C31        0.7808    6.5264   10.6484 C.ar      1 RES1    0.0000
     73 H26        0.4432    7.3858   10.4254 H         1 RES1    0.0000
     74 C32        0.1771    5.4044   10.1226 C.ar      1 RES1    0.0000
     75 H27       -0.5653    5.4892    9.5363 H         1 RES1    0.0000
     76 C33        0.6556    4.1801   10.4474 C.ar      1 RES1    0.0000
     77 H28        0.2559    3.3997   10.0799 H         1 RES1    0.0000
     78 C34        1.7295    4.0666   11.3214 C.ar      1 RES1    0.0000
     79 O9        12.8870    8.9508    8.4584 O.2       1 RES1    0.0000
     80 O10        6.9754   11.3131   13.2619 O.2       1 RES1    0.0000
     81 N9        11.9095   10.7928    9.2871 N.am      1 RES1    0.0000
     82 N10        8.0978   13.1624   12.6509 N.am      1 RES1    0.0000
     83 H29        8.3344   13.9947   12.8270 H         1 RES1    0.0000
     84 N11        6.4651   13.3709   14.1950 N.am      1 RES1    0.0000
     85 H30        6.5395   14.2537   14.1538 H         1 RES1    0.0000
     86 C35       11.5319    9.0557   11.7150 C.ar      1 RES1    0.0000
     87 H31       11.8383    9.9273   11.9366 H         1 RES1    0.0000
     88 C36       11.5529    8.6314   10.3937 C.ar      1 RES1    0.0000
     89 C37       12.1476    9.4710    9.2996 C.2       1 RES1    0.0000
     90 C38       12.7055   11.6294    8.3733 C.3       1 RES1    0.0000
     91 H32       13.6357   11.6589    8.6830 H         1 RES1    0.0000
     92 H33       12.3390   12.5373    8.3596 H         1 RES1    0.0000
     93 H34       12.6742   11.2501    7.4705 H         1 RES1    0.0000
     94 C39       10.9040   11.4220   10.0992 C.ar      1 RES1    0.0000
     95 C40       11.2640   12.4574   10.9401 C.ar      1 RES1    0.0000
     96 H35       12.1540   12.7887   10.9360 H         1 RES1    0.0000
     97 C41       10.3204   13.0083   11.7852 C.ar      1 RES1    0.0000
     98 H36       10.5687   13.7053   12.3811 H         1 RES1    0.0000
     99 C42        9.0186   12.5503   11.7700 C.ar      1 RES1    0.0000
    100 C43        8.6366   11.5197   10.9016 C.ar      1 RES1    0.0000
    101 H37        7.7410   11.2018   10.8892 H         1 RES1    0.0000
    102 C44        9.5926   10.9728   10.0621 C.ar      1 RES1    0.0000
    103 H38        9.3469   10.2853    9.4551 H         1 RES1    0.0000
    104 C45        7.1920   12.5155   13.3569 C.2       1 RES1    0.0000
    105 C46        5.3075   13.0418   14.8777 C.ar      1 RES1    0.0000
    106 C47        2.8327   12.4815   16.1219 C.ar      1 RES1    0.0000
    107 H39        1.9809   12.3038   16.5045 H         1 RES1    0.0000
    108 O11        5.9509   15.7654   15.0938 O.2       1 RES1    0.0000
    109 C48        4.6993   11.6842   14.6974 C.ar      1 RES1    0.0000
    110 H40        5.1368   11.0013   14.2047 H         1 RES1    0.0000
    111 C49        3.4880   11.4887   15.2796 C.ar      1 RES1    0.0000
    112 H41        3.0447   10.6611   15.1309 H         1 RES1    0.0000
    113 C50        3.4508   13.6392   16.3462 C.ar      1 RES1    0.0000
    114 H42        3.0534   14.2867   16.9160 H         1 RES1    0.0000
    115 C51        4.6797   13.8982   15.7420 C.ar      1 RES1    0.0000
    116 N12        5.2374   15.1626   16.0682 N.pl3     1 RES1    0.0000
    117 O12        4.9243   15.7110   17.1031 O.2       1 RES1    0.0000
    118 C52        4.9743   11.8061   15.3415 Du        2 SUP2    0.0000
    119 H43        5.5911   11.0901   15.2438 Du        2 SUP2    0.0000
    120 C53        3.7812   11.5751   15.9388 Du        2 SUP2    0.0000
    121 H44        3.6108   10.6941   16.2512 Du        2 SUP2    0.0000
    122 C54        3.0844   13.8754   15.6553 Du        2 SUP2    0.0000
    123 H45        2.4164   14.5380   15.7833 Du        2 SUP2    0.0000
    124 C55        4.2688   14.2156   15.0428 Du        2 SUP2    0.0000
    125 O13        3.4652   16.1706   14.1840 Du        2 SUP2    0.0000
    126 N13        4.5344   15.4800   14.6602 Du        2 SUP2    0.0000
@<TRIPOS>BOND
     1    1   14 2
     2    2   29 2
     3    3   10 2
     4    4   10 2
     5    5   14 1
     6    6    7 1
     7    8    9 1
     8   10   39 1
     9   11   12 1
    10   13   11 ar
    11   14   13 1
    12   15    5 1
    13   16   15 1
    14   17   15 1
    15   18   15 1
    16   19    5 1
    17   20   19 ar
    18   21   20 1
    19   22   20 ar
    20   23   22 1
    21   24    6 1
    22   25   24 ar
    23   26   25 1
    24   27   19 ar
    25   28   27 1
    26   29    6 1
    27   30    8 1
    28   31   30 ar
    29   32   31 1
    30   33   31 ar
    31   34   33 1
    32   35   33 ar
    33   36   35 1
    34   37   35 ar
    35   38   37 1
    36   39   30 ar
    37   40   53 2
    38   41   68 2
    39   42   49 2
    40   43   49 2
    41   44   53 1
    42   45   46 1
    43   47   48 1
    44   49   78 1
    45   50   13 ar
    46   51   50 1
    47   52   50 ar
    48   53   52 1
    49   54   44 1
    50   55   54 1
    51   56   54 1
    52   57   54 1
    53   58   44 1
    54   59   58 ar
    55   60   59 1
    56   61   59 ar
    57   62   61 1
    58   63   45 1
    59   64   63 ar
    60   65   64 1
    61   66   58 ar
    62   67   66 1
    63   68   45 1
    64   69   47 1
    65   70   69 ar
    66   71   70 1
    67   72   70 ar
    68   73   72 1
    69   74   72 ar
    70   75   74 1
    71   76   74 ar
    72   77   76 1
    73   78   69 ar
    74   79   89 2
    75   80  104 2
    76   81   89 1
    77   82   83 1
    78   84   85 1
    79   86   52 ar
    80   87   86 1
    81   88   11 ar
    82   89   88 1
    83   90   81 1
    84   91   90 1
    85   92   90 1
    86   93   90 1
    87   94   81 1
    88   95   94 ar
    89   96   95 1
    90   97   95 ar
    91   98   97 1
    92   99   82 1
    93  100   99 ar
    94  101  100 1
    95  102   94 ar
    96  103  102 1
    97  104   82 1
    98  105   84 1
    99  106  107 1
   100  108  116 2
   101  109  105 ar
   102  110  109 1
   103  111  106 ar
   104  112  111 1
   105  113  106 ar
   106  114  113 1
   107  115  105 ar
   108  116  115 1
   109  117  116 2
   110    8   29 1
   111   22   24 ar
   112   25   27 ar
   113   37   39 ar
   114   47   68 1
   115   61   63 ar
   116   64   66 ar
   117   76   78 ar
   118   84  104 1
   119   86   88 ar
   120   97   99 ar
   121  100  102 ar
   122  109  111 ar
   123  113  115 ar
@<TRIPOS>SUBSTRUCTURE
     1 RES1 1
     2 SUP2 118

@<TRIPOS>CRYSIN
  13.6978   25.3895   14.1634  90.0000 103.6580  90.0000 231 1

