# MOL2 file generated by ConQuest
# Please check atom types

@<TRIPOS>MOLECULE
HOTFEC
    58    60     2
SMALL
NO_CHARGES
****
Generated from CSD

@<TRIPOS>ATOM
      1 O1         1.1328    4.7988    1.6317 O.2       1 RES1    0.0000
      2 O2         4.9096    4.0008    0.1141 O.3       1 RES1    0.0000
      3 O3         6.4904    4.3624   -1.8787 O.2       1 RES1    0.0000
      4 O4         5.7937    5.3370   -3.6637 O.2       1 RES1    0.0000
      5 O5         6.2692    5.4387   10.4297 O.2       2 RES2    0.0000
      6 O6         2.8129    3.3503    9.3721 O.3       2 RES2    0.0000
      7 O7         0.4312    2.8247   10.0506 O.2       2 RES2    0.0000
      8 O8        -0.3425    3.4069   11.9811 O.2       2 RES2    0.0000
      9 N1         3.0681    3.6928    1.9987 N.am      1 RES1    0.0000
     10 N2         5.5903    4.9150   -2.5395 N.pl3     1 RES1    0.0000
     11 N3         5.3189    4.1219    8.8542 N.am      2 RES2    0.0000
     12 N4         0.5746    3.3776   11.1711 N.pl3     2 RES2    0.0000
     13 C1         2.7248    4.8382   -0.1311 C.ar      1 RES1    0.0000
     14 C2         4.0008    4.6238   -0.6512 C.ar      1 RES1    0.0000
     15 C3         4.2719    5.0882   -1.9486 C.ar      1 RES1    0.0000
     16 C4         3.3163    5.7279   -2.7100 C.ar      1 RES1    0.0000
     17 C5         2.0640    5.9205   -2.2040 C.ar      1 RES1    0.0000
     18 C6         1.7892    5.4849   -0.9200 C.ar      1 RES1    0.0000
     19 C7         2.2308    4.4461    1.2489 C.2       1 RES1    0.0000
     20 C8         2.8208    3.1299    3.2819 C.ar      1 RES1    0.0000
     21 C9         1.8301    3.5679    4.1351 C.ar      1 RES1    0.0000
     22 C10        1.6469    2.9224    5.3483 C.ar      1 RES1    0.0000
     23 C11        2.4407    1.8803    5.7191 C.ar      1 RES1    0.0000
     24 C12        3.4412    1.4652    4.8798 C.ar      1 RES1    0.0000
     25 C13        3.6335    2.0861    3.6598 C.ar      1 RES1    0.0000
     26 C14        4.0916    4.6284   10.9044 C.ar      2 RES2    0.0000
     27 C15        2.9162    3.9703   10.5701 C.ar      2 RES2    0.0000
     28 C16        1.8506    3.9795   11.4897 C.ar      2 RES2    0.0000
     29 C17        1.9716    4.5940   12.7237 C.ar      2 RES2    0.0000
     30 C18        3.1330    5.2280   13.0486 C.ar      2 RES2    0.0000
     31 C19        4.1729    5.2533   12.1425 C.ar      2 RES2    0.0000
     32 C20        5.3285    4.7626   10.0518 C.2       2 RES2    0.0000
     33 C21        6.3412    4.0907    7.8672 C.ar      2 RES2    0.0000
     34 C22        7.6332    4.5298    8.0625 C.ar      2 RES2    0.0000
     35 C23        8.5533    4.4003    7.0357 C.ar      2 RES2    0.0000
     36 C24        8.2004    3.8442    5.8242 C.ar      2 RES2    0.0000
     37 C25        6.9122    3.4154    5.6365 C.ar      2 RES2    0.0000
     38 C26        5.9752    3.5370    6.6476 C.ar      2 RES2    0.0000
     39 H1         3.8428    3.5357    1.6592 H         1 RES1    0.0000
     40 H2         5.6023    3.8986   -0.3126 H         1 RES1    0.0000
     41 H3         3.5254    6.0273   -3.5654 H         1 RES1    0.0000
     42 H4         1.4075    6.3382   -2.7131 H         1 RES1    0.0000
     43 H5         0.9390    5.6331   -0.5723 H         1 RES1    0.0000
     44 H6         1.2901    4.2873    3.8989 H         1 RES1    0.0000
     45 H7         0.9695    3.2071    5.9190 H         1 RES1    0.0000
     46 H8         2.3044    1.4543    6.5345 H         1 RES1    0.0000
     47 H9         3.9946    0.7624    5.1329 H         1 RES1    0.0000
     48 H10        4.3128    1.7975    3.0938 H         1 RES1    0.0000
     49 H11        4.6054    3.6792    8.6700 H         2 RES2    0.0000
     50 H12        2.0436    3.0868    9.2663 H         2 RES2    0.0000
     51 H13        1.2646    4.5741   13.3276 H         2 RES2    0.0000
     52 H14        3.2233    5.6424   13.8765 H         2 RES2    0.0000
     53 H15        4.9546    5.7025   12.3685 H         2 RES2    0.0000
     54 H16        7.8840    4.9079    8.8744 H         2 RES2    0.0000
     55 H17        9.4255    4.6949    7.1655 H         2 RES2    0.0000
     56 H18        8.8279    3.7613    5.1433 H         2 RES2    0.0000
     57 H19        6.6649    3.0399    4.8225 H         2 RES2    0.0000
     58 H20        5.1020    3.2480    6.5107 H         2 RES2    0.0000
@<TRIPOS>BOND
     1    1   19 2
     2    2   14 1
     3    3   10 2
     4    4   10 2
     5    5   32 2
     6    6   27 1
     7    7   12 2
     8    8   12 2
     9    9   19 1
    10   10   15 1
    11   11   32 1
    12   12   28 1
    13   13   14 ar
    14   14   15 ar
    15   15   16 ar
    16   16   17 ar
    17   17   18 ar
    18   18   13 ar
    19   19   13 1
    20   20    9 1
    21   21   20 ar
    22   22   21 ar
    23   23   22 ar
    24   24   23 ar
    25   25   20 ar
    26   26   27 ar
    27   27   28 ar
    28   28   29 ar
    29   29   30 ar
    30   30   31 ar
    31   31   26 ar
    32   32   26 1
    33   33   11 1
    34   34   33 ar
    35   35   34 ar
    36   36   35 ar
    37   37   36 ar
    38   38   33 ar
    39   39    9 1
    40   40    2 1
    41   41   16 1
    42   42   17 1
    43   43   18 1
    44   44   21 1
    45   45   22 1
    46   46   23 1
    47   47   24 1
    48   48   25 1
    49   49   11 1
    50   50    6 1
    51   51   29 1
    52   52   30 1
    53   53   31 1
    54   54   34 1
    55   55   35 1
    56   56   36 1
    57   57   37 1
    58   58   38 1
    59   24   25 ar
    60   37   38 ar
@<TRIPOS>SUBSTRUCTURE
     1 RES1 1
     2 RES2 5

@<TRIPOS>CRYSIN
  10.4850   11.4650   20.0130  90.0000 101.1810  90.0000 231 1

