# MOL2 file generated by ConQuest
# Please check atom types

@<TRIPOS>MOLECULE
HOTHUV
    90    98     2
SMALL
NO_CHARGES
****
Generated from CSD

@<TRIPOS>ATOM
      1 O1        -0.0441   -1.9810  -12.7872 O.3       1 RES1    0.0000
      2 O2        -0.5960   -0.7355   -9.0005 O.2       1 RES1    0.0000
      3 N1        -0.9815   -2.8647  -12.2976 N.2       1 RES1    0.0000
      4 N2         0.6142    0.1174  -10.5923 N.am      1 RES1    0.0000
      5 C1        -1.4769   -3.9110  -10.2789 C.ar      1 RES1    0.0000
      6 C2         0.1047   -0.8693   -9.8958 C.2       1 RES1    0.0000
      7 C3         0.4144    1.6508  -12.9140 C.ar      1 RES1    0.0000
      8 C4         1.4615   -0.3225  -11.5864 C.3       1 RES1    0.0000
      9 H1         2.3921   -0.2450  -11.2900 H         1 RES1    0.0000
     10 C5        -4.1405   -6.3204   -8.2039 C.3       1 RES1    0.0000
     11 H2        -5.0317   -6.0803   -8.4659 H         1 RES1    0.0000
     12 H3        -4.0397   -6.1910   -7.2579 H         1 RES1    0.0000
     13 H4        -3.9816   -7.2423   -8.4181 H         1 RES1    0.0000
     14 C6        -3.1876   -5.4887   -8.9096 C.ar      1 RES1    0.0000
     15 C7        -2.2888   -4.8983  -10.9458 C.ar      1 RES1    0.0000
     16 H5        -2.2175   -4.9975  -11.8669 H         1 RES1    0.0000
     17 C8        -0.6577   -3.0352  -11.0286 C.2       1 RES1    0.0000
     18 C9         1.2409    0.5239  -12.8449 C.ar      1 RES1    0.0000
     19 C10        0.2469    2.3978  -14.0892 C.ar      1 RES1    0.0000
     20 H6        -0.3092    3.1439  -14.0918 H         1 RES1    0.0000
     21 C11        1.0898   -1.8022  -11.7614 C.3       1 RES1    0.0000
     22 H7         1.8734   -2.3416  -11.9976 H         1 RES1    0.0000
     23 C12       -0.3231    2.0541  -11.7694 C.3       1 RES1    0.0000
     24 H8        -1.2282    1.7132  -11.8383 H         1 RES1    0.0000
     25 H9        -0.3705    3.0234  -11.7458 H         1 RES1    0.0000
     26 C13       -3.1386   -5.6723  -10.2729 C.ar      1 RES1    0.0000
     27 H10       -3.6703   -6.3036  -10.7003 H         1 RES1    0.0000
     28 C14        0.5369   -2.2055  -10.4763 C.3       1 RES1    0.0000
     29 H11        1.1556   -2.7131   -9.9098 H         1 RES1    0.0000
     30 C15       -2.3511   -4.5260   -8.2361 C.ar      1 RES1    0.0000
     31 H12       -2.4029   -4.4461   -7.3121 H         1 RES1    0.0000
     32 C16        0.8740    2.0432  -15.1771 C.ar      1 RES1    0.0000
     33 H13        0.7676    2.5116  -15.9724 H         1 RES1    0.0000
     34 C17        0.3288    1.5332  -10.4151 C.3       1 RES1    0.0000
     35 H14       -0.3579    1.6046   -9.7186 H         1 RES1    0.0000
     36 C18        1.6093    2.2914   -9.8831 C.3       1 RES1    0.0000
     37 H15        1.9021    1.8871   -9.0620 H         1 RES1    0.0000
     38 H16        1.3936    3.2131   -9.7282 H         1 RES1    0.0000
     39 H17        2.3105    2.2329  -10.5346 H         1 RES1    0.0000
     40 C19       -1.5043   -3.7496   -8.9131 C.ar      1 RES1    0.0000
     41 H18       -0.9599   -3.1301   -8.4850 H         1 RES1    0.0000
     42 C20        1.9043    0.1877  -13.9318 C.ar      1 RES1    0.0000
     43 H19        2.4925   -0.5335  -13.9260 H         1 RES1    0.0000
     44 C21        1.7071    0.9351  -15.0946 C.ar      1 RES1    0.0000
     45 H20        2.1626    0.6738  -15.8640 H         1 RES1    0.0000
     46 O3        -1.6762  -10.4342  -14.1501 O.3       2 RES2    0.0000
     47 O4        -0.0849   -8.0752  -11.0927 O.2       2 RES2    0.0000
     48 N3        -0.7534   -9.5467  -14.6464 N.2       2 RES2    0.0000
     49 N4        -1.6191   -9.7932  -11.2126 N.am      2 RES2    0.0000
     50 C22        0.9966   -5.0848  -14.0810 C.ar      2 RES2    0.0000
     51 H21        1.0094   -4.2960  -13.5882 H         2 RES2    0.0000
     52 C23       -2.7484  -10.3218  -12.0977 C.3       2 RES2    0.0000
     53 H22       -3.6009  -10.0246  -11.7171 H         2 RES2    0.0000
     54 C24       -2.7507  -11.8376  -12.1404 C.ar      2 RES2    0.0000
     55 C25       -0.7461  -11.8981  -10.3290 C.3       2 RES2    0.0000
     56 H23       -0.6690  -12.4314   -9.5210 H         2 RES2    0.0000
     57 H24        0.1236  -11.8761  -10.7577 H         2 RES2    0.0000
     58 C26       -3.7421  -13.8642  -13.1199 C.ar      2 RES2    0.0000
     59 H25       -4.3434  -14.2988  -13.6806 H         2 RES2    0.0000
     60 C27        0.8276   -7.4484  -15.4940 C.ar      2 RES2    0.0000
     61 H26        0.7867   -8.2224  -16.0075 H         2 RES2    0.0000
     62 C28        1.7917   -5.2399  -15.1013 C.ar      2 RES2    0.0000
     63 C29       -2.5761   -9.6544  -13.4301 C.3       2 RES2    0.0000
     64 H27       -3.4172   -9.4772  -13.9005 H         2 RES2    0.0000
     65 C30       -1.7792   -8.3832  -13.0645 C.3       2 RES2    0.0000
     66 H28       -2.3267   -7.5703  -13.0495 H         2 RES2    0.0000
     67 C31       -1.8049  -12.5770  -11.3133 C.ar      2 RES2    0.0000
     68 C32       -1.0433   -8.6872  -11.6633 C.2       2 RES2    0.0000
     69 C33       -0.8151   -8.3951  -14.0969 C.2       2 RES2    0.0000
     70 C34        0.0573   -7.2923  -14.4443 C.ar      2 RES2    0.0000
     71 C35       -1.8361  -13.9636  -11.4175 C.ar      2 RES2    0.0000
     72 H29       -1.2516  -14.4806  -10.9107 H         2 RES2    0.0000
     73 C36       -1.1604  -10.4854   -9.9605 C.3       2 RES2    0.0000
     74 H30       -0.3977  -10.0048   -9.5752 H         2 RES2    0.0000
     75 C37       -2.7856  -14.6090  -12.3208 C.ar      2 RES2    0.0000
     76 H31       -2.7769  -15.5358  -12.3865 H         2 RES2    0.0000
     77 C38        1.6876   -6.4443  -15.8076 C.ar      2 RES2    0.0000
     78 H32        2.2454   -6.5645  -16.5430 H         2 RES2    0.0000
     79 C39       -3.7252  -12.4859  -13.0141 C.ar      2 RES2    0.0000
     80 H33       -4.3323  -11.9729  -13.4989 H         2 RES2    0.0000
     81 C40        2.7496   -4.1600  -15.4267 C.3       2 RES2    0.0000
     82 H34        2.2821   -3.3237  -15.4815 H         2 RES2    0.0000
     83 H35        3.1685   -4.3473  -16.2688 H         2 RES2    0.0000
     84 H36        3.4191   -4.1082  -14.7420 H         2 RES2    0.0000
     85 C41       -2.2554  -10.4808   -9.0336 C.3       2 RES2    0.0000
     86 H37       -2.5501   -9.5780   -8.8898 H         2 RES2    0.0000
     87 H38       -1.9693  -10.8604   -8.1982 H         2 RES2    0.0000
     88 H39       -2.9785  -11.0007   -9.3903 H         2 RES2    0.0000
     89 C42        0.1477   -6.0936  -13.7437 C.ar      2 RES2    0.0000
     90 H40       -0.4033   -5.9756  -13.0049 H         2 RES2    0.0000
@<TRIPOS>BOND
     1    1    3 1
     2    2    6 2
     3    3   17 2
     4    4    6 1
     5    5   15 ar
     6    6   28 1
     7    7   18 ar
     8    8    4 1
     9    9    8 1
    10   10   11 1
    11   12   10 1
    12   13   10 1
    13   14   10 1
    14   15   16 1
    15   17    5 1
    16   18    8 1
    17   19    7 ar
    18   20   19 1
    19   21    1 1
    20   22   21 1
    21   23    7 1
    22   24   23 1
    23   25   23 1
    24   26   14 ar
    25   27   26 1
    26   28   17 1
    27   29   28 1
    28   30   14 ar
    29   31   30 1
    30   32   19 ar
    31   33   32 1
    32   34    4 1
    33   35   34 1
    34   36   34 1
    35   37   36 1
    36   38   36 1
    37   39   36 1
    38   40    5 ar
    39   41   40 1
    40   42   18 ar
    41   43   42 1
    42   44   32 ar
    43   45   44 1
    44   46   48 1
    45   47   68 2
    46   48   69 2
    47   49   52 1
    48   50   51 1
    49   52   53 1
    50   54   52 1
    51   55   56 1
    52   57   55 1
    53   58   59 1
    54   60   61 1
    55   62   50 ar
    56   63   46 1
    57   64   63 1
    58   65   63 1
    59   66   65 1
    60   67   54 ar
    61   68   49 1
    62   69   65 1
    63   70   60 ar
    64   71   67 ar
    65   72   71 1
    66   73   49 1
    67   74   73 1
    68   75   58 ar
    69   76   75 1
    70   77   60 ar
    71   78   77 1
    72   79   54 ar
    73   80   79 1
    74   81   62 1
    75   82   81 1
    76   83   81 1
    77   84   81 1
    78   85   73 1
    79   86   85 1
    80   87   85 1
    81   88   85 1
    82   89   50 ar
    83   90   89 1
    84    8   21 1
    85   15   26 ar
    86   21   28 1
    87   23   34 1
    88   30   40 ar
    89   42   44 ar
    90   52   63 1
    91   55   67 1
    92   55   73 1
    93   58   79 ar
    94   62   77 ar
    95   65   68 1
    96   69   70 1
    97   70   89 ar
    98   71   75 ar
@<TRIPOS>SUBSTRUCTURE
     1 RES1 1
     2 RES2 46

@<TRIPOS>CRYSIN
   5.2766   19.7606   31.8811  90.0000  91.1500  90.0000  14 1

