# MOL2 file generated by ConQuest
# Please check atom types

@<TRIPOS>MOLECULE
HOTJAB
    73    78     1
SMALL
NO_CHARGES
****
Generated from CSD

@<TRIPOS>ATOM
      1 O1         2.8784   -1.3135    9.4403 O.3       1 RES1    0.0000
      2 N1         1.7288   -0.4080    9.5283 N.2       1 RES1    0.0000
      3 C1         1.6185    0.2190    8.4385 C.2       1 RES1    0.0000
      4 C2         0.4696    1.2213    8.3561 C.3       1 RES1    0.0000
      5 O2        -0.2964    0.8902    7.2094 O.3       1 RES1    0.0000
      6 C3         0.5395    1.3172    6.0851 C.3       1 RES1    0.0000
      7 C4         1.0668    2.7009    6.5261 C.3       1 RES1    0.0000
      8 C5         0.9956    2.6492    8.0596 C.3       1 RES1    0.0000
      9 C6         0.1437    3.7270    5.8261 C.3       1 RES1    0.0000
     10 C7        -1.0084    2.9393    5.2274 C.3       1 RES1    0.0000
     11 C8        -0.3862    1.5764    4.9041 C.3       1 RES1    0.0000
     12 C9         1.6217    0.2708    5.9198 C.3       1 RES1    0.0000
     13 C10        2.4743    0.1250    7.1872 C.3       1 RES1    0.0000
     14 C11       -0.4151    1.2020    9.5899 C.2       1 RES1    0.0000
     15 O3         0.2111    1.8381   10.5787 O.3       1 RES1    0.0000
     16 C12       -0.4824    1.9136   11.8534 C.3       1 RES1    0.0000
     17 C13        0.5299    2.3372   12.9258 C.3       1 RES1    0.0000
     18 C14        1.2195    3.6324   12.4191 C.3       1 RES1    0.0000
     19 C15        0.1026    4.7019   12.5104 C.3       1 RES1    0.0000
     20 C16       -1.1085    3.9025   13.0322 C.3       1 RES1    0.0000
     21 C17       -0.4426    2.9079   14.0186 C.3       1 RES1    0.0000
     22 C18        0.2630    3.5728   15.2019 C.3       1 RES1    0.0000
     23 C19       -1.4094    1.8780   14.6017 C.3       1 RES1    0.0000
     24 C20       -1.5826    2.9954   11.8905 C.3       1 RES1    0.0000
     25 C21        1.4825    1.2223   13.3070 C.3       1 RES1    0.0000
     26 O4        -1.5159    0.7251    9.6542 O.2       1 RES1    0.0000
     27 C22        3.4025   -1.5416   10.6533 C.2       1 RES1    0.0000
     28 O5         2.9387   -1.2290   11.7033 O.2       1 RES1    0.0000
     29 C23        4.7227   -2.2732   10.5374 C.ar      1 RES1    0.0000
     30 C24        5.3976   -2.5276   11.7250 C.ar      1 RES1    0.0000
     31 C25        6.6299   -3.1641   11.6594 C.ar      1 RES1    0.0000
     32 N2         7.3785   -3.3816   12.9174 N.pl3     1 RES1    0.0000
     33 O6         6.9673   -2.8398   13.9231 O.2       1 RES1    0.0000
     34 O7         8.3767   -4.0843   12.8599 O.2       1 RES1    0.0000
     35 C26        7.1899   -3.5768   10.4758 C.ar      1 RES1    0.0000
     36 C27        6.5131   -3.2801    9.3198 C.ar      1 RES1    0.0000
     37 C28        5.2776   -2.6299    9.3164 C.ar      1 RES1    0.0000
     38 N3         7.1239   -3.6346    8.0272 N.pl3     1 RES1    0.0000
     39 O8         8.1496   -4.3072    8.0579 O.2       1 RES1    0.0000
     40 O9         6.5940   -3.2437    7.0090 O.2       1 RES1    0.0000
     41 H1         2.0008    2.9449    6.2893 H         1 RES1    0.0000
     42 H2         1.8937    2.7839    8.4617 H         1 RES1    0.0000
     43 H3         0.3599    3.3423    8.4063 H         1 RES1    0.0000
     44 H4        -0.1989    4.3994    6.4810 H         1 RES1    0.0000
     45 H5         0.6563    4.2107    5.1030 H         1 RES1    0.0000
     46 H6        -1.7500    2.8376    5.8719 H         1 RES1    0.0000
     47 H7        -1.3420    3.3781    4.3853 H         1 RES1    0.0000
     48 H8        -1.0610    0.8584    4.8133 H         1 RES1    0.0000
     49 H9         0.1674    1.6135    4.0466 H         1 RES1    0.0000
     50 H10        1.1887   -0.6200    5.7015 H         1 RES1    0.0000
     51 H11        2.2241    0.5246    5.1648 H         1 RES1    0.0000
     52 H12        3.1292    0.8306    7.1945 H         1 RES1    0.0000
     53 H13        2.8842   -0.7829    7.1668 H         1 RES1    0.0000
     54 H14       -0.8853    1.0094   11.9972 H         1 RES1    0.0000
     55 H15        1.9925    3.8729   13.0024 H         1 RES1    0.0000
     56 H16        1.5306    3.5172   11.4775 H         1 RES1    0.0000
     57 H17        0.3554    5.4427   13.1366 H         1 RES1    0.0000
     58 H18       -0.0956    5.0969   11.6074 H         1 RES1    0.0000
     59 H19       -1.8347    4.4690   13.4220 H         1 RES1    0.0000
     60 H20       -0.4099    3.9126   15.8542 H         1 RES1    0.0000
     61 H21        0.8526    2.8952   15.6562 H         1 RES1    0.0000
     62 H22        0.8275    4.3279   14.8724 H         1 RES1    0.0000
     63 H23       -1.9893    2.3130   15.2920 H         1 RES1    0.0000
     64 H24       -0.8750    1.1446   15.0428 H         1 RES1    0.0000
     65 H25       -1.9668    1.4903   13.8799 H         1 RES1    0.0000
     66 H26       -2.4717    2.6071   12.0674 H         1 RES1    0.0000
     67 H27       -1.6018    3.5092   11.0196 H         1 RES1    0.0000
     68 H28        2.1118    1.5301   14.0162 H         1 RES1    0.0000
     69 H29        0.9539    0.4332   13.6627 H         1 RES1    0.0000
     70 H30        1.9957    0.9220   12.5041 H         1 RES1    0.0000
     71 H31        4.9973   -2.2593   12.6084 H         1 RES1    0.0000
     72 H32        8.0463   -4.0895   10.4573 H         1 RES1    0.0000
     73 H33        4.7875   -2.4243    8.4596 H         1 RES1    0.0000
@<TRIPOS>BOND
     1    1    2 1
     2    2    3 2
     3    3    4 1
     4    4    5 1
     5    5    6 1
     6    6    7 1
     7    7    8 1
     8    8    4 1
     9    9    7 1
    10   10    9 1
    11   11    6 1
    12   12    6 1
    13   13    3 1
    14   14    4 1
    15   15   14 1
    16   16   15 1
    17   17   16 1
    18   18   17 1
    19   19   18 1
    20   20   19 1
    21   21   17 1
    22   22   21 1
    23   23   21 1
    24   24   16 1
    25   25   17 1
    26   26   14 2
    27   27    1 1
    28   28   27 2
    29   29   27 1
    30   30   29 ar
    31   31   30 ar
    32   32   31 1
    33   33   32 2
    34   34   32 2
    35   35   31 ar
    36   36   35 ar
    37   37   29 ar
    38   38   36 1
    39   39   38 2
    40   40   38 2
    41   41    7 1
    42   42    8 1
    43   43    8 1
    44   44    9 1
    45   45    9 1
    46   46   10 1
    47   47   10 1
    48   48   11 1
    49   49   11 1
    50   50   12 1
    51   51   12 1
    52   52   13 1
    53   53   13 1
    54   54   16 1
    55   55   18 1
    56   56   18 1
    57   57   19 1
    58   58   19 1
    59   59   20 1
    60   60   22 1
    61   61   22 1
    62   62   22 1
    63   63   23 1
    64   64   23 1
    65   65   23 1
    66   66   24 1
    67   67   24 1
    68   68   25 1
    69   69   25 1
    70   70   25 1
    71   71   30 1
    72   72   35 1
    73   73   37 1
    74   10   11 1
    75   12   13 1
    76   20   21 1
    77   20   24 1
    78   36   37 ar
@<TRIPOS>SUBSTRUCTURE
     1 RES1 1

@<TRIPOS>CRYSIN
   6.4150   19.8710   21.2980  90.0000  90.0000  90.0000  19 1

