# MOL2 file generated by ConQuest
# Please check atom types

@<TRIPOS>MOLECULE
HOTKOS
   125   118     3
SMALL
NO_CHARGES
****
Generated from CSD

@<TRIPOS>ATOM
      1 C1         8.9744   15.2781    8.3554 C.3       1 RES1    0.0000
      2 H1         8.9400   15.4392    9.3327 H         1 RES1    0.0000
      3 H2         9.8864   14.9662    8.1323 H         1 RES1    0.0000
      4 C2         7.9768   14.2021    7.9940 C.3       1 RES1    0.0000
      5 H3         7.0616   14.5369    8.1684 H         1 RES1    0.0000
      6 H4         8.0478   14.0074    7.0246 H         1 RES1    0.0000
      7 C3         8.1912   12.9360    8.7644 C.2       1 RES1    0.0000
      8 H5         9.0134   12.4764    8.6429 H         1 RES1    0.0000
      9 C4         7.3058   12.4150    9.6061 C.2       1 RES1    0.0000
     10 H6         6.4743   12.8511    9.7506 H         1 RES1    0.0000
     11 H7         7.5051   11.6079   10.0648 H         1 RES1    0.0000
     12 C5         8.6473   17.4496   10.9624 C.ar      1 RES1    0.0000
     13 C6         8.6792   16.3123   11.7651 C.ar      1 RES1    0.0000
     14 H8         9.5149   15.9746   12.0665 H         1 RES1    0.0000
     15 C7         7.5053   15.6625   12.1333 C.ar      1 RES1    0.0000
     16 H9         7.5423   14.8905   12.6855 H         1 RES1    0.0000
     17 C8         6.2807   16.1426   11.6943 C.ar      1 RES1    0.0000
     18 H10        5.4791   15.6924   11.9314 H         1 RES1    0.0000
     19 C9         6.2315   17.2836   10.9062 C.ar      1 RES1    0.0000
     20 H11        5.3933   17.6195   10.6132 H         1 RES1    0.0000
     21 C10        7.4030   17.9358   10.5447 C.ar      1 RES1    0.0000
     22 H12        7.3590   18.7185   10.0083 H         1 RES1    0.0000
     23 C11        9.9410   18.0951   10.4727 C.3       1 RES1    0.0000
     24 C12       11.1745   17.5806   11.2336 C.ar      1 RES1    0.0000
     25 C13       11.9814   16.5620   10.7466 C.ar      1 RES1    0.0000
     26 H13       11.7821   16.1653    9.9077 H         1 RES1    0.0000
     27 C14       13.0838   16.1153   11.4787 C.ar      1 RES1    0.0000
     28 H14       13.6369   15.4265   11.1285 H         1 RES1    0.0000
     29 C15       13.3733   16.6709   12.7113 C.ar      1 RES1    0.0000
     30 H15       14.1175   16.3608   13.2134 H         1 RES1    0.0000
     31 C16       12.5708   17.6817   13.2075 C.ar      1 RES1    0.0000
     32 H16       12.7662   18.0675   14.0540 H         1 RES1    0.0000
     33 C17       11.4818   18.1361   12.4762 C.ar      1 RES1    0.0000
     34 H17       10.9390   18.8334   12.8254 H         1 RES1    0.0000
     35 C18        9.9595   19.6249   10.5330 C.ar      1 RES1    0.0000
     36 C19        9.1397   20.3457   11.3970 C.ar      1 RES1    0.0000
     37 H18        8.4857   19.8933   11.9157 H         1 RES1    0.0000
     38 C20        9.2749   21.7257   11.5026 C.ar      1 RES1    0.0000
     39 H19        8.7099   22.2096   12.0932 H         1 RES1    0.0000
     40 C21       10.2210   22.3983   10.7579 C.ar      1 RES1    0.0000
     41 H20       10.3089   23.3411   10.8347 H         1 RES1    0.0000
     42 C22       11.0438   21.6873    9.8945 C.ar      1 RES1    0.0000
     43 H21       11.6923   22.1469    9.3735 H         1 RES1    0.0000
     44 C23       10.9234   20.3111    9.7908 C.ar      1 RES1    0.0000
     45 H22       11.5012   19.8299    9.2101 H         1 RES1    0.0000
     46 C24        8.7071   16.5465    7.6446 C.2       1 RES1    0.0000
     47 C25        8.9383   18.9899    7.5136 C.3       1 RES1    0.0000
     48 H23        8.8643   19.7116    8.1857 H         1 RES1    0.0000
     49 H24        8.0841   18.9581    7.0152 H         1 RES1    0.0000
     50 C26       10.0383   19.3374    6.5569 C.2       1 RES1    0.0000
     51 H25       10.0165   20.2061    6.1731 H         1 RES1    0.0000
     52 C27       11.0262   18.5578    6.2001 C.2       1 RES1    0.0000
     53 H26       11.0916   17.6791    6.5564 H         1 RES1    0.0000
     54 H27       11.6791   18.8695    5.5839 H         1 RES1    0.0000
     55 N1         9.1179   17.7260    8.2079 N.am      1 RES1    0.0000
     56 O1        10.2213   17.6535    9.0789 O.3       1 RES1    0.0000
     57 O2         7.9875   16.5628    6.6575 O.2       1 RES1    0.0000
     58 C28        9.4378   15.2583    8.2423 Du        3 SUP3    0.0000
     59 H28       10.3823   15.2609    7.9469 Du        3 SUP3    0.0000
     60 H29        9.4316   15.3173    9.2305 Du        3 SUP3    0.0000
     61 C29        8.7941   13.9391    7.8228 Du        3 SUP3    0.0000
     62 H30        8.6211   13.9570    6.8487 Du        3 SUP3    0.0000
     63 H31        9.4227   13.1970    8.0082 Du        3 SUP3    0.0000
     64 C30        7.5231   13.6887    8.5361 Du        3 SUP3    0.0000
     65 H32        6.8437   14.3482    8.4623 Du        3 SUP3    0.0000
     66 C31        7.2564   12.6277    9.2667 Du        3 SUP3    0.0000
     67 H33        7.9083   11.9446    9.3672 Du        3 SUP3    0.0000
     68 H34        6.4112   12.5435    9.6925 Du        3 SUP3    0.0000
     69 C32        1.4761    8.6099   13.7574 C.ar      2 RES2    0.0000
     70 H35        1.4251    9.0808   12.9338 H         2 RES2    0.0000
     71 C33        0.3128    8.3256   14.4576 C.ar      2 RES2    0.0000
     72 H36       -0.5268    8.6122   14.1168 H         2 RES2    0.0000
     73 C34        0.3715    7.6238   15.6547 C.ar      2 RES2    0.0000
     74 H37       -0.4247    7.4325   16.1358 H         2 RES2    0.0000
     75 C35        1.5991    7.2031   16.1430 C.ar      2 RES2    0.0000
     76 H38        1.6420    6.7106   16.9544 H         2 RES2    0.0000
     77 C36        2.7676    7.5011   15.4492 C.ar      2 RES2    0.0000
     78 H39        3.6055    7.2188   15.7980 H         2 RES2    0.0000
     79 C37        2.7241    8.2098   14.2490 C.ar      2 RES2    0.0000
     80 C38        4.0076    8.6266   13.5335 C.3       2 RES2    0.0000
     81 C39        5.2391    7.8704   14.0603 C.ar      2 RES2    0.0000
     82 C40        5.3588    6.5073   13.7935 C.ar      2 RES2    0.0000
     83 H40        4.6967    6.0705   13.2700 H         2 RES2    0.0000
     84 C41        6.4349    5.7815   14.2840 C.ar      2 RES2    0.0000
     85 H41        6.4978    4.8498   14.1090 H         2 RES2    0.0000
     86 C42        7.4195    6.4142   15.0309 C.ar      2 RES2    0.0000
     87 H42        8.1612    5.9193   15.3596 H         2 RES2    0.0000
     88 C43        7.3157    7.7662   15.2946 C.ar      2 RES2    0.0000
     89 H43        7.9891    8.2016   15.8027 H         2 RES2    0.0000
     90 C44        6.2277    8.4921   14.8173 C.ar      2 RES2    0.0000
     91 H44        6.1591    9.4189   15.0093 H         2 RES2    0.0000
     92 C45        3.9732    8.4533   12.0040 C.ar      2 RES2    0.0000
     93 C46        3.1530    7.5183   11.3771 C.ar      2 RES2    0.0000
     94 H45        2.5326    7.0146   11.8905 H         2 RES2    0.0000
     95 C47        3.2384    7.3162    9.9985 C.ar      2 RES2    0.0000
     96 H46        2.6724    6.6790    9.5793 H         2 RES2    0.0000
     97 C48        4.1409    8.0374    9.2392 C.ar      2 RES2    0.0000
     98 H47        4.1955    7.8993    8.3004 H         2 RES2    0.0000
     99 C49        4.9646    8.9638    9.8578 C.ar      2 RES2    0.0000
    100 H48        5.5863    9.4617    9.3405 H         2 RES2    0.0000
    101 C50        4.8880    9.1686   11.2261 C.ar      2 RES2    0.0000
    102 H49        5.4630    9.8009   11.6391 H         2 RES2    0.0000
    103 C51        2.9872   11.5375   15.0575 C.2       2 RES2    0.0000
    104 C52        3.6453   10.9557   16.2926 C.3       2 RES2    0.0000
    105 H50        4.5880   11.2547   16.3290 H         2 RES2    0.0000
    106 H51        3.6422    9.9685   16.2269 H         2 RES2    0.0000
    107 C53        2.9362   11.3741   17.5783 C.3       2 RES2    0.0000
    108 H52        3.5347   11.2076   18.3495 H         2 RES2    0.0000
    109 H53        2.7467   12.3448   17.5435 H         2 RES2    0.0000
    110 C54        1.6585   10.6322   17.7800 C.2       2 RES2    0.0000
    111 H54        0.9991   10.6977   17.0989 H         2 RES2    0.0000
    112 C55        1.3772    9.8889   18.8380 C.2       2 RES2    0.0000
    113 H55        2.0130    9.7997   19.5389 H         2 RES2    0.0000
    114 H56        0.5395    9.4443   18.8979 H         2 RES2    0.0000
    115 C56        2.9504   11.5743   12.5977 C.3       2 RES2    0.0000
    116 H57        2.1100   12.0878   12.6949 H         2 RES2    0.0000
    117 H58        2.7983   10.8806   11.9078 H         2 RES2    0.0000
    118 C57        4.0224   12.5007   12.1133 C.2       2 RES2    0.0000
    119 H59        3.9106   12.8835   11.2511 H         2 RES2    0.0000
    120 C58        5.1020   12.8269   12.7803 C.2       2 RES2    0.0000
    121 H60        5.2527   12.4659   13.6455 H         2 RES2    0.0000
    122 H61        5.7338   13.4244   12.3980 H         2 RES2    0.0000
    123 N2         3.2397   10.9157   13.8607 N.am      2 RES2    0.0000
    124 O3         4.3372   10.0378   13.8483 O.3       2 RES2    0.0000
    125 O4         2.2554   12.5168   15.0974 O.2       2 RES2    0.0000
@<TRIPOS>BOND
     1    1    2 1
     2    3    1 1
     3    4    1 1
     4    5    4 1
     5    6    4 1
     6    7    4 1
     7    8    7 1
     8    9    7 2
     9   10    9 1
    10   11    9 1
    11   12   13 ar
    12   13   14 1
    13   15   13 ar
    14   16   15 1
    15   17   15 ar
    16   18   17 1
    17   19   17 ar
    18   20   19 1
    19   21   12 ar
    20   22   21 1
    21   23   12 1
    22   24   23 1
    23   25   24 ar
    24   26   25 1
    25   27   25 ar
    26   28   27 1
    27   29   27 ar
    28   30   29 1
    29   31   29 ar
    30   32   31 1
    31   33   24 ar
    32   34   33 1
    33   35   23 1
    34   36   35 ar
    35   37   36 1
    36   38   36 ar
    37   39   38 1
    38   40   38 ar
    39   41   40 1
    40   42   40 ar
    41   43   42 1
    42   44   35 ar
    43   45   44 1
    44   46    1 1
    45   47   48 1
    46   49   47 1
    47   50   47 1
    48   51   50 1
    49   52   50 2
    50   53   52 1
    51   54   52 1
    52   55   46 1
    53   56   23 1
    54   57   46 2
    55   69   70 1
    56   71   69 ar
    57   72   71 1
    58   73   71 ar
    59   74   73 1
    60   75   73 ar
    61   76   75 1
    62   77   75 ar
    63   78   77 1
    64   79   69 ar
    65   80   79 1
    66   81   80 1
    67   82   81 ar
    68   83   82 1
    69   84   82 ar
    70   85   84 1
    71   86   84 ar
    72   87   86 1
    73   88   86 ar
    74   89   88 1
    75   90   81 ar
    76   91   90 1
    77   92   80 1
    78   93   92 ar
    79   94   93 1
    80   95   93 ar
    81   96   95 1
    82   97   95 ar
    83   98   97 1
    84   99   97 ar
    85  100   99 1
    86  101   92 ar
    87  102  101 1
    88  103  104 1
    89  104  105 1
    90  106  104 1
    91  107  104 1
    92  108  107 1
    93  109  107 1
    94  110  107 1
    95  111  110 1
    96  112  110 2
    97  113  112 1
    98  114  112 1
    99  115  116 1
   100  117  115 1
   101  118  115 1
   102  119  118 1
   103  120  118 2
   104  121  120 1
   105  122  120 1
   106  123  103 1
   107  124   80 1
   108  125  103 2
   109   19   21 ar
   110   31   33 ar
   111   42   44 ar
   112   47   55 1
   113   55   56 1
   114   77   79 ar
   115   88   90 ar
   116   99  101 ar
   117  115  123 1
   118  123  124 1
@<TRIPOS>SUBSTRUCTURE
     1 RES1 1
     2 RES2 69
     3 SUP3 58

@<TRIPOS>CRYSIN
  10.7330   12.9156   16.5117  72.1170  89.9240  86.6660   2 1

