# MOL2 file generated by ConQuest
# Please check atom types

@<TRIPOS>MOLECULE
HOTNAF
    20    21     1
SMALL
NO_CHARGES
****
Generated from CSD

@<TRIPOS>ATOM
      1 O1        -0.4270   13.3586    2.4649 O.3       1 RES1    0.0000
      2 O2         0.5213   15.5551    3.8256 O.2       1 RES1    0.0000
      3 O3        -0.6240   16.8866    2.4145 O.3       1 RES1    0.0000
      4 N1        -2.0744   15.1569   -0.1380 N.3       1 RES1    0.0000
      5 N2        -2.2121   12.8948   -0.5377 N.2       1 RES1    0.0000
      6 N3        -0.9491   12.4152    1.5484 N.2       1 RES1    0.0000
      7 C1        -1.4364   14.5532    0.9115 C.2       1 RES1    0.0000
      8 C2        -2.5123   14.1150   -0.9553 C.2       1 RES1    0.0000
      9 C3        -1.5367   13.1545    0.6354 C.2       1 RES1    0.0000
     10 C4        -0.7336   14.6388    2.0408 C.2       1 RES1    0.0000
     11 C5        -0.1875   15.7063    2.8703 C.2       1 RES1    0.0000
     12 C6        -0.1663   18.0612    3.1492 C.3       1 RES1    0.0000
     13 C7        -2.3111   16.5969   -0.3630 C.3       1 RES1    0.0000
     14 H1        -2.9942   14.2777   -1.7561 H         1 RES1    0.0000
     15 H2        -0.2562   17.9057    4.0837 H         1 RES1    0.0000
     16 H3         0.7438   18.2282    2.9429 H         1 RES1    0.0000
     17 H4        -0.6931   18.8119    2.9026 H         1 RES1    0.0000
     18 H5        -1.5674   16.9680   -0.8331 H         1 RES1    0.0000
     19 H6        -2.4063   17.0365    0.4701 H         1 RES1    0.0000
     20 H7        -3.0965   16.7125   -0.8813 H         1 RES1    0.0000
@<TRIPOS>BOND
     1    1    6 1
     2    2   11 2
     3    3   11 1
     4    4    7 1
     5    5    8 2
     6    6    9 2
     7    7    9 1
     8    8    4 1
     9    9    5 1
    10   10    1 1
    11   11   10 1
    12   12    3 1
    13   13    4 1
    14   14    8 1
    15   15   12 1
    16   16   12 1
    17   17   12 1
    18   18   13 1
    19   19   13 1
    20   20   13 1
    21    7   10 2
@<TRIPOS>SUBSTRUCTURE
     1 RES1 1

@<TRIPOS>CRYSIN
   7.7840   14.2720    7.8710  90.0000 114.0400  90.0000  14 2

