# MOL2 file generated by ConQuest
# Please check atom types

@<TRIPOS>MOLECULE
HOTNIN
    45    45     1
SMALL
NO_CHARGES
****
Generated from CSD

@<TRIPOS>ATOM
      1 N1        -2.3079    2.9912   -0.0010 N.pl3     1 RES1    0.0000
      2 H1        -2.1352    3.0898   -0.9580 H         1 RES1    0.0000
      3 C1        -1.3748    3.4105    0.9444 C.2       1 RES1    0.0000
      4 N2        -1.6661    3.3519    2.2137 N.2       1 RES1    0.0000
      5 O1        -0.5440    3.8225    2.8932 O.3       1 RES1    0.0000
      6 C2         0.4006    4.1603    1.9682 C.2       1 RES1    0.0000
      7 C3        -0.0547    3.9368    0.6968 C.2       1 RES1    0.0000
      8 C4        -3.4403    2.3453    0.2862 C.2       1 RES1    0.0000
      9 H2        -3.6492    2.2052    1.1815 H         1 RES1    0.0000
     10 C5        -4.3148    1.8734   -0.6623 C.2       1 RES1    0.0000
     11 C6        -4.0272    2.0267   -2.0664 C.2       1 RES1    0.0000
     12 O2        -3.0538    2.6555   -2.4937 O.2       1 RES1    0.0000
     13 C7        -4.9476    1.4462   -3.1445 C.2       1 RES1    0.0000
     14 O3        -5.8041    2.0777   -3.6731 O.2       1 RES1    0.0000
     15 O4        -4.5490    0.2351   -3.4841 O.3       1 RES1    0.0000
     16 C8        -5.2607   -0.3957   -4.6008 C.3       1 RES1    0.0000
     17 H3        -6.1588   -0.6342   -4.3229 H         1 RES1    0.0000
     18 H4        -5.3279    0.2288   -5.3405 H         1 RES1    0.0000
     19 C9        -4.5730   -1.5465   -5.0156 C.3       1 RES1    0.0000
     20 H5        -5.0439   -1.9542   -5.7469 H         1 RES1    0.0000
     21 H6        -4.5170   -2.1666   -4.2853 H         1 RES1    0.0000
     22 H7        -3.6883   -1.3055   -5.2997 H         1 RES1    0.0000
     23 C10       -5.5195    1.1416   -0.2465 C.2       1 RES1    0.0000
     24 O5        -6.2514    0.5740   -1.0217 O.2       1 RES1    0.0000
     25 O6        -5.7298    1.1751    1.0656 O.3       1 RES1    0.0000
     26 C11       -6.8993    0.4537    1.5461 C.3       1 RES1    0.0000
     27 H8        -6.8513   -0.4761    1.2724 H         1 RES1    0.0000
     28 H9        -7.7055    0.8405    1.1711 H         1 RES1    0.0000
     29 C12       -6.9315    0.5456    3.0265 C.3       1 RES1    0.0000
     30 H10       -7.6980    0.0737    3.3597 H         1 RES1    0.0000
     31 H11       -6.9840    1.4680    3.2877 H         1 RES1    0.0000
     32 H12       -6.1321    0.1558    3.3879 H         1 RES1    0.0000
     33 C13        1.7161    4.6250    2.3892 C.2       1 RES1    0.0000
     34 O7         2.5457    4.9958    1.5994 O.2       1 RES1    0.0000
     35 O8         1.8811    4.5504    3.7024 O.3       1 RES1    0.0000
     36 C14        3.1648    4.9862    4.2112 C.3       1 RES1    0.0000
     37 H13        3.1797    4.8921    5.1671 H         1 RES1    0.0000
     38 H14        3.3061    5.9068    3.9782 H         1 RES1    0.0000
     39 H15        3.8610    4.4488    3.8267 H         1 RES1    0.0000
     40 N3         0.5839    4.1564   -0.4638 N.3       1 RES1    0.0000
     41 H16        1.4930    4.5093   -0.4001 H         1 RES1    0.0000
     42 C15        0.1561    3.6826   -1.7520 C.3       1 RES1    0.0000
     43 H17        0.7801    3.9696   -2.4216 H         1 RES1    0.0000
     44 H18       -0.7130    4.0367   -1.9504 H         1 RES1    0.0000
     45 H19        0.1163    2.7234   -1.7426 H         1 RES1    0.0000
@<TRIPOS>BOND
     1    1    2 1
     2    3    1 1
     3    4    3 2
     4    5    4 1
     5    6    5 1
     6    7    3 1
     7    8    1 1
     8    9    8 1
     9   10    8 2
    10   11   10 1
    11   12   11 2
    12   13   11 1
    13   14   13 2
    14   15   13 1
    15   16   15 1
    16   17   16 1
    17   18   16 1
    18   19   16 1
    19   20   19 1
    20   21   19 1
    21   22   19 1
    22   23   10 1
    23   24   23 2
    24   25   23 1
    25   26   25 1
    26   27   26 1
    27   28   26 1
    28   29   26 1
    29   30   29 1
    30   31   29 1
    31   32   29 1
    32   33    6 1
    33   34   33 2
    34   35   33 1
    35   36   35 1
    36   37   36 1
    37   38   36 1
    38   39   36 1
    39   40    7 1
    40   41   40 1
    41   42   40 1
    42   43   42 1
    43   44   42 1
    44   45   42 1
    45    6    7 2
@<TRIPOS>SUBSTRUCTURE
     1 RES1 1

@<TRIPOS>CRYSIN
   8.0448   10.7261   11.0069 100.3570 102.3100 102.5710   2 1

