# MOL2 file generated by ConQuest
# Please check atom types

@<TRIPOS>MOLECULE
HOTYOG
    51    54     1
SMALL
NO_CHARGES
****
Generated from CSD

@<TRIPOS>ATOM
      1 C1        11.0535    0.7990    2.2524 C.3       1 RES1    0.0000
      2 H1        10.9022    1.3251    1.4273 H         1 RES1    0.0000
      3 H2        11.3110   -0.1163    1.9787 H         1 RES1    0.0000
      4 C2        12.2090    1.4164    3.0094 C.2       1 RES1    0.0000
      5 H3        12.7486    2.0329    2.5301 H         1 RES1    0.0000
      6 C3        12.5478    1.1882    4.2699 C.2       1 RES1    0.0000
      7 H4        13.3018    1.6687    4.5923 H         1 RES1    0.0000
      8 C4        11.8876    0.2675    5.2510 C.3       1 RES1    0.0000
      9 H5        11.4664    0.8160    5.9599 H         1 RES1    0.0000
     10 H6        12.5888   -0.2836    5.6812 H         1 RES1    0.0000
     11 C5        10.8238   -0.6711    4.6692 C.3       1 RES1    0.0000
     12 H7        11.2043   -1.1748    3.9076 H         1 RES1    0.0000
     13 H8        10.5423   -1.3234    5.3587 H         1 RES1    0.0000
     14 C6         9.6236    0.1253    4.2034 C.2       1 RES1    0.0000
     15 C7         7.7853    1.3225    1.7141 C.3       1 RES1    0.0000
     16 C8         7.5674   -0.1861    1.7247 C.ar      1 RES1    0.0000
     17 C9         8.5054   -1.0236    1.1072 C.ar      1 RES1    0.0000
     18 H9         9.2464   -0.6398    0.6529 H         1 RES1    0.0000
     19 C10        8.3719   -2.3997    1.1478 C.ar      1 RES1    0.0000
     20 H10        9.0217   -2.9518    0.7306 H         1 RES1    0.0000
     21 C11        7.2934   -2.9733    1.7961 C.ar      1 RES1    0.0000
     22 H11        7.2025   -3.9182    1.8294 H         1 RES1    0.0000
     23 C12        6.3468   -2.1626    2.3973 C.ar      1 RES1    0.0000
     24 H12        5.5964   -2.5528    2.8306 H         1 RES1    0.0000
     25 C13        6.4890   -0.7758    2.3714 C.ar      1 RES1    0.0000
     26 H13        5.8427   -0.2291    2.8008 H         1 RES1    0.0000
     27 C14        6.5732    2.1206    2.2147 C.ar      1 RES1    0.0000
     28 C15        6.3791    2.3022    3.5869 C.ar      1 RES1    0.0000
     29 H14        6.9941    1.9237    4.2042 H         1 RES1    0.0000
     30 C16        5.2979    3.0297    4.0535 C.ar      1 RES1    0.0000
     31 H15        5.1812    3.1496    4.9885 H         1 RES1    0.0000
     32 C17        4.3833    3.5862    3.1718 C.ar      1 RES1    0.0000
     33 H16        3.6478    4.0926    3.4975 H         1 RES1    0.0000
     34 C18        4.5550    3.3929    1.8095 C.ar      1 RES1    0.0000
     35 H17        3.9278    3.7616    1.1983 H         1 RES1    0.0000
     36 C19        5.6402    2.6619    1.3329 C.ar      1 RES1    0.0000
     37 H18        5.7461    2.5313    0.3981 H         1 RES1    0.0000
     38 C20        8.2207    1.8387    0.3382 C.ar      1 RES1    0.0000
     39 C21        7.7434    1.2741   -0.8402 C.ar      1 RES1    0.0000
     40 H19        7.1777    0.5118   -0.8022 H         1 RES1    0.0000
     41 C22        8.0870    1.8199   -2.0760 C.ar      1 RES1    0.0000
     42 H20        7.7479    1.4298   -2.8724 H         1 RES1    0.0000
     43 C23        8.9158    2.9178   -2.1540 C.ar      1 RES1    0.0000
     44 H21        9.1583    3.2757   -2.9998 H         1 RES1    0.0000
     45 C24        9.3938    3.4985   -0.9855 C.ar      1 RES1    0.0000
     46 H22        9.9643    4.2573   -1.0311 H         1 RES1    0.0000
     47 C25        9.0406    2.9706    0.2484 C.ar      1 RES1    0.0000
     48 H23        9.3582    3.3831    1.0431 H         1 RES1    0.0000
     49 N1         9.7880    0.7257    2.9953 N.am      1 RES1    0.0000
     50 O1         8.6082    0.2443    4.8720 O.2       1 RES1    0.0000
     51 O2         8.8391    1.7159    2.6937 O.3       1 RES1    0.0000
@<TRIPOS>BOND
     1    1    2 1
     2    3    1 1
     3    4    1 1
     4    5    4 1
     5    6    4 2
     6    7    6 1
     7    8    6 1
     8    9    8 1
     9   10    8 1
    10   11    8 1
    11   12   11 1
    12   13   11 1
    13   14   11 1
    14   15   16 1
    15   16   17 ar
    16   17   18 1
    17   19   17 ar
    18   20   19 1
    19   21   19 ar
    20   22   21 1
    21   23   21 ar
    22   24   23 1
    23   25   16 ar
    24   26   25 1
    25   27   15 1
    26   28   27 ar
    27   29   28 1
    28   30   28 ar
    29   31   30 1
    30   32   30 ar
    31   33   32 1
    32   34   32 ar
    33   35   34 1
    34   36   27 ar
    35   37   36 1
    36   38   15 1
    37   39   38 ar
    38   40   39 1
    39   41   39 ar
    40   42   41 1
    41   43   41 ar
    42   44   43 1
    43   45   43 ar
    44   46   45 1
    45   47   38 ar
    46   48   47 1
    47   49    1 1
    48   50   14 2
    49   51   15 1
    50   14   49 1
    51   23   25 ar
    52   34   36 ar
    53   45   47 ar
    54   49   51 1
@<TRIPOS>SUBSTRUCTURE
     1 RES1 1

@<TRIPOS>CRYSIN
  10.8072    8.9476   19.9523  90.0000  93.9010  90.0000  14 1

