# MOL2 file generated by ConQuest
# Please check atom types

@<TRIPOS>MOLECULE
HOVPUE
    59    62     3
SMALL
NO_CHARGES
****
Generated from CSD

@<TRIPOS>ATOM
      1 O1        -0.3145    7.0195   -5.8868 O.3       1 RES1    0.0000
      2 O2         0.4846    5.7212   -2.8096 O.3       1 RES1    0.0000
      3 O3        -0.8852    1.5225   -7.2324 O.3       1 RES1    0.0000
      4 O4         1.1943    0.4674   -3.7920 O.2       1 RES1    0.0000
      5 O5        -0.9002    0.3167   -3.2236 O.2       1 RES1    0.0000
      6 N1         0.1736    3.4271   -3.3672 N.2       1 RES1    0.0000
      7 N2        -0.2326    3.7607   -4.6640 N.pl3     1 RES1    0.0000
      8 N3        -0.5325    5.6513   -6.1559 N.2       1 RES1    0.0000
      9 N4         0.0974    7.2270   -4.5669 N.2       1 RES1    0.0000
     10 N5        -0.7670    2.8392   -6.7653 N.2       1 RES1    0.0000
     11 N6        -0.6371    0.6034   -6.2508 N.2       1 RES1    0.0000
     12 N7        -0.0031    0.6504   -3.9594 N.pl3     1 RES1    0.0000
     13 C1         0.9614    4.0551   -1.1972 C.ar      1 RES1    0.0000
     14 C2         1.1891    5.0895   -0.2907 C.ar      1 RES1    0.0000
     15 H1         1.0590    5.9908   -0.5611 H         1 RES1    0.0000
     16 C3         1.6022    4.8130    0.9969 C.ar      1 RES1    0.0000
     17 H2         1.7540    5.5214    1.6127 H         1 RES1    0.0000
     18 C4         1.7949    3.4971    1.3876 C.ar      1 RES1    0.0000
     19 H3         2.0746    3.3032    2.2749 H         1 RES1    0.0000
     20 C5         1.5811    2.4635    0.4929 C.ar      1 RES1    0.0000
     21 H4         1.7196    1.5640    0.7677 H         1 RES1    0.0000
     22 C6         1.1664    2.7327   -0.8021 C.ar      1 RES1    0.0000
     23 H5         1.0221    2.0221   -1.4158 H         1 RES1    0.0000
     24 C7         0.5006    4.3490   -2.5552 C.2       1 RES1    0.0000
     25 C8        -0.2437    5.0792   -5.0288 C.2       1 RES1    0.0000
     26 C9         0.1189    6.0466   -4.0749 C.2       1 RES1    0.0000
     27 C10       -0.4487    2.7012   -5.5067 C.2       1 RES1    0.0000
     28 C11       -0.3682    1.3187   -5.2039 C.2       1 RES1    0.0000
     29 O6         2.9253    1.6404    5.0158 O.3       2 RES2    0.0000
     30 O7         3.8991    2.9478    8.0447 O.3       2 RES2    0.0000
     31 O8         2.8165    7.1944    3.5846 O.3       2 RES2    0.0000
     32 N8         3.6247    7.9856    6.8987 N.pl3     2 RES2    0.0000
     33 O9         4.7766    8.3729    7.0477 O.2       2 RES2    0.0000
     34 O10        2.7003    8.1142    7.6893 O.2       2 RES2    0.0000
     35 N9         3.8298    5.2403    7.4124 N.2       2 RES2    0.0000
     36 N10        3.3882    4.9114    6.1303 N.pl3     2 RES2    0.0000
     37 N11        2.8986    3.0200    4.6861 N.2       2 RES2    0.0000
     38 N12        3.3029    1.4299    6.3487 N.2       2 RES2    0.0000
     39 N13        2.9551    5.8771    4.0108 N.2       2 RES2    0.0000
     40 N14        2.9665    8.0835    4.6110 N.2       2 RES2    0.0000
     41 C12        4.5010    4.6155    9.6200 C.ar      2 RES2    0.0000
     42 C13        4.7862    3.5798   10.5071 C.ar      2 RES2    0.0000
     43 H6         4.7127    2.6763   10.2219 H         2 RES2    0.0000
     44 C14        5.1761    3.8672   11.8055 C.ar      2 RES2    0.0000
     45 H7         5.3657    3.1601   12.4110 H         2 RES2    0.0000
     46 C15        5.2900    5.1842   12.2245 C.ar      2 RES2    0.0000
     47 H8         5.5543    5.3816   13.1156 H         2 RES2    0.0000
     48 C16        5.0156    6.2132   11.3345 C.ar      2 RES2    0.0000
     49 H9         5.0946    7.1160   11.6204 H         2 RES2    0.0000
     50 C17        4.6287    5.9392   10.0387 C.ar      2 RES2    0.0000
     51 H10        4.4507    6.6498    9.4336 H         2 RES2    0.0000
     52 C18        4.0497    4.3155    8.2603 C.2       2 RES2    0.0000
     53 C19        3.2507    3.5884    5.8047 C.2       2 RES2    0.0000
     54 C20        3.4960    2.6242    6.7899 C.2       2 RES2    0.0000
     55 C21        3.1830    5.9779    5.2975 C.2       2 RES2    0.0000
     56 C22        3.1895    7.3394    5.6449 C.2       2 RES2    0.0000
     57 N15        3.0490    7.8795    7.0390 Du        3 SUP3    0.0000
     58 O11        4.0823    8.5128    7.2848 Du        3 SUP3    0.0000
     59 O12        2.1423    7.6255    7.7415 Du        3 SUP3    0.0000
@<TRIPOS>BOND
     1    1    8 1
     2    2   24 1
     3    3   10 1
     4    4   12 2
     5    5   12 2
     6    6    7 1
     7    7   25 1
     8    8   25 2
     9    9    1 1
    10   10   27 2
    11   11    3 1
    12   12   28 1
    13   13   14 ar
    14   14   15 1
    15   16   14 ar
    16   17   16 1
    17   18   16 ar
    18   19   18 1
    19   20   18 ar
    20   21   20 1
    21   22   13 ar
    22   23   22 1
    23   24    6 2
    24   25   26 1
    25   26    2 1
    26   27    7 1
    27   28   11 2
    28   29   37 1
    29   30   52 1
    30   31   39 1
    31   32   33 2
    32   34   32 2
    33   35   36 1
    34   36   53 1
    35   37   53 2
    36   38   29 1
    37   39   55 2
    38   40   31 1
    39   41   42 ar
    40   42   43 1
    41   44   42 ar
    42   45   44 1
    43   46   44 ar
    44   47   46 1
    45   48   46 ar
    46   49   48 1
    47   50   41 ar
    48   51   50 1
    49   52   35 2
    50   53   54 1
    51   54   30 1
    52   55   36 1
    53   56   32 1
    54    9   26 2
    55   13   24 1
    56   20   22 ar
    57   27   28 1
    58   38   54 2
    59   40   56 2
    60   41   52 1
    61   48   50 ar
    62   55   56 1
@<TRIPOS>SUBSTRUCTURE
     1 RES1 1
     2 RES2 29
     3 SUP3 57

@<TRIPOS>CRYSIN
  13.8200   16.0740   11.3880  90.0000 107.2730  90.0000  14 1

