# MOL2 file generated by ConQuest
# Please check atom types

@<TRIPOS>MOLECULE
HOWJEI
    30    31     1
SMALL
NO_CHARGES
****
Generated from CSD

@<TRIPOS>ATOM
      1 N1         5.3890    1.5465    1.2346 N.pl3     1 RES1    0.0000
      2 N2         1.4840    0.8153    3.3419 N.pl3     1 RES1    0.0000
      3 N3         5.4191    2.8483    5.5393 N.pl3     1 RES1    0.0000
      4 O1         5.9913    0.2284    4.6105 O.3       1 RES1    0.0000
      5 O2         7.0352    1.8456    3.4122 O.3       1 RES1    0.0000
      6 O3         6.1831    1.2292    0.3877 O.2       1 RES1    0.0000
      7 O4         4.7710    2.5768    1.2170 O.2       1 RES1    0.0000
      8 O5         1.1490   -0.2389    2.8850 O.2       1 RES1    0.0000
      9 O6         0.7303    1.5713    3.9135 O.2       1 RES1    0.0000
     10 O7         6.1364    3.8041    5.4632 O.2       1 RES1    0.0000
     11 O8         5.1666    2.2805    6.5760 O.2       1 RES1    0.0000
     12 C1         5.7979    1.2531    3.6839 C.3       1 RES1    0.0000
     13 C2         5.2079    0.6041    2.4024 C.3       1 RES1    0.0000
     14 C3         3.7519    0.1864    2.5512 C.3       1 RES1    0.0000
     15 C4         2.9058    1.2942    3.1533 C.3       1 RES1    0.0000
     16 C5         3.4485    1.7644    4.4933 C.3       1 RES1    0.0000
     17 C6         4.8441    2.3140    4.2473 C.3       1 RES1    0.0000
     18 C7         8.0247    0.8574    3.7928 C.3       1 RES1    0.0000
     19 C8         7.3815   -0.0612    4.7006 C.3       1 RES1    0.0000
     20 H1         5.7766    0.1797    2.2080 H         1 RES1    0.0000
     21 H2         3.4158   -0.1051    1.7078 H         1 RES1    0.0000
     22 H3         3.7726   -0.5238    3.1545 H         1 RES1    0.0000
     23 H4         2.8133    2.0454    2.6086 H         1 RES1    0.0000
     24 H5         2.9155    2.4985    4.8682 H         1 RES1    0.0000
     25 H6         3.5056    1.0179    5.0954 H         1 RES1    0.0000
     26 H7         4.8142    3.0299    3.7132 H         1 RES1    0.0000
     27 H8         8.6896    1.4050    3.9826 H         1 RES1    0.0000
     28 H9         8.2550    0.4875    3.0104 H         1 RES1    0.0000
     29 H10        7.5382   -0.9558    4.5097 H         1 RES1    0.0000
     30 H11        7.7662    0.5161    5.6576 H         1 RES1    0.0000
@<TRIPOS>BOND
     1    1    6 2
     2    2    8 2
     3    3   10 2
     4    4   12 1
     5    5   12 1
     6    7    1 2
     7    9    2 2
     8   11    3 2
     9   12   13 1
    10   13    1 1
    11   14   13 1
    12   15    2 1
    13   16   15 1
    14   17    3 1
    15   18    5 1
    16   19    4 1
    17   20   13 1
    18   21   14 1
    19   22   14 1
    20   23   15 1
    21   24   16 1
    22   25   16 1
    23   26   17 1
    24   27   18 1
    25   28   18 1
    26   29   19 1
    27   30   19 1
    28   12   17 1
    29   14   15 1
    30   16   17 1
    31   18   19 1
@<TRIPOS>SUBSTRUCTURE
     1 RES1 1

@<TRIPOS>CRYSIN
  10.6260    9.5580   11.9660  90.0000 101.7900  90.0000 231 1

