# MOL2 file generated by ConQuest
# Please check atom types

@<TRIPOS>MOLECULE
HOWJAE
    58    60     2
SMALL
NO_CHARGES
****
Generated from CSD

@<TRIPOS>ATOM
      1 N1         4.6426    8.2512    0.0377 N.2       1 RES1    0.0000
      2 N2         2.2350    6.5913   -1.8681 N.2       1 RES1    0.0000
      3 O1         2.3306    5.5196   -2.7381 O.3       1 RES1    0.0000
      4 C1         3.4455    7.9301   -0.3208 C.2       1 RES1    0.0000
      5 C2         2.2515    8.6746    0.1415 C.ar      1 RES1    0.0000
      6 C3         0.9904    8.1009    0.2359 C.ar      1 RES1    0.0000
      7 C4        -0.0646    8.8526    0.6793 C.ar      1 RES1    0.0000
      8 C5         0.1123   10.1793    1.0133 C.ar      1 RES1    0.0000
      9 C6         1.3661   10.7530    0.9548 C.ar      1 RES1    0.0000
     10 C7         2.4468    9.9989    0.5359 C.ar      1 RES1    0.0000
     11 C8         3.8464   10.5137    0.5397 C.3       1 RES1    0.0000
     12 C9         4.8004    9.4023    0.9643 C.3       1 RES1    0.0000
     13 C10        4.5291    8.9212    2.3814 C.3       1 RES1    0.0000
     14 C11        6.2284    9.8966    0.8680 C.3       1 RES1    0.0000
     15 C12        3.3316    6.8115   -1.2549 C.2       1 RES1    0.0000
     16 H1         0.8555    7.1807   -0.0189 H         1 RES1    0.0000
     17 H2        -0.9253    8.4437    0.7925 H         1 RES1    0.0000
     18 H3        -0.6412   10.7169    1.2643 H         1 RES1    0.0000
     19 H4         1.4994   11.6672    1.2077 H         1 RES1    0.0000
     20 H5         3.9111   11.2462    1.1511 H         1 RES1    0.0000
     21 H6         4.0792   10.8252   -0.3397 H         1 RES1    0.0000
     22 H7         5.1441    8.2151    2.6041 H         1 RES1    0.0000
     23 H8         4.6509    9.6585    2.9815 H         1 RES1    0.0000
     24 H9         3.6346    8.5880    2.4343 H         1 RES1    0.0000
     25 H10        6.8293    9.2014    1.1322 H         1 RES1    0.0000
     26 H11        6.4078   10.1396   -0.0377 H         1 RES1    0.0000
     27 H12        6.3495   10.6568    1.4341 H         1 RES1    0.0000
     28 H13        4.1058    6.2185   -1.4153 H         1 RES1    0.0000
     29 H14        1.3055    5.3885   -3.0947 H         1 RES1    0.0000
     30 N3         9.5241    5.0433   -3.9325 N.2       2 RES2    0.0000
     31 N4         7.0506    6.6719   -2.1172 N.2       2 RES2    0.0000
     32 O2         7.1471    7.5031   -1.0096 O.3       2 RES2    0.0000
     33 C13        8.3376    5.5064   -3.7514 C.2       2 RES2    0.0000
     34 C14        7.1782    5.1251   -4.5892 C.ar      2 RES2    0.0000
     35 C15        6.0361    5.9082   -4.7289 C.ar      2 RES2    0.0000
     36 C16        4.9887    5.4667   -5.5157 C.ar      2 RES2    0.0000
     37 C17        5.0806    4.2663   -6.1743 C.ar      2 RES2    0.0000
     38 C18        6.2145    3.4989   -6.0649 C.ar      2 RES2    0.0000
     39 C19        7.2752    3.9151   -5.2818 C.ar      2 RES2    0.0000
     40 C20        8.5332    3.1309   -5.1082 C.3       2 RES2    0.0000
     41 C21        9.7392    4.0450   -5.0063 C.3       2 RES2    0.0000
     42 C22       10.0038    4.8052   -6.2989 C.3       2 RES2    0.0000
     43 C23       10.9646    3.2139   -4.6326 C.3       2 RES2    0.0000
     44 C24        8.1941    6.4290   -2.6173 C.2       2 RES2    0.0000
     45 H15        5.9811    6.7597   -4.2835 H         2 RES2    0.0000
     46 H16        4.1886    5.9899   -5.5856 H         2 RES2    0.0000
     47 H17        4.3512    3.9692   -6.7178 H         2 RES2    0.0000
     48 H18        6.2738    2.6582   -6.5291 H         2 RES2    0.0000
     49 H19        8.6418    2.5379   -5.8497 H         2 RES2    0.0000
     50 H20        8.4636    2.6101   -4.3024 H         2 RES2    0.0000
     51 H21        9.2274    5.3284   -6.5291 H         2 RES2    0.0000
     52 H22       10.7519    5.3885   -6.1705 H         2 RES2    0.0000
     53 H23       10.1925    4.1857   -7.0008 H         2 RES2    0.0000
     54 H24       10.7877    2.7304   -3.8118 H         2 RES2    0.0000
     55 H25       11.1563    2.5860   -5.3403 H         2 RES2    0.0000
     56 H26       11.7253    3.7888   -4.5100 H         2 RES2    0.0000
     57 H27        8.9889    6.8560   -2.2455 H         2 RES2    0.0000
     58 H28        5.9926    7.6859   -0.6982 H         2 RES2    0.0000
@<TRIPOS>BOND
     1    1    4 2
     2    2    3 1
     3    3   29 1
     4    4    5 1
     5    5    6 ar
     6    6    7 ar
     7    7    8 ar
     8    8    9 ar
     9    9   10 ar
    10   10    5 ar
    11   11   10 1
    12   12    1 1
    13   13   12 1
    14   14   12 1
    15   15    2 2
    16   16    6 1
    17   17    7 1
    18   18    8 1
    19   19    9 1
    20   20   11 1
    21   21   11 1
    22   22   13 1
    23   23   13 1
    24   24   13 1
    25   25   14 1
    26   26   14 1
    27   27   14 1
    28   28   15 1
    29   30   33 2
    30   31   32 1
    31   32   58 1
    32   33   34 1
    33   34   35 ar
    34   35   36 ar
    35   36   37 ar
    36   37   38 ar
    37   38   39 ar
    38   39   34 ar
    39   40   39 1
    40   41   30 1
    41   42   41 1
    42   43   41 1
    43   44   31 2
    44   45   35 1
    45   46   36 1
    46   47   37 1
    47   48   38 1
    48   49   40 1
    49   50   40 1
    50   51   42 1
    51   52   42 1
    52   53   42 1
    53   54   43 1
    54   55   43 1
    55   56   43 1
    56   57   44 1
    57    4   15 1
    58   11   12 1
    59   33   44 1
    60   40   41 1
@<TRIPOS>SUBSTRUCTURE
     1 RES1 1
     2 RES2 30

@<TRIPOS>CRYSIN
   9.6840   12.0280   19.1660  90.0000 100.0800  90.0000  14 1

