# MOL2 file generated by ConQuest
# Please check atom types

@<TRIPOS>MOLECULE
HOWSOD
    45    48     1
SMALL
NO_CHARGES
****
Generated from CSD

@<TRIPOS>ATOM
      1 O1         4.6030    2.7444    6.7546 O.2       1 RES1    0.0000
      2 O2         2.5048    0.7015    5.6121 O.2       1 RES1    0.0000
      3 O3        -2.6766    1.9592   -0.6356 O.2       1 RES1    0.0000
      4 N1         2.8482    1.8123    3.5822 N.am      1 RES1    0.0000
      5 O4         3.4638    5.4702    0.1012 O.2       1 RES1    0.0000
      6 N2        -1.5319    2.0748   -1.0714 N.pl3     1 RES1    0.0000
      7 C1         4.0546    3.5923    6.0732 C.2       1 RES1    0.0000
      8 C2        -0.4133    1.8169   -0.1596 C.ar      1 RES1    0.0000
      9 O5        -1.2795    2.3669   -2.2359 O.2       1 RES1    0.0000
     10 C3         3.9194    6.0025    5.3061 C.ar      1 RES1    0.0000
     11 H1         3.3134    5.7634    4.6430 H         1 RES1    0.0000
     12 C4         4.3996    3.6186    2.9912 C.2       1 RES1    0.0000
     13 H2         5.1653    3.3178    3.4253 H         1 RES1    0.0000
     14 C5         2.0514    4.7536    1.8386 C.2       1 RES1    0.0000
     15 H3         1.3110    5.1967    1.4922 H         1 RES1    0.0000
     16 C6         4.4136    5.0382    6.1826 C.ar      1 RES1    0.0000
     17 C7         3.0631    3.2806    3.5668 C.3       1 RES1    0.0000
     18 C8        -0.6934    1.4978    1.1594 C.ar      1 RES1    0.0000
     19 H4        -1.5679    1.4850    1.4742 H         1 RES1    0.0000
     20 C9         2.9191    3.1817    5.1489 C.3       1 RES1    0.0000
     21 H5         2.0780    3.5913    5.4400 H         1 RES1    0.0000
     22 C10        2.8089    0.8781    2.4695 C.3       1 RES1    0.0000
     23 H6         2.6915   -0.0223    2.8096 H         1 RES1    0.0000
     24 H7         3.6524    0.9105    1.9914 H         1 RES1    0.0000
     25 C11        1.9254    1.5528    0.1916 C.ar      1 RES1    0.0000
     26 H8         2.7994    1.5719   -0.1261 H         1 RES1    0.0000
     27 C12        2.7268    1.6677    4.9180 C.2       1 RES1    0.0000
     28 C13        4.5305    4.3348    1.8796 C.2       1 RES1    0.0000
     29 H9         5.3800    4.4785    1.5304 H         1 RES1    0.0000
     30 C14        3.3591    4.9050    1.1857 C.2       1 RES1    0.0000
     31 C15        1.9134    3.9904    2.9180 C.2       1 RES1    0.0000
     32 H10        1.0660    3.8923    3.2875 H         1 RES1    0.0000
     33 C16        5.3080    5.4173    7.1928 C.ar      1 RES1    0.0000
     34 H11        5.6417    4.7763    7.7790 H         1 RES1    0.0000
     35 C17        0.3703    1.2004    1.9927 C.ar      1 RES1    0.0000
     36 H12        0.2081    0.9903    2.8838 H         1 RES1    0.0000
     37 C18        1.6782    1.2085    1.5177 C.ar      1 RES1    0.0000
     38 C19        0.8754    1.8656   -0.6584 C.ar      1 RES1    0.0000
     39 H13        1.0343    2.1025   -1.5431 H         1 RES1    0.0000
     40 C20        5.6979    6.7360    7.3235 C.ar      1 RES1    0.0000
     41 H14        6.2743    6.9853    8.0090 H         1 RES1    0.0000
     42 C21        4.3376    7.3224    5.4270 C.ar      1 RES1    0.0000
     43 H15        4.0203    7.9642    4.8338 H         1 RES1    0.0000
     44 C22        5.2292    7.6894    6.4317 C.ar      1 RES1    0.0000
     45 H16        5.5103    8.5736    6.5051 H         1 RES1    0.0000
@<TRIPOS>BOND
     1    1    7 2
     2    2   27 2
     3    3    6 2
     4    4   17 1
     5    5   30 2
     6    6    8 1
     7    7   16 1
     8    8   18 ar
     9    9    6 2
    10   10   11 1
    11   12   13 1
    12   14   15 1
    13   16   10 ar
    14   17   12 1
    15   18   19 1
    16   20    7 1
    17   21   20 1
    18   22    4 1
    19   23   22 1
    20   24   22 1
    21   25   26 1
    22   27    4 1
    23   28   12 2
    24   29   28 1
    25   30   14 1
    26   31   14 2
    27   32   31 1
    28   33   16 ar
    29   34   33 1
    30   35   18 ar
    31   36   35 1
    32   37   22 1
    33   38    8 ar
    34   39   38 1
    35   40   33 ar
    36   41   40 1
    37   42   10 ar
    38   43   42 1
    39   44   40 ar
    40   45   44 1
    41   17   20 1
    42   17   31 1
    43   20   27 1
    44   25   37 ar
    45   25   38 ar
    46   28   30 1
    47   35   37 ar
    48   42   44 ar
@<TRIPOS>SUBSTRUCTURE
     1 RES1 1

@<TRIPOS>CRYSIN
   8.1161   10.6291   11.2955  70.9290  79.2740  76.6250   2 1

