# MOL2 file generated by ConQuest
# Please check atom types

@<TRIPOS>MOLECULE
HOWVUM
    67    71     1
SMALL
NO_CHARGES
****
Generated from CSD

@<TRIPOS>ATOM
      1 O1         1.9558   15.9249    4.5903 O.3       1 RES1    0.0000
      2 O2         0.5940    8.4324    6.6112 O.2       1 RES1    0.0000
      3 O3        -0.5590    6.8063    7.3508 O.2       1 RES1    0.0000
      4 O4        -4.5582    7.4621    9.8320 O.2       1 RES1    0.0000
      5 O5        -5.3093    9.4149   10.1158 O.2       1 RES1    0.0000
      6 N1        -0.4252   12.1988    6.2720 N.2       1 RES1    0.0000
      7 N2        -0.3816   10.8604    6.5811 N.pl3     1 RES1    0.0000
      8 H1         0.2901   10.3850    6.3322 H         1 RES1    0.0000
      9 N3        -0.4070    7.9884    7.1536 N.pl3     1 RES1    0.0000
     10 N4        -4.5209    8.6358    9.5830 N.pl3     1 RES1    0.0000
     11 C1         0.7432   19.2409    5.5925 C.ar      1 RES1    0.0000
     12 H2        -0.0896   19.0503    5.9629 H         1 RES1    0.0000
     13 C2         1.1627   20.5491    5.5083 C.ar      1 RES1    0.0000
     14 H3         0.6118   21.2271    5.8270 H         1 RES1    0.0000
     15 C3         2.3508   20.8615    4.9743 C.ar      1 RES1    0.0000
     16 H4         2.6214   21.7489    4.9178 H         1 RES1    0.0000
     17 C4         3.1558   19.8654    4.5185 C.ar      1 RES1    0.0000
     18 H5         3.9879   20.0730    4.1565 H         1 RES1    0.0000
     19 C5         2.7446   18.5302    4.5883 C.ar      1 RES1    0.0000
     20 H6         3.2972   17.8581    4.2587 H         1 RES1    0.0000
     21 C6         1.5382   18.2055    5.1355 C.ar      1 RES1    0.0000
     22 C7         1.0555   16.8044    5.1968 C.2       1 RES1    0.0000
     23 C8        -0.0744   16.3654    5.7200 C.2       1 RES1    0.0000
     24 H7        -0.6176   16.9611    6.1842 H         1 RES1    0.0000
     25 C9        -0.5103   14.9308    5.5877 C.3       1 RES1    0.0000
     26 H8        -0.9223   14.6548    6.4320 H         1 RES1    0.0000
     27 C10        0.7022   14.0562    5.3423 C.2       1 RES1    0.0000
     28 C11        1.8395   14.5840    4.8468 C.2       1 RES1    0.0000
     29 C12       -1.5675   14.8588    4.4920 C.ar      1 RES1    0.0000
     30 C13       -2.8476   15.3153    4.7723 C.ar      1 RES1    0.0000
     31 H9        -3.0575   15.5975    5.6334 H         1 RES1    0.0000
     32 C14       -3.8251   15.3557    3.7764 C.ar      1 RES1    0.0000
     33 H10       -4.6784   15.6623    3.9773 H         1 RES1    0.0000
     34 C15       -3.5351   14.9456    2.5160 C.ar      1 RES1    0.0000
     35 H11       -4.1886   14.9710    1.8545 H         1 RES1    0.0000
     36 C16       -2.2750   14.4945    2.2202 C.ar      1 RES1    0.0000
     37 H12       -2.0781   14.2130    1.3554 H         1 RES1    0.0000
     38 C17       -1.2920   14.4543    3.1919 C.ar      1 RES1    0.0000
     39 H13       -0.4398   14.1539    2.9742 H         1 RES1    0.0000
     40 C18        0.6007   12.6582    5.6899 C.2       1 RES1    0.0000
     41 H14        1.3041   12.0857    5.4831 H         1 RES1    0.0000
     42 C19       -1.3929   10.2894    7.2751 C.ar      1 RES1    0.0000
     43 C20       -2.4553   11.0781    7.7309 C.ar      1 RES1    0.0000
     44 H15       -2.4639   11.9867    7.5312 H         1 RES1    0.0000
     45 C21       -3.4802   10.5477    8.4621 C.ar      1 RES1    0.0000
     46 H16       -4.1702   11.0935    8.7640 H         1 RES1    0.0000
     47 C22       -3.4879    9.1892    8.7556 C.ar      1 RES1    0.0000
     48 C23       -2.4844    8.3653    8.3190 C.ar      1 RES1    0.0000
     49 H17       -2.5005    7.4560    8.5114 H         1 RES1    0.0000
     50 C24       -1.4459    8.9138    7.5866 C.ar      1 RES1    0.0000
     51 C25        3.1144   13.8803    4.4740 C.3       1 RES1    0.0000
     52 H18        3.0401   12.9579    4.7963 H         1 RES1    0.0000
     53 C26        4.3373   14.4987    5.1499 C.3       1 RES1    0.0000
     54 H19        4.4009   15.4337    4.9010 H         1 RES1    0.0000
     55 H20        4.2259   14.4549    6.1133 H         1 RES1    0.0000
     56 C27        5.6249   13.7921    4.7651 C.3       1 RES1    0.0000
     57 H21        6.3767   14.2606    5.1595 H         1 RES1    0.0000
     58 H22        5.6137   12.8894    5.1235 H         1 RES1    0.0000
     59 C28        5.8069   13.7293    3.2809 C.3       1 RES1    0.0000
     60 H23        6.6025   13.2150    3.0765 H         1 RES1    0.0000
     61 H24        5.9315   14.6263    2.9346 H         1 RES1    0.0000
     62 C29        4.6193   13.0970    2.6086 C.3       1 RES1    0.0000
     63 H25        4.5574   12.1676    2.8732 H         1 RES1    0.0000
     64 H26        4.7420   13.1274    1.6465 H         1 RES1    0.0000
     65 C30        3.3166   13.8169    2.9755 C.3       1 RES1    0.0000
     66 H27        3.3362   14.7177    2.6158 H         1 RES1    0.0000
     67 H28        2.5678   13.3503    2.5701 H         1 RES1    0.0000
@<TRIPOS>BOND
     1    1   22 1
     2    2    9 2
     3    3    9 2
     4    4   10 2
     5    5   10 2
     6    6    7 1
     7    7    8 1
     8    9   50 1
     9   10   47 1
    10   11   12 1
    11   13   11 ar
    12   14   13 1
    13   15   13 ar
    14   16   15 1
    15   17   15 ar
    16   18   17 1
    17   19   17 ar
    18   20   19 1
    19   21   11 ar
    20   22   21 1
    21   23   22 2
    22   24   23 1
    23   25   23 1
    24   26   25 1
    25   27   25 1
    26   28    1 1
    27   29   25 1
    28   30   29 ar
    29   31   30 1
    30   32   30 ar
    31   33   32 1
    32   34   32 ar
    33   35   34 1
    34   36   34 ar
    35   37   36 1
    36   38   29 ar
    37   39   38 1
    38   40    6 2
    39   41   40 1
    40   42    7 1
    41   43   42 ar
    42   44   43 1
    43   45   43 ar
    44   46   45 1
    45   47   45 ar
    46   48   47 ar
    47   49   48 1
    48   50   42 ar
    49   51   28 1
    50   52   51 1
    51   53   51 1
    52   54   53 1
    53   55   53 1
    54   56   53 1
    55   57   56 1
    56   58   56 1
    57   59   56 1
    58   60   59 1
    59   61   59 1
    60   62   59 1
    61   63   62 1
    62   64   62 1
    63   65   51 1
    64   66   65 1
    65   67   65 1
    66   19   21 ar
    67   27   28 2
    68   27   40 1
    69   36   38 ar
    70   48   50 ar
    71   62   65 1
@<TRIPOS>SUBSTRUCTURE
     1 RES1 1

@<TRIPOS>CRYSIN
  13.1313   19.0446   12.9434  90.0000 111.6910  90.0000  14 1

