# MOL2 file generated by ConQuest
# Please check atom types

@<TRIPOS>MOLECULE
HOWZOK
    55    58     1
SMALL
NO_CHARGES
****
Generated from CSD

@<TRIPOS>ATOM
      1 O1         0.7285    0.3352    8.9526 O.3       1 RES1    0.0000
      2 O2        -0.1450    4.8360   10.0522 O.2       1 RES1    0.0000
      3 O3        -0.5484   -6.3460    9.2331 O.2       1 RES1    0.0000
      4 O4        -0.1948   -6.3470   11.3511 O.2       1 RES1    0.0000
      5 N1        -0.3314   -5.7656   10.2872 N.pl3     1 RES1    0.0000
      6 C1         0.2489   -0.0982   10.1838 C.2       1 RES1    0.0000
      7 C2        -0.0478    0.7482   11.1554 C.2       1 RES1    0.0000
      8 H1        -0.4080    0.4112   11.9442 H         1 RES1    0.0000
      9 C3         0.1709    2.2234   11.0405 C.3       1 RES1    0.0000
     10 H2        -0.6378    2.6779   11.3578 H         1 RES1    0.0000
     11 C4         0.3785    2.5921    9.5968 C.2       1 RES1    0.0000
     12 C5         0.7106    1.6783    8.6681 C.2       1 RES1    0.0000
     13 C6         0.0977   -1.5623   10.2044 C.ar      1 RES1    0.0000
     14 C7        -0.1351   -2.2733    9.0322 C.ar      1 RES1    0.0000
     15 H3        -0.1835   -1.8203    8.2219 H         1 RES1    0.0000
     16 C8        -0.2956   -3.6457    9.0567 C.ar      1 RES1    0.0000
     17 H4        -0.4691   -4.1162    8.2730 H         1 RES1    0.0000
     18 C9        -0.1940   -4.3043   10.2610 C.ar      1 RES1    0.0000
     19 C10        0.0411   -3.6311   11.4406 C.ar      1 RES1    0.0000
     20 H5         0.1022   -4.0928   12.2449 H         1 RES1    0.0000
     21 C11        0.1837   -2.2651   11.4054 C.ar      1 RES1    0.0000
     22 H6         0.3405   -1.8008   12.1961 H         1 RES1    0.0000
     23 C12        1.3356    2.6442   11.9355 C.ar      1 RES1    0.0000
     24 C13        1.0989    3.0907   13.2138 C.ar      1 RES1    0.0000
     25 H7         0.2233    3.1768   13.5132 H         1 RES1    0.0000
     26 C14        2.1375    3.4109   14.0569 C.ar      1 RES1    0.0000
     27 H8         1.9592    3.7069   14.9204 H         1 RES1    0.0000
     28 C15        3.4307    3.2951   13.6305 C.ar      1 RES1    0.0000
     29 H9         4.1344    3.5004   14.2027 H         1 RES1    0.0000
     30 C16        3.6767    2.8757   12.3568 C.ar      1 RES1    0.0000
     31 H10        4.5548    2.8124   12.0560 H         1 RES1    0.0000
     32 C17        2.6442    2.5434   11.5098 C.ar      1 RES1    0.0000
     33 H11        2.8298    2.2491   10.6466 H         1 RES1    0.0000
     34 C18        0.2128    3.9950    9.2536 C.2       1 RES1    0.0000
     35 H12        0.3889    4.2604    8.3805 H         1 RES1    0.0000
     36 C19        1.1729    1.9001    7.2483 C.3       1 RES1    0.0000
     37 H13        0.9312    2.8182    7.0080 H         1 RES1    0.0000
     38 C20        2.6946    1.8069    7.1847 C.ar      1 RES1    0.0000
     39 C21        3.4546    2.9336    6.9613 C.ar      1 RES1    0.0000
     40 H14        3.0365    3.7615    6.8820 H         1 RES1    0.0000
     41 C22        4.8308    2.8506    6.8527 C.ar      1 RES1    0.0000
     42 H15        5.3270    3.6212    6.6931 H         1 RES1    0.0000
     43 C23        5.4697    1.6471    6.9790 C.ar      1 RES1    0.0000
     44 H16        6.3941    1.5923    6.8940 H         1 RES1    0.0000
     45 C24        4.7278    0.5249    7.2327 C.ar      1 RES1    0.0000
     46 H17        5.1537   -0.2943    7.3381 H         1 RES1    0.0000
     47 C25        3.3587    0.5979    7.3331 C.ar      1 RES1    0.0000
     48 H18        2.8702   -0.1754    7.5031 H         1 RES1    0.0000
     49 C26        0.4718    0.9737    6.2451 C.3       1 RES1    0.0000
     50 H19        0.7360    0.0565    6.4184 H         1 RES1    0.0000
     51 H20       -0.4878    1.0369    6.3695 H         1 RES1    0.0000
     52 C27        0.8138    1.3300    4.8131 C.3       1 RES1    0.0000
     53 H21        0.3858    0.7094    4.2185 H         1 RES1    0.0000
     54 H22        1.7650    1.2863    4.6908 H         1 RES1    0.0000
     55 H23        0.5081    2.2199    4.6224 H         1 RES1    0.0000
@<TRIPOS>BOND
     1    1    6 1
     2    2   34 2
     3    3    5 2
     4    4    5 2
     5    5   18 1
     6    6    7 2
     7    7    8 1
     8    9    7 1
     9   10    9 1
    10   11    9 1
    11   12    1 1
    12   13    6 1
    13   14   13 ar
    14   15   14 1
    15   16   14 ar
    16   17   16 1
    17   18   16 ar
    18   19   18 ar
    19   20   19 1
    20   21   13 ar
    21   22   21 1
    22   23    9 1
    23   24   23 ar
    24   25   24 1
    25   26   24 ar
    26   27   26 1
    27   28   26 ar
    28   29   28 1
    29   30   28 ar
    30   31   30 1
    31   32   23 ar
    32   33   32 1
    33   34   11 1
    34   35   34 1
    35   36   12 1
    36   37   36 1
    37   38   36 1
    38   39   38 ar
    39   40   39 1
    40   41   39 ar
    41   42   41 1
    42   43   41 ar
    43   44   43 1
    44   45   43 ar
    45   46   45 1
    46   47   38 ar
    47   48   47 1
    48   49   36 1
    49   50   49 1
    50   51   49 1
    51   52   49 1
    52   53   52 1
    53   54   52 1
    54   55   52 1
    55   11   12 2
    56   19   21 ar
    57   30   32 ar
    58   45   47 ar
@<TRIPOS>SUBSTRUCTURE
     1 RES1 1

@<TRIPOS>CRYSIN
  10.6719   19.4897   10.9956  90.0000  99.0630  90.0000  14 1

