# MOL2 file generated by ConQuest
# Please check atom types

@<TRIPOS>MOLECULE
HOWZIE
   171   174     4
SMALL
NO_CHARGES
****
Generated from CSD

@<TRIPOS>ATOM
      1 O1        11.3282   -0.1025   39.1144 O.2       1 RES1    0.0000
      2 O2        10.4914    0.1025   37.1373 O.2       1 RES1    0.0000
      3 O3         8.0115    5.4281   41.2094 O.3       1 RES1    0.0000
      4 O4         5.7197    9.5566   41.0475 O.2       1 RES1    0.0000
      5 N1        10.6764    0.5078   38.2860 N.pl3     1 RES1    0.0000
      6 C1         8.7802    4.1135   39.4089 C.ar      1 RES1    0.0000
      7 C2         9.3504    3.2650   40.3615 C.ar      1 RES1    0.0000
      8 H1         9.2936    3.4921   41.2621 H         1 RES1    0.0000
      9 C3        10.0007    2.0933   40.0009 C.ar      1 RES1    0.0000
     10 H2        10.3890    1.5417   40.6411 H         1 RES1    0.0000
     11 C4        10.0536    1.7741   38.6659 C.ar      1 RES1    0.0000
     12 C5         9.5029    2.5776   37.6937 C.ar      1 RES1    0.0000
     13 H3         9.5466    2.3316   36.7989 H         1 RES1    0.0000
     14 C6         8.8842    3.7571   38.0707 C.ar      1 RES1    0.0000
     15 H4         8.5343    4.3191   37.4163 H         1 RES1    0.0000
     16 C7         8.0518    5.3237   39.8182 C.2       1 RES1    0.0000
     17 C8         7.4558    6.2068   39.0479 C.2       1 RES1    0.0000
     18 H5         7.5880    6.1500   38.1280 H         1 RES1    0.0000
     19 C9         6.5728    7.3040   39.5741 C.3       1 RES1    0.0000
     20 H6         6.8337    8.1428   39.1413 H         1 RES1    0.0000
     21 C10        6.7913    7.4555   41.0704 C.2       1 RES1    0.0000
     22 C11        7.4901    6.5560   41.7654 C.2       1 RES1    0.0000
     23 C12        5.1299    6.9920   39.1805 C.ar      1 RES1    0.0000
     24 C13        4.3738    7.9170   38.5195 C.ar      1 RES1    0.0000
     25 H7         4.7171    8.7675   38.3677 H         1 RES1    0.0000
     26 C14        3.0857    7.6017   38.0663 C.ar      1 RES1    0.0000
     27 H8         2.5869    8.2329   37.6015 H         1 RES1    0.0000
     28 C15        2.5682    6.3726   38.3133 C.ar      1 RES1    0.0000
     29 H9         1.7157    6.1624   38.0082 H         1 RES1    0.0000
     30 C16        3.2909    5.4405   39.0062 C.ar      1 RES1    0.0000
     31 H10        2.9254    4.6037   39.1848 H         1 RES1    0.0000
     32 C17        4.5786    5.7506   39.4449 C.ar      1 RES1    0.0000
     33 H11        5.0689    5.1181   39.9184 H         1 RES1    0.0000
     34 C18        6.2684    8.6702   41.6674 C.2       1 RES1    0.0000
     35 H12        6.3605    8.7760   42.5876 H         1 RES1    0.0000
     36 C19        7.9020    6.6187   43.2388 C.3       1 RES1    0.0000
     37 H13        7.4044    7.3550   43.6553 H         1 RES1    0.0000
     38 C20        7.5166    5.3171   43.9829 C.3       1 RES1    0.0000
     39 H14        7.9561    4.5645   43.5573 H         1 RES1    0.0000
     40 H15        7.8324    5.3674   44.8973 H         1 RES1    0.0000
     41 C21        6.0285    5.0841   43.9865 C.3       1 RES1    0.0000
     42 H16        5.7131    5.0091   43.0815 H         1 RES1    0.0000
     43 H17        5.5905    5.8217   44.4180 H         1 RES1    0.0000
     44 H18        5.8311    4.2734   44.4615 H         1 RES1    0.0000
     45 C22        9.3913    6.9705   43.3049 C.ar      1 RES1    0.0000
     46 C23        9.7787    8.2381   43.6945 C.ar      1 RES1    0.0000
     47 H19        9.1331    8.8562   43.9531 H         1 RES1    0.0000
     48 C24       11.1150    8.6017   43.7076 C.ar      1 RES1    0.0000
     49 H20       11.3630    9.4509   43.9931 H         1 RES1    0.0000
     50 C25       12.0718    7.7035   43.2987 C.ar      1 RES1    0.0000
     51 H21       12.9682    7.9535   43.2813 H         1 RES1    0.0000
     52 C26       11.7042    6.4398   42.9188 C.ar      1 RES1    0.0000
     53 H22       12.3555    5.8269   42.6603 H         1 RES1    0.0000
     54 C27       10.3873    6.0743   42.9167 C.ar      1 RES1    0.0000
     55 H23       10.1519    5.2140   42.6530 H         1 RES1    0.0000
     56 O5         3.8412    1.7291   43.7312 O.2       2 RES2    0.0000
     57 O6         2.1391    1.2500   44.9336 O.2       2 RES2    0.0000
     58 O7        -1.0849    6.8987   42.9926 O.3       2 RES2    0.0000
     59 O8        -1.8513   11.0370   40.8459 O.2       2 RES2    0.0000
     60 N2         2.7311    1.9823   44.1714 N.pl3     2 RES2    0.0000
     61 C28        0.8292    5.5391   42.8963 C.ar      2 RES2    0.0000
     62 C29        0.2157    4.6814   43.7911 C.ar      2 RES2    0.0000
     63 H24       -0.6314    4.8903   44.1093 H         2 RES2    0.0000
     64 C30        0.8304    3.5202   44.2251 C.ar      2 RES2    0.0000
     65 H25        0.4114    2.9569   44.8356 H         2 RES2    0.0000
     66 C31        2.0810    3.2219   43.7261 C.ar      2 RES2    0.0000
     67 C32        2.7310    4.0437   42.8382 C.ar      2 RES2    0.0000
     68 H26        3.5772    3.8263   42.5186 H         2 RES2    0.0000
     69 C33        2.0983    5.1964   42.4340 C.ar      2 RES2    0.0000
     70 H27        2.5288    5.7630   41.8359 H         2 RES2    0.0000
     71 C34        0.1685    6.7597   42.4053 C.2       2 RES2    0.0000
     72 C35        0.6012    7.6265   41.5120 C.2       2 RES2    0.0000
     73 H28        1.4627    7.5090   41.1822 H         2 RES2    0.0000
     74 C36       -0.1848    8.7799   40.9883 C.3       2 RES2    0.0000
     75 H29        0.3360    9.5984   41.1241 H         2 RES2    0.0000
     76 C37       -1.4894    8.9006   41.7778 C.2       2 RES2    0.0000
     77 C38       -0.4254    8.5951   39.4783 C.ar      2 RES2    0.0000
     78 C39       -0.0852    9.6219   38.6332 C.ar      2 RES2    0.0000
     79 H30        0.2388   10.4215   38.9815 H         2 RES2    0.0000
     80 C40       -0.2212    9.4718   37.2565 C.ar      2 RES2    0.0000
     81 H31        0.0203   10.1617   36.6790 H         2 RES2    0.0000
     82 C41       -0.7151    8.2903   36.7589 C.ar      2 RES2    0.0000
     83 H32       -0.7970    8.1774   35.8401 H         2 RES2    0.0000
     84 C42       -1.0884    7.2766   37.5978 C.ar      2 RES2    0.0000
     85 H33       -1.4304    6.4849   37.2528 H         2 RES2    0.0000
     86 C43       -0.9480    7.4398   38.9829 C.ar      2 RES2    0.0000
     87 H34       -1.2115    6.7610   39.5625 H         2 RES2    0.0000
     88 C44       -2.2365   10.1258   41.5428 C.2       2 RES2    0.0000
     89 H35       -3.0639   10.2146   41.9557 H         2 RES2    0.0000
     90 C45       -1.8503    7.9999   42.6911 C.2       2 RES2    0.0000
     91 C46       -3.0908    8.0149   43.5718 C.3       2 RES2    0.0000
     92 H36       -3.6741    8.7270   43.2341 H         2 RES2    0.0000
     93 C47       -3.8725    6.7035   43.4472 C.3       2 RES2    0.0000
     94 H37       -4.6489    6.7277   44.0257 H         2 RES2    0.0000
     95 H38       -3.3125    5.9601   43.7207 H         2 RES2    0.0000
     96 C48       -4.3296    6.5058   41.9339 C.3       2 RES2    0.0000
     97 H39       -4.6285    7.3452   41.5781 H         2 RES2    0.0000
     98 H40       -5.0476    5.8687   41.8976 H         2 RES2    0.0000
     99 H41       -3.5892    6.1833   41.4146 H         2 RES2    0.0000
    100 C49       -2.7127    8.3908   45.0005 C.ar      2 RES2    0.0000
    101 C50       -3.0189    9.6265   45.4885 C.ar      2 RES2    0.0000
    102 H42       -3.4629   10.2328   44.9409 H         2 RES2    0.0000
    103 C51       -2.6866   10.0031   46.7821 C.ar      2 RES2    0.0000
    104 H43       -2.9054   10.8516   47.0944 H         2 RES2    0.0000
    105 C52       -2.0353    9.1173   47.5920 C.ar      2 RES2    0.0000
    106 H44       -1.8111    9.3595   48.4635 H         2 RES2    0.0000
    107 C53       -1.7208    7.8869   47.1308 C.ar      2 RES2    0.0000
    108 H45       -1.2737    7.2903   47.6864 H         2 RES2    0.0000
    109 C54       -2.0535    7.5012   45.8473 C.ar      2 RES2    0.0000
    110 H46       -1.8358    6.6481   45.5474 H         2 RES2    0.0000
    111 H47       -3.2526    5.9627   43.5427 Du        4 SUP4    0.0000
    112 H48       -4.2553    6.6533   42.5586 Du        4 SUP4    0.0000
    113 C55       -5.0019    6.5404   44.4833 Du        4 SUP4    0.0000
    114 H49       -4.6256    6.5417   45.3658 Du        4 SUP4    0.0000
    115 H50       -5.4592    5.7133   44.3308 Du        4 SUP4    0.0000
    116 H51       -5.6199    7.2714   44.3998 Du        4 SUP4    0.0000
    117 O9        11.1451    2.8988   29.9533 O.2       3 RES3    0.0000
    118 O10       12.3921    3.2088   28.3028 O.2       3 RES3    0.0000
    119 O11       13.8289    8.2016   33.2051 O.3       3 RES3    0.0000
    120 O12       15.9405   12.3764   33.7854 O.2       3 RES3    0.0000
    121 N3        11.9850    3.5260   29.3795 N.pl3     3 RES3    0.0000
    122 C56       13.7059    6.9078   31.2462 C.ar      3 RES3    0.0000
    123 C57       13.9143    6.6657   29.8902 C.ar      3 RES3    0.0000
    124 H52       14.4205    7.2616   29.3868 H         3 RES3    0.0000
    125 C58       13.3729    5.5456   29.2935 C.ar      3 RES3    0.0000
    126 H53       13.5231    5.3791   28.3918 H         3 RES3    0.0000
    127 C59       12.6118    4.6788   30.0361 C.ar      3 RES3    0.0000
    128 C60       12.3834    4.8942   31.3631 C.ar      3 RES3    0.0000
    129 H54       11.8580    4.3074   31.8599 H         3 RES3    0.0000
    130 C61       12.9454    5.9947   31.9467 C.ar      3 RES3    0.0000
    131 H55       12.8092    6.1344   32.8550 H         3 RES3    0.0000
    132 C62       14.3161    8.0801   31.9064 C.2       3 RES3    0.0000
    133 C63       15.1947    8.9359   31.4172 C.2       3 RES3    0.0000
    134 H56       15.4524    8.8445   30.5271 H         3 RES3    0.0000
    135 C64       15.8000   10.0455   32.2198 C.3       3 RES3    0.0000
    136 H57       15.7243   10.8725   31.7001 H         3 RES3    0.0000
    137 C65       15.0316   10.2322   33.5010 C.2       3 RES3    0.0000
    138 C66       14.1291    9.3282   33.9241 C.2       3 RES3    0.0000
    139 C67       17.2971    9.7903   32.4955 C.ar      3 RES3    0.0000
    140 C68       18.2501   10.7505   32.2325 C.ar      3 RES3    0.0000
    141 H58       17.9944   11.5677   31.8708 H         3 RES3    0.0000
    142 C69       19.5920   10.5050   32.5074 C.ar      3 RES3    0.0000
    143 H59       20.2267   11.1604   32.3357 H         3 RES3    0.0000
    144 C70       19.9735    9.3079   33.0293 C.ar      3 RES3    0.0000
    145 H60       20.8736    9.1506   33.2036 H         3 RES3    0.0000
    146 C71       19.0588    8.3380   33.2980 C.ar      3 RES3    0.0000
    147 H61       19.3294    7.5234   33.6539 H         3 RES3    0.0000
    148 C72       17.7020    8.5756   33.0355 C.ar      3 RES3    0.0000
    149 H62       17.0724    7.9183   33.2218 H         3 RES3    0.0000
    150 C73       15.2689   11.4574   34.2295 C.2       3 RES3    0.0000
    151 H63       14.8927   11.5507   35.0739 H         3 RES3    0.0000
    152 C74       13.2748    9.3699   35.1777 C.3       3 RES3    0.0000
    153 H64       13.5675   10.1428   35.7058 H         3 RES3    0.0000
    154 C75       13.5032    8.1141   36.0399 C.3       3 RES3    0.0000
    155 H65       12.9113    8.1474   36.8098 H         3 RES3    0.0000
    156 H66       13.2705    7.3289   35.5206 H         3 RES3    0.0000
    157 C76       14.9320    7.9796   36.5229 C.3       3 RES3    0.0000
    158 H67       15.0067    7.2094   37.0930 H         3 RES3    0.0000
    159 H68       15.1782    8.7655   37.0168 H         3 RES3    0.0000
    160 H69       15.5161    7.8778   35.7675 H         3 RES3    0.0000
    161 C77       11.8241    9.6134   34.7826 C.ar      3 RES3    0.0000
    162 C78       11.0313    8.6252   34.2186 C.ar      3 RES3    0.0000
    163 H70       11.3838    7.7753   34.0825 H         3 RES3    0.0000
    164 C79        9.7138    8.8921   33.8555 C.ar      3 RES3    0.0000
    165 H71        9.1883    8.2257   33.4760 H         3 RES3    0.0000
    166 C80        9.1919   10.1597   34.0650 C.ar      3 RES3    0.0000
    167 H72        8.3142   10.3451   33.8210 H         3 RES3    0.0000
    168 C81        9.9621   11.1349   34.6272 C.ar      3 RES3    0.0000
    169 H73        9.6097   11.9848   34.7652 H         3 RES3    0.0000
    170 C82       11.2662   10.8582   34.9936 C.ar      3 RES3    0.0000
    171 H74       11.7796   11.5246   35.3898 H         3 RES3    0.0000
@<TRIPOS>BOND
     1    1    5 2
     2    2    5 2
     3    3   16 1
     4    4   34 2
     5    5   11 1
     6    6    7 ar
     7    7    8 1
     8    9    7 ar
     9   10    9 1
    10   11    9 ar
    11   12   11 ar
    12   13   12 1
    13   14    6 ar
    14   15   14 1
    15   16    6 1
    16   17   16 2
    17   18   17 1
    18   19   17 1
    19   20   19 1
    20   21   19 1
    21   22    3 1
    22   23   19 1
    23   24   23 ar
    24   25   24 1
    25   26   24 ar
    26   27   26 1
    27   28   26 ar
    28   29   28 1
    29   30   28 ar
    30   31   30 1
    31   32   23 ar
    32   33   32 1
    33   34   21 1
    34   35   34 1
    35   36   22 1
    36   37   36 1
    37   38   36 1
    38   39   38 1
    39   40   38 1
    40   41   38 1
    41   42   41 1
    42   43   41 1
    43   44   41 1
    44   45   36 1
    45   46   45 ar
    46   47   46 1
    47   48   46 ar
    48   49   48 1
    49   50   48 ar
    50   51   50 1
    51   52   50 ar
    52   53   52 1
    53   54   45 ar
    54   55   54 1
    55   56   60 2
    56   57   60 2
    57   58   71 1
    58   59   88 2
    59   60   66 1
    60   61   62 ar
    61   62   63 1
    62   64   62 ar
    63   65   64 1
    64   66   64 ar
    65   67   66 ar
    66   68   67 1
    67   69   61 ar
    68   70   69 1
    69   71   61 1
    70   72   71 2
    71   73   72 1
    72   74   72 1
    73   75   74 1
    74   76   74 1
    75   77   74 1
    76   78   77 ar
    77   79   78 1
    78   80   78 ar
    79   81   80 1
    80   82   80 ar
    81   83   82 1
    82   84   82 ar
    83   85   84 1
    84   86   77 ar
    85   87   86 1
    86   88   76 1
    87   89   88 1
    88   90   58 1
    89   91   90 1
    90   92   91 1
    91   93   91 1
    92   94   93 1
    93   95   93 1
    94   96   93 1
    95   97   96 1
    96   98   96 1
    97   99   96 1
    98  100   91 1
    99  101  100 ar
   100  102  101 1
   101  103  101 ar
   102  104  103 1
   103  105  103 ar
   104  106  105 1
   105  107  105 ar
   106  108  107 1
   107  109  100 ar
   108  110  109 1
   109  117  121 2
   110  118  121 2
   111  119  132 1
   112  120  150 2
   113  121  127 1
   114  122  123 ar
   115  123  124 1
   116  125  123 ar
   117  126  125 1
   118  127  125 ar
   119  128  127 ar
   120  129  128 1
   121  130  122 ar
   122  131  130 1
   123  132  122 1
   124  133  132 2
   125  134  133 1
   126  135  133 1
   127  136  135 1
   128  137  135 1
   129  138  119 1
   130  139  135 1
   131  140  139 ar
   132  141  140 1
   133  142  140 ar
   134  143  142 1
   135  144  142 ar
   136  145  144 1
   137  146  144 ar
   138  147  146 1
   139  148  139 ar
   140  149  148 1
   141  150  137 1
   142  151  150 1
   143  152  138 1
   144  153  152 1
   145  154  152 1
   146  155  154 1
   147  156  154 1
   148  157  154 1
   149  158  157 1
   150  159  157 1
   151  160  157 1
   152  161  152 1
   153  162  161 ar
   154  163  162 1
   155  164  162 ar
   156  165  164 1
   157  166  164 ar
   158  167  166 1
   159  168  166 ar
   160  169  168 1
   161  170  161 ar
   162  171  170 1
   163   12   14 ar
   164   21   22 2
   165   30   32 ar
   166   52   54 ar
   167   67   69 ar
   168   76   90 2
   169   84   86 ar
   170  107  109 ar
   171  128  130 ar
   172  137  138 2
   173  146  148 ar
   174  168  170 ar
@<TRIPOS>SUBSTRUCTURE
     1 RES1 1
     2 RES2 56
     3 RES3 117
     4 SUP4 111

@<TRIPOS>CRYSIN
  28.2810    6.5273   38.1330  90.0000 107.7590  90.0000 231 1

