# MOL2 file generated by ConQuest
# Please check atom types

@<TRIPOS>MOLECULE
HOXDOP
    63    65     1
SMALL
NO_CHARGES
****
Generated from CSD

@<TRIPOS>ATOM
      1 N1         5.4058    1.6085    0.7430 N.pl3     1 RES1    0.0000
      2 C1         6.0471    1.5841    3.1813 C.3       1 RES1    0.0000
      3 O1         2.2170    3.5466   -1.1576 O.2       1 RES1    0.0000
      4 O2         1.7225    4.2307    0.8987 O.3       1 RES1    0.0000
      5 N2         1.9228    1.4625    3.7205 N.pl3     1 RES1    0.0000
      6 C2         7.3658    1.0299    2.6189 C.3       1 RES1    0.0000
      7 H1         7.9178    1.7728    2.3271 H         1 RES1    0.0000
      8 H2         7.8404    0.5701    3.3282 H         1 RES1    0.0000
      9 O3         1.6330    0.7387    4.6693 O.2       1 RES1    0.0000
     10 C3         7.1753    0.0702    1.4490 C.3       1 RES1    0.0000
     11 H3         8.0311   -0.2998    1.1813 H         1 RES1    0.0000
     12 H4         6.5957   -0.6623    1.7130 H         1 RES1    0.0000
     13 O4         1.8204    1.0846    2.5522 O.2       1 RES1    0.0000
     14 C4         6.5625    0.8221    0.3096 C.3       1 RES1    0.0000
     15 H5         7.2266    1.4143   -0.0774 H         1 RES1    0.0000
     16 H6         6.2853    0.1956   -0.3769 H         1 RES1    0.0000
     17 O5         7.3154    6.2520    3.5018 O.3       1 RES1    0.0000
     18 C5         5.1320    2.0094    2.0547 C.2       1 RES1    0.0000
     19 O6         6.7716    5.2674    5.4490 O.2       1 RES1    0.0000
     20 C6         3.9930    2.7789    2.0118 C.2       1 RES1    0.0000
     21 C7         3.5867    2.8687    0.6376 C.2       1 RES1    0.0000
     22 C8         4.4844    2.1397   -0.0818 C.2       1 RES1    0.0000
     23 H7         4.4632    2.0249   -1.0049 H         1 RES1    0.0000
     24 C9         3.2954    3.4486    3.1485 C.ar      1 RES1    0.0000
     25 C10        3.5718    4.7806    3.4335 C.ar      1 RES1    0.0000
     26 H8         4.1793    5.2395    2.9006 H         1 RES1    0.0000
     27 C11        2.9722    5.4392    4.4829 C.ar      1 RES1    0.0000
     28 H9         3.1831    6.3295    4.6504 H         1 RES1    0.0000
     29 C12        2.0580    4.7843    5.2911 C.ar      1 RES1    0.0000
     30 H10        1.6512    5.2357    5.9941 H         1 RES1    0.0000
     31 C13        1.7544    3.4679    5.0526 C.ar      1 RES1    0.0000
     32 H11        1.1582    3.0144    5.6046 H         1 RES1    0.0000
     33 C14        2.3478    2.8218    3.9761 C.ar      1 RES1    0.0000
     34 C15        2.4524    3.5661    0.0279 C.2       1 RES1    0.0000
     35 C16        0.6312    4.9969    0.3845 C.3       1 RES1    0.0000
     36 H12        0.1712    5.4242    1.1103 H         1 RES1    0.0000
     37 H13        0.0243    4.4163   -0.0812 H         1 RES1    0.0000
     38 H14        0.9650    5.6633   -0.2195 H         1 RES1    0.0000
     39 C17        5.4124    0.4808    4.0159 C.2       1 RES1    0.0000
     40 H15        5.7221    0.4439    4.8915 H         1 RES1    0.0000
     41 C18        4.5509   -0.3874    3.7444 C.2       1 RES1    0.0000
     42 H16        4.1843   -0.4266    2.8905 H         1 RES1    0.0000
     43 H17        4.2788   -0.9924    4.3953 H         1 RES1    0.0000
     44 C19        6.3549    2.7620    4.1338 C.3       1 RES1    0.0000
     45 H18        5.5261    3.0593    4.5400 H         1 RES1    0.0000
     46 H19        6.9340    2.4457    4.8445 H         1 RES1    0.0000
     47 C20        7.0187    3.9482    3.4533 C.3       1 RES1    0.0000
     48 H20        7.9406    3.7196    3.2534 H         1 RES1    0.0000
     49 H21        6.5684    4.1202    2.6113 H         1 RES1    0.0000
     50 C21        6.9981    5.2013    4.2773 C.2       1 RES1    0.0000
     51 C22        7.3371    7.6364    3.9969 C.3       1 RES1    0.0000
     52 C23        8.3831    7.7886    5.0843 C.3       1 RES1    0.0000
     53 H22        8.1119    7.2936    5.8609 H         1 RES1    0.0000
     54 H23        8.4756    8.7165    5.3127 H         1 RES1    0.0000
     55 H24        9.2250    7.4526    4.7684 H         1 RES1    0.0000
     56 C24        5.9737    8.0504    4.4435 C.3       1 RES1    0.0000
     57 H25        5.3511    7.9346    3.7228 H         1 RES1    0.0000
     58 H26        5.9897    8.9728    4.7087 H         1 RES1    0.0000
     59 H27        5.7029    7.5088    5.1896 H         1 RES1    0.0000
     60 C25        7.7291    8.4166    2.7547 C.3       1 RES1    0.0000
     61 H28        7.0582    8.3007    2.0784 H         1 RES1    0.0000
     62 H29        8.5726    8.0944    2.4286 H         1 RES1    0.0000
     63 H30        7.8050    9.3482    2.9742 H         1 RES1    0.0000
@<TRIPOS>BOND
     1    1   14 1
     2    2    6 1
     3    3   34 2
     4    4   34 1
     5    5    9 2
     6    6    7 1
     7    8    6 1
     8   10    6 1
     9   11   10 1
    10   12   10 1
    11   13    5 2
    12   14   10 1
    13   15   14 1
    14   16   14 1
    15   17   50 1
    16   18    1 1
    17   19   50 2
    18   20   18 2
    19   21   20 1
    20   22    1 1
    21   23   22 1
    22   24   20 1
    23   25   24 ar
    24   26   25 1
    25   27   25 ar
    26   28   27 1
    27   29   27 ar
    28   30   29 1
    29   31   29 ar
    30   32   31 1
    31   33    5 1
    32   34   21 1
    33   35    4 1
    34   36   35 1
    35   37   35 1
    36   38   35 1
    37   39    2 1
    38   40   39 1
    39   41   39 2
    40   42   41 1
    41   43   41 1
    42   44    2 1
    43   45   44 1
    44   46   44 1
    45   47   44 1
    46   48   47 1
    47   49   47 1
    48   50   47 1
    49   51   17 1
    50   52   51 1
    51   53   52 1
    52   54   52 1
    53   55   52 1
    54   56   51 1
    55   57   56 1
    56   58   56 1
    57   59   56 1
    58   60   51 1
    59   61   60 1
    60   62   60 1
    61   63   60 1
    62    2   18 1
    63   21   22 2
    64   24   33 ar
    65   31   33 ar
@<TRIPOS>SUBSTRUCTURE
     1 RES1 1

@<TRIPOS>CRYSIN
   8.7470   11.1140   13.2380 105.8800  91.4700 101.1500   2 1

