# MOL2 file generated by ConQuest
# Please check atom types

@<TRIPOS>MOLECULE
HOXDIJ
    63    65     1
SMALL
NO_CHARGES
****
Generated from CSD

@<TRIPOS>ATOM
      1 O1         1.8092    9.0883    2.3800 O.3       1 RES1    0.0000
      2 N1        -2.0754    3.9156    2.1356 N.pl3     1 RES1    0.0000
      3 C1         4.1262    8.6858    1.7415 C.3       1 RES1    0.0000
      4 H1         3.9532    8.7626    0.8003 H         1 RES1    0.0000
      5 H2         3.9919    7.7765    2.0174 H         1 RES1    0.0000
      6 H3         5.0330    8.9448    1.9221 H         1 RES1    0.0000
      7 N2         2.4622    4.7506    3.2209 N.pl3     1 RES1    0.0000
      8 O2         1.7089    9.3075    0.1348 O.2       1 RES1    0.0000
      9 C2         3.2737   10.9988    2.0334 C.3       1 RES1    0.0000
     10 H4         2.6738   11.5342    2.5591 H         1 RES1    0.0000
     11 H5         3.0237   11.0527    1.1083 H         1 RES1    0.0000
     12 H6         4.1709   11.3221    2.1423 H         1 RES1    0.0000
     13 C3         3.4525    9.4435    3.9914 C.3       1 RES1    0.0000
     14 H7         2.8614   10.0320    4.4676 H         1 RES1    0.0000
     15 H8         4.3622    9.6786    4.1844 H         1 RES1    0.0000
     16 H9         3.2910    8.5372    4.2660 H         1 RES1    0.0000
     17 O3         3.6604    4.8555    3.1343 O.2       1 RES1    0.0000
     18 O4         1.8937    4.1440    2.4045 O.2       1 RES1    0.0000
     19 C4         3.1995    9.5722    2.4886 C.3       1 RES1    0.0000
     20 O5        -0.5956    0.8500    4.4469 O.3       1 RES1    0.0000
     21 C5         1.2077    8.9943    1.1763 C.2       1 RES1    0.0000
     22 O6         0.9582    2.2910    5.1283 O.2       1 RES1    0.0000
     23 C6        -0.1856    8.4419    1.3457 C.3       1 RES1    0.0000
     24 H10       -0.6069    8.3682    0.4762 H         1 RES1    0.0000
     25 H11       -0.7099    9.0593    1.8801 H         1 RES1    0.0000
     26 C7        -0.1859    7.0756    2.0186 C.3       1 RES1    0.0000
     27 H12        0.2035    7.1725    2.9017 H         1 RES1    0.0000
     28 H13        0.3931    6.4869    1.5090 H         1 RES1    0.0000
     29 C8        -1.5589    6.3896    2.1695 C.3       1 RES1    0.0000
     30 C9        -2.4272    7.1599    3.1380 C.2       1 RES1    0.0000
     31 H14       -2.4114    8.0860    3.0551 H         1 RES1    0.0000
     32 C10       -3.1946    6.6809    4.0731 C.2       1 RES1    0.0000
     33 H15       -3.2505    5.7615    4.2017 H         1 RES1    0.0000
     34 H16       -3.6865    7.2571    4.6111 H         1 RES1    0.0000
     35 C11       -2.2602    6.3650    0.8089 C.3       1 RES1    0.0000
     36 H17       -2.5510    7.2623    0.5826 H         1 RES1    0.0000
     37 H18       -1.6322    6.0741    0.1299 H         1 RES1    0.0000
     38 C12       -3.4689    5.4291    0.8102 C.3       1 RES1    0.0000
     39 H19       -4.0809    5.6879    1.5177 H         1 RES1    0.0000
     40 H20       -3.9377    5.5025   -0.0359 H         1 RES1    0.0000
     41 C13       -3.0346    4.0310    1.0167 C.3       1 RES1    0.0000
     42 H21       -3.8098    3.4783    1.2023 H         1 RES1    0.0000
     43 H22       -2.6200    3.7003    0.2053 H         1 RES1    0.0000
     44 C14       -1.3429    4.9776    2.6655 C.2       1 RES1    0.0000
     45 C15       -1.7022    2.7659    2.7137 C.2       1 RES1    0.0000
     46 H23       -2.0429    1.9251    2.5084 H         1 RES1    0.0000
     47 C16       -0.7355    3.0248    3.6612 C.2       1 RES1    0.0000
     48 C17       -0.5057    4.4407    3.6055 C.2       1 RES1    0.0000
     49 C18       -0.0242    2.0701    4.4726 C.2       1 RES1    0.0000
     50 C19        0.0505   -0.1749    5.2061 C.3       1 RES1    0.0000
     51 H24       -0.4396   -0.9960    5.1182 H         1 RES1    0.0000
     52 H25        0.0800    0.0826    6.1313 H         1 RES1    0.0000
     53 H26        0.9442   -0.3000    4.8795 H         1 RES1    0.0000
     54 C20        0.4055    5.1707    4.5431 C.ar      1 RES1    0.0000
     55 C21        1.7776    5.3186    4.3761 C.ar      1 RES1    0.0000
     56 C22        2.5710    5.9895    5.2902 C.ar      1 RES1    0.0000
     57 H27        3.4890    6.0563    5.1578 H         1 RES1    0.0000
     58 C23        1.9874    6.5510    6.3898 C.ar      1 RES1    0.0000
     59 H28        2.5079    7.0167    7.0033 H         1 RES1    0.0000
     60 C24        0.6347    6.4316    6.5901 C.ar      1 RES1    0.0000
     61 H29        0.2467    6.7978    7.3508 H         1 RES1    0.0000
     62 C25       -0.1485    5.7716    5.6724 C.ar      1 RES1    0.0000
     63 H30       -1.0666    5.7252    5.8084 H         1 RES1    0.0000
@<TRIPOS>BOND
     1    1   19 1
     2    2   41 1
     3    3    4 1
     4    5    3 1
     5    6    3 1
     6    7   17 2
     7    8   21 2
     8    9   10 1
     9   11    9 1
    10   12    9 1
    11   13   14 1
    12   15   13 1
    13   16   13 1
    14   18    7 2
    15   19    3 1
    16   20   49 1
    17   21    1 1
    18   22   49 2
    19   23   21 1
    20   24   23 1
    21   25   23 1
    22   26   23 1
    23   27   26 1
    24   28   26 1
    25   29   26 1
    26   30   29 1
    27   31   30 1
    28   32   30 2
    29   33   32 1
    30   34   32 1
    31   35   29 1
    32   36   35 1
    33   37   35 1
    34   38   35 1
    35   39   38 1
    36   40   38 1
    37   41   38 1
    38   42   41 1
    39   43   41 1
    40   44    2 1
    41   45    2 1
    42   46   45 1
    43   47   45 2
    44   48   44 2
    45   49   47 1
    46   50   20 1
    47   51   50 1
    48   52   50 1
    49   53   50 1
    50   54   48 1
    51   55    7 1
    52   56   55 ar
    53   57   56 1
    54   58   56 ar
    55   59   58 1
    56   60   58 ar
    57   61   60 1
    58   62   54 ar
    59   63   62 1
    60    9   19 1
    61   13   19 1
    62   29   44 1
    63   47   48 1
    64   54   55 ar
    65   60   62 ar
@<TRIPOS>SUBSTRUCTURE
     1 RES1 1

@<TRIPOS>CRYSIN
   9.7500    9.8020   12.7530  90.6500 104.0300  92.9000   2 1

