# MOL2 file generated by ConQuest
# Please check atom types

@<TRIPOS>MOLECULE
HOXGUY
    37    39     1
SMALL
NO_CHARGES
****
Generated from CSD

@<TRIPOS>ATOM
      1 C1         4.2243    8.1952    0.1206 C.ar      1 RES1    0.0000
      2 H1         3.6175    7.8238   -0.4777 H         1 RES1    0.0000
      3 O1         1.5214    8.5120    0.4754 O.3       1 RES1    0.0000
      4 O2        -0.2533    9.3255   -0.5555 O.2       1 RES1    0.0000
      5 O3        -3.8183    7.3210    5.0956 O.2       1 RES1    0.0000
      6 O4        -4.0789    6.0219    3.3908 O.2       1 RES1    0.0000
      7 C2         0.6491    7.2804    3.0223 C.ar      1 RES1    0.0000
      8 C3         3.7693    8.7653    1.2986 C.ar      1 RES1    0.0000
      9 C4         5.5797    8.1760   -0.1698 C.ar      1 RES1    0.0000
     10 H2         5.8770    7.7880   -0.9613 H         1 RES1    0.0000
     11 C5         6.4777    8.7221    0.6967 C.ar      1 RES1    0.0000
     12 H3         7.3858    8.7107    0.4953 H         1 RES1    0.0000
     13 C6         6.0409    9.2913    1.8664 C.ar      1 RES1    0.0000
     14 H4         6.6543    9.6639    2.4577 H         1 RES1    0.0000
     15 N1        -3.3955    6.7314    4.1098 N.pl3     1 RES1    0.0000
     16 C7        -1.9811    6.9059    3.7362 C.ar      1 RES1    0.0000
     17 C8        -1.5229    6.3721    2.5548 C.ar      1 RES1    0.0000
     18 H5        -2.0934    5.8879    2.0022 H         1 RES1    0.0000
     19 C9        -0.2075    6.5657    2.2010 C.ar      1 RES1    0.0000
     20 H6         0.1104    6.2133    1.4015 H         1 RES1    0.0000
     21 C10        2.0813    7.5180    2.6164 C.3       1 RES1    0.0000
     22 H7         2.4106    6.7225    2.1696 H         1 RES1    0.0000
     23 H8         2.6120    7.6426    3.4189 H         1 RES1    0.0000
     24 C11        2.3074    8.7284    1.6892 C.3       1 RES1    0.0000
     25 C12        0.5135    9.3889    0.3688 C.2       1 RES1    0.0000
     26 C13        0.4985   10.2946    1.5335 C.3       1 RES1    0.0000
     27 H9        -0.2540   10.0927    2.1111 H         1 RES1    0.0000
     28 H10        0.4294   11.2182    1.2446 H         1 RES1    0.0000
     29 C14        1.7857   10.0655    2.2515 C.3       1 RES1    0.0000
     30 H11        1.6414   10.0046    3.2082 H         1 RES1    0.0000
     31 H12        2.4127   10.7830    2.0736 H         1 RES1    0.0000
     32 C15       -1.1552    7.5976    4.5875 C.ar      1 RES1    0.0000
     33 H13       -1.4763    7.9437    5.3883 H         1 RES1    0.0000
     34 C16        0.1637    7.7649    4.2230 C.ar      1 RES1    0.0000
     35 H14        0.7397    8.2143    4.7982 H         1 RES1    0.0000
     36 C17        4.6974    9.3106    2.1685 C.ar      1 RES1    0.0000
     37 H15        4.4118    9.6945    2.9646 H         1 RES1    0.0000
@<TRIPOS>BOND
     1    1    2 1
     2    3   24 1
     3    4   25 2
     4    5   15 2
     5    6   15 2
     6    7   19 ar
     7    8    1 ar
     8    9    1 ar
     9   10    9 1
    10   11    9 ar
    11   12   11 1
    12   13   11 ar
    13   14   13 1
    14   15   16 1
    15   16   17 ar
    16   17   18 1
    17   19   17 ar
    18   20   19 1
    19   21    7 1
    20   22   21 1
    21   23   21 1
    22   24    8 1
    23   25    3 1
    24   26   25 1
    25   27   26 1
    26   28   26 1
    27   29   24 1
    28   30   29 1
    29   31   29 1
    30   32   16 ar
    31   33   32 1
    32   34    7 ar
    33   35   34 1
    34   36    8 ar
    35   37   36 1
    36   13   36 ar
    37   21   24 1
    38   26   29 1
    39   32   34 ar
@<TRIPOS>SUBSTRUCTURE
     1 RES1 1

@<TRIPOS>CRYSIN
   9.8219   12.7610   12.0320  90.0000 103.3120  90.0000 231 1

