# MOL2 file generated by ConQuest
# Please check atom types

@<TRIPOS>MOLECULE
HOXROC
    43    46     1
SMALL
NO_CHARGES
****
Generated from CSD

@<TRIPOS>ATOM
      1 O1         3.7925    8.0819    5.8897 O.3       1 RES1    0.0000
      2 O2         2.8187    6.3293    4.9688 O.2       1 RES1    0.0000
      3 O3         6.3681    5.7868    5.5980 O.3       1 RES1    0.0000
      4 O4         6.2385    7.3875    7.1795 O.3       1 RES1    0.0000
      5 O5         4.8993    5.7607    3.3395 O.3       1 RES1    0.0000
      6 O6         4.0706    6.8700    1.5649 O.2       1 RES1    0.0000
      7 O7         4.0464   -0.2015    0.0891 O.2       1 RES1    0.0000
      8 O8         4.3345    0.8012   -1.8084 O.2       1 RES1    0.0000
      9 N1         4.2170    0.8067   -0.5907 N.pl3     1 RES1    0.0000
     10 C1         3.7563    7.0712    4.9984 C.2       1 RES1    0.0000
     11 C2         4.9665    6.9792    4.0802 C.3       1 RES1    0.0000
     12 H1         4.9510    7.7499    3.4435 H         1 RES1    0.0000
     13 C3         6.2707    7.0106    4.8640 C.3       1 RES1    0.0000
     14 H2         7.0545    7.1281    4.2544 H         1 RES1    0.0000
     15 C4         6.2324    8.1188    5.9414 C.3       1 RES1    0.0000
     16 H3         7.0370    8.7090    5.8739 H         1 RES1    0.0000
     17 C5         4.9665    8.9335    5.8961 C.3       1 RES1    0.0000
     18 H4         4.9329    9.5327    6.6826 H         1 RES1    0.0000
     19 H5         4.9672    9.4977    5.0830 H         1 RES1    0.0000
     20 C6         6.8114    6.1295    6.9090 C.3       1 RES1    0.0000
     21 H6         7.8094    6.1848    6.9381 H         1 RES1    0.0000
     22 C7         6.3130    5.0811    7.8638 C.ar      1 RES1    0.0000
     23 C8         4.9598    4.7528    7.8853 C.ar      1 RES1    0.0000
     24 H7         4.3459    5.2301    7.3379 H         1 RES1    0.0000
     25 C9         4.5091    3.7339    8.7020 C.ar      1 RES1    0.0000
     26 H8         3.5843    3.5172    8.7198 H         1 RES1    0.0000
     27 C10        5.3950    3.0252    9.4938 C.ar      1 RES1    0.0000
     28 H9         5.0827    2.3076   10.0327 H         1 RES1    0.0000
     29 C11        6.7335    3.3638    9.5000 C.ar      1 RES1    0.0000
     30 H10        7.3399    2.8966   10.0638 H         1 RES1    0.0000
     31 C12        7.1942    4.3895    8.6813 C.ar      1 RES1    0.0000
     32 H11        8.1163    4.6174    8.6820 H         1 RES1    0.0000
     33 C13        4.4017    5.8440    2.0841 C.2       1 RES1    0.0000
     34 C14        4.3587    4.5064    1.4252 C.ar      1 RES1    0.0000
     35 C15        4.3070    4.4820    0.0289 C.ar      1 RES1    0.0000
     36 H12        4.2922    5.2956   -0.4621 H         1 RES1    0.0000
     37 C16        4.2781    3.2645   -0.6398 C.ar      1 RES1    0.0000
     38 H13        4.2714    3.2295   -1.5884 H         1 RES1    0.0000
     39 C17        4.2600    2.1079    0.1109 C.ar      1 RES1    0.0000
     40 C18        4.2741    2.1101    1.4956 C.ar      1 RES1    0.0000
     41 H14        4.2358    1.2954    1.9817 H         1 RES1    0.0000
     42 C19        4.3439    3.3209    2.1543 C.ar      1 RES1    0.0000
     43 H15        4.3829    3.3446    3.1036 H         1 RES1    0.0000
@<TRIPOS>BOND
     1    1   10 1
     2    2   10 2
     3    3   13 1
     4    4   15 1
     5    5   11 1
     6    6   33 2
     7    7    9 2
     8    8    9 2
     9    9   39 1
    10   10   11 1
    11   11   12 1
    12   13   11 1
    13   14   13 1
    14   15   13 1
    15   16   15 1
    16   17    1 1
    17   18   17 1
    18   19   17 1
    19   20    3 1
    20   21   20 1
    21   22   20 1
    22   23   22 ar
    23   24   23 1
    24   25   23 ar
    25   26   25 1
    26   27   25 ar
    27   28   27 1
    28   29   27 ar
    29   30   29 1
    30   31   22 ar
    31   32   31 1
    32   33    5 1
    33   34   33 1
    34   35   34 ar
    35   36   35 1
    36   37   35 ar
    37   38   37 1
    38   39   37 ar
    39   40   39 ar
    40   41   40 1
    41   42   34 ar
    42   43   42 1
    43    4   20 1
    44   15   17 1
    45   29   31 ar
    46   40   42 ar
@<TRIPOS>SUBSTRUCTURE
     1 RES1 1

@<TRIPOS>CRYSIN
   6.7160   11.2840   22.2160  90.0000  90.0000  90.0000  19 1

