# MOL2 file generated by ConQuest
# Please check atom types

@<TRIPOS>MOLECULE
HOYBON
    45    47     1
SMALL
NO_CHARGES
****
Generated from CSD

@<TRIPOS>ATOM
      1 C1         9.9699    6.1704    0.0909 C.3       1 RES1    0.0000
      2 H1        10.7114    5.7586   -0.4195 H         1 RES1    0.0000
      3 H2        10.0004    7.1520   -0.0291 H         1 RES1    0.0000
      4 C2         8.6220    5.6043   -0.3444 C.3       1 RES1    0.0000
      5 H3         8.6531    5.3004   -1.2863 H         1 RES1    0.0000
      6 H4         7.9057    6.2810   -0.2476 H         1 RES1    0.0000
      7 C3         8.3941    4.4258    0.6042 C.3       1 RES1    0.0000
      8 H5         7.4264    4.2407    0.7065 H         1 RES1    0.0000
      9 H6         8.8399    3.6104    0.2637 H         1 RES1    0.0000
     10 C4         9.0030    4.8573    1.9348 C.3       1 RES1    0.0000
     11 H7         9.4378    4.0668    2.3671 H         1 RES1    0.0000
     12 C5         8.6419    6.1917    3.9225 C.2       1 RES1    0.0000
     13 C6         9.9503    5.6545    4.4313 C.2       1 RES1    0.0000
     14 C7         9.9006    5.2297    5.8806 C.3       1 RES1    0.0000
     15 H8         9.1452    4.6032    6.0089 H         1 RES1    0.0000
     16 H9         9.7354    6.0245    6.4474 H         1 RES1    0.0000
     17 C8        11.1963    4.5530    6.3308 C.3       1 RES1    0.0000
     18 H10       11.2236    4.5139    7.3199 H         1 RES1    0.0000
     19 H11       11.2234    3.6262    5.9856 H         1 RES1    0.0000
     20 C9        12.4065    5.3245    5.8173 C.3       1 RES1    0.0000
     21 H12       12.3688    6.2587    6.1429 H         1 RES1    0.0000
     22 H13       13.2362    4.9109    6.1633 H         1 RES1    0.0000
     23 C10       12.4257    5.3134    4.2929 C.3       1 RES1    0.0000
     24 H14       13.1058    5.9557    3.9710 H         1 RES1    0.0000
     25 H15       12.6849    4.4117    3.9768 H         1 RES1    0.0000
     26 C11       11.0821    5.6769    3.7101 C.2       1 RES1    0.0000
     27 C12       11.1163    6.1367    2.2797 C.2       1 RES1    0.0000
     28 C13        5.6442    5.6330    2.7459 C.3       1 RES1    0.0000
     29 C14        5.4977    5.7419    4.2595 C.3       1 RES1    0.0000
     30 H16        6.1270    5.1284    4.6935 H         1 RES1    0.0000
     31 H17        4.5821    5.5067    4.5172 H         1 RES1    0.0000
     32 H18        5.6904    6.6603    4.5405 H         1 RES1    0.0000
     33 C15        5.4370    4.1951    2.3181 C.3       1 RES1    0.0000
     34 H19        5.4209    4.1440    1.3402 H         1 RES1    0.0000
     35 H20        4.5853    3.8670    2.6760 H         1 RES1    0.0000
     36 H21        6.1707    3.6429    2.6614 H         1 RES1    0.0000
     37 C16        4.7116    6.5841    2.0209 C.3       1 RES1    0.0000
     38 H22        4.8612    7.4969    2.3438 H         1 RES1    0.0000
     39 H23        3.7821    6.3247    2.1923 H         1 RES1    0.0000
     40 H24        4.8893    6.5450    1.0576 H         1 RES1    0.0000
     41 N1        10.0395    5.8058    1.5196 N.am      1 RES1    0.0000
     42 N2         8.0563    5.4738    2.8930 N.am      1 RES1    0.0000
     43 O1         6.9599    6.1376    2.2980 O.3       1 RES1    0.0000
     44 O2         8.1205    7.1496    4.4696 O.2       1 RES1    0.0000
     45 O3        12.0597    6.7770    1.8236 O.2       1 RES1    0.0000
@<TRIPOS>BOND
     1    1    2 1
     2    3    1 1
     3    4    1 1
     4    5    4 1
     5    6    4 1
     6    7    4 1
     7    8    7 1
     8    9    7 1
     9   10    7 1
    10   11   10 1
    11   12   13 1
    12   13   14 1
    13   14   15 1
    14   16   14 1
    15   17   14 1
    16   18   17 1
    17   19   17 1
    18   20   17 1
    19   21   20 1
    20   22   20 1
    21   23   20 1
    22   24   23 1
    23   25   23 1
    24   26   13 2
    25   27   26 1
    26   28   29 1
    27   29   30 1
    28   31   29 1
    29   32   29 1
    30   33   28 1
    31   34   33 1
    32   35   33 1
    33   36   33 1
    34   37   28 1
    35   38   37 1
    36   39   37 1
    37   40   37 1
    38   41    1 1
    39   42   10 1
    40   43   28 1
    41   44   12 2
    42   45   27 2
    43   10   41 1
    44   12   42 1
    45   23   26 1
    46   27   41 1
    47   42   43 1
@<TRIPOS>SUBSTRUCTURE
     1 RES1 1

@<TRIPOS>CRYSIN
  11.0491    9.2956   15.5574  90.0000 110.5540  90.0000  14 1

