# MOL2 file generated by ConQuest
# Please check atom types

@<TRIPOS>MOLECULE
HOYRES
    48    51     1
SMALL
NO_CHARGES
****
Generated from CSD

@<TRIPOS>ATOM
      1 O1        -2.1510   -1.0151    8.5891 O.2       1 RES1    0.0000
      2 O2        -2.5481   -3.2062    8.2935 O.3       1 RES1    0.0000
      3 O3        -8.1470   -0.2754    6.0651 O.2       1 RES1    0.0000
      4 C1        -6.8665    0.0552    7.9709 C.ar      1 RES1    0.0000
      5 O4        -8.1932    1.6810    6.9939 O.2       1 RES1    0.0000
      6 N1        -7.7964    0.5185    6.9378 N.pl3     1 RES1    0.0000
      7 C2        -2.3928   -2.5457   12.8546 C.2       1 RES1    0.0000
      8 C3        -3.6489   -2.2196   13.1803 C.2       1 RES1    0.0000
      9 H1        -3.9151   -2.3180   14.0871 H         1 RES1    0.0000
     10 C4        -2.5365   -2.0823    9.0150 C.2       1 RES1    0.0000
     11 C5        -3.9941   -1.2146   10.8927 C.3       1 RES1    0.0000
     12 H2        -3.4384   -0.4143   11.1192 H         1 RES1    0.0000
     13 C6        -1.9026   -2.4840   11.4328 C.3       1 RES1    0.0000
     14 C7        -5.0233   -0.7889    9.8647 C.ar      1 RES1    0.0000
     15 C8        -5.4445    0.5333    9.8286 C.ar      1 RES1    0.0000
     16 H3        -5.1004    1.1517   10.4629 H         1 RES1    0.0000
     17 C9        -1.4118   -3.0224   13.8897 C.ar      1 RES1    0.0000
     18 C10       -5.5697   -1.6834    8.9448 C.ar      1 RES1    0.0000
     19 H4        -5.3144   -2.5980    8.9779 H         1 RES1    0.0000
     20 C11       -6.3541    0.9626    8.8847 C.ar      1 RES1    0.0000
     21 H5        -6.6278    1.8729    8.8617 H         1 RES1    0.0000
     22 C12       -0.4403   -4.8454   15.1332 C.ar      1 RES1    0.0000
     23 H6        -0.4186   -5.7716   15.3436 H         1 RES1    0.0000
     24 C13       -3.0476   -2.3243   10.4158 C.3       1 RES1    0.0000
     25 H7        -3.5651   -3.1800   10.4047 H         1 RES1    0.0000
     26 C14       -1.3577   -4.3756   14.2143 C.ar      1 RES1    0.0000
     27 H8        -1.9593   -4.9827   13.7995 H         1 RES1    0.0000
     28 C15       -0.5442   -1.8581   11.1673 C.3       1 RES1    0.0000
     29 H9        -0.4378   -1.3231   10.3406 H         1 RES1    0.0000
     30 H10       -0.0278   -1.5286   11.9448 H         1 RES1    0.0000
     31 C16       -0.5162   -2.1628   14.5099 C.ar      1 RES1    0.0000
     32 H11       -0.5335   -1.2359   14.3005 H         1 RES1    0.0000
     33 C17       -4.6643   -1.7080   12.1963 C.3       1 RES1    0.0000
     34 H12       -5.1710   -0.9629   12.6061 H         1 RES1    0.0000
     35 H13       -5.3058   -2.4313   11.9819 H         1 RES1    0.0000
     36 C18       -6.4798   -1.2673    7.9839 C.ar      1 RES1    0.0000
     37 H14       -6.8290   -1.8807    7.3487 H         1 RES1    0.0000
     38 C19       -0.7186   -3.3347   11.0220 C.3       1 RES1    0.0000
     39 H15       -0.3082   -3.9168   11.7093 H         1 RES1    0.0000
     40 H16       -0.7175   -3.7101   10.1051 H         1 RES1    0.0000
     41 C20        0.4467   -3.9853   15.7494 C.ar      1 RES1    0.0000
     42 H17        1.0753   -4.3119   16.3817 H         1 RES1    0.0000
     43 C21       -2.0526   -3.1272    6.9348 C.3       1 RES1    0.0000
     44 H18       -2.5514   -2.4398    6.4448 H         1 RES1    0.0000
     45 H19       -2.1711   -3.9935    6.4939 H         1 RES1    0.0000
     46 H20       -1.1018   -2.8932    6.9479 H         1 RES1    0.0000
     47 C22        0.4058   -2.6405   15.4338 C.ar      1 RES1    0.0000
     48 H21        1.0126   -2.0396   15.8496 H         1 RES1    0.0000
@<TRIPOS>BOND
     1    1   10 2
     2    2   10 1
     3    3    6 2
     4    4    6 1
     5    5    6 2
     6    7    8 2
     7    8    9 1
     8   10   24 1
     9   11   12 1
    10   13    7 1
    11   14   11 1
    12   15   14 ar
    13   16   15 1
    14   17    7 1
    15   18   14 ar
    16   19   18 1
    17   20    4 ar
    18   21   20 1
    19   22   23 1
    20   24   11 1
    21   25   24 1
    22   26   17 ar
    23   27   26 1
    24   28   13 1
    25   29   28 1
    26   30   28 1
    27   31   17 ar
    28   32   31 1
    29   33    8 1
    30   34   33 1
    31   35   33 1
    32   36    4 ar
    33   37   36 1
    34   38   13 1
    35   39   38 1
    36   40   38 1
    37   41   22 ar
    38   42   41 1
    39   43    2 1
    40   44   43 1
    41   45   43 1
    42   46   43 1
    43   47   31 ar
    44   48   47 1
    45   11   33 1
    46   13   24 1
    47   15   20 ar
    48   18   36 ar
    49   22   26 ar
    50   28   38 1
    51   41   47 ar
@<TRIPOS>SUBSTRUCTURE
     1 RES1 1

@<TRIPOS>CRYSIN
   7.8064   11.4141   11.4902 111.6780 108.2150  91.3040   2 1

