# MOL2 file generated by ConQuest
# Please check atom types

@<TRIPOS>MOLECULE
HOYSEV
    54    56     2
SMALL
NO_CHARGES
****
Generated from CSD

@<TRIPOS>ATOM
      1 C1         4.6122    7.0918    8.2096 C.3       1 RES1    0.0000
      2 C2         4.9893    8.4059    7.6553 C.2       1 RES1    0.0000
      3 C3         6.2345    9.0401    7.4371 C.2       1 RES1    0.0000
      4 C4         8.5933    9.0091    7.4080 C.2       1 RES1    0.0000
      5 C5         9.8351    8.3509    7.6238 C.2       1 RES1    0.0000
      6 C6        10.1597    7.0460    8.2317 C.3       1 RES1    0.0000
      7 O1         3.9684    5.2538    6.9413 O.2       1 RES1    0.0000
      8 O2         5.8921    5.9857    6.6507 O.2       1 RES1    0.0000
      9 O3         5.5458    5.5576    9.6471 O.2       1 RES1    0.0000
     10 O4         5.7012    7.6382   10.1266 O.2       1 RES1    0.0000
     11 O5         4.6944   10.2875    6.6986 O.3       1 RES1    0.0000
     12 O6         7.4089    8.4821    7.7871 O.3       1 RES1    0.0000
     13 O7        10.1504   10.2128    6.6659 O.3       1 RES1    0.0000
     14 O8         8.7372    6.0676    6.6916 O.2       1 RES1    0.0000
     15 O9         9.8244    7.7938   10.3693 O.2       1 RES1    0.0000
     16 O10        8.7174    6.0890    9.8116 O.2       1 RES1    0.0000
     17 O11       10.2446    4.8571    7.5258 O.2       1 RES1    0.0000
     18 N1         4.8570    5.9865    7.1945 N.pl3     1 RES1    0.0000
     19 N2         5.3773    6.7326    9.4405 N.pl3     1 RES1    0.0000
     20 N3         4.0558    9.1933    7.1956 N.2       1 RES1    0.0000
     21 N4         6.0690   10.1833    6.8689 N.2       1 RES1    0.0000
     22 N5         8.7717   10.1449    6.8222 N.2       1 RES1    0.0000
     23 N6        10.7722    9.1110    7.1571 N.2       1 RES1    0.0000
     24 N7         9.6684    5.8892    7.4045 N.pl3     1 RES1    0.0000
     25 N8         9.5105    6.9508    9.6039 N.pl3     1 RES1    0.0000
     26 H1        11.1320    6.9452    8.3192 H         1 RES1    0.0000
     27 H2         3.8263    7.0200    8.4009 H         1 RES1    0.0000
     28 C7        -0.0923    5.2455    5.2226 C.3       2 RES2    0.0000
     29 C8         1.2491    5.5973    4.7372 C.2       2 RES2    0.0000
     30 C9         1.8963    6.8380    4.5342 C.2       2 RES2    0.0000
     31 C10        1.8916    9.2026    4.5353 C.2       2 RES2    0.0000
     32 C11        1.2625   10.4463    4.8107 C.2       2 RES2    0.0000
     33 C12       -0.0026   10.8030    5.4804 C.3       2 RES2    0.0000
     34 O12       -2.0735    4.8586    4.0966 O.2       2 RES2    0.0000
     35 O13       -1.0252    6.6955    3.6742 O.2       2 RES2    0.0000
     36 O14       -1.5863    6.2207    6.7266 O.2       2 RES2    0.0000
     37 O15        0.4880    6.1159    7.2563 O.2       2 RES2    0.0000
     38 O16        3.2007    5.2871    3.9519 O.3       2 RES2    0.0000
     39 O17        1.3191    8.0240    4.8515 O.3       2 RES2    0.0000
     40 O18        3.1079   10.7406    3.7944 O.3       2 RES2    0.0000
     41 O19        0.6901    9.4239    7.2201 O.2       2 RES2    0.0000
     42 O20       -1.0042   10.6797    7.5550 O.2       2 RES2    0.0000
     43 O21       -1.7179    9.3191    4.9985 O.2       2 RES2    0.0000
     44 O22       -1.4121   10.9162    3.7384 O.2       2 RES2    0.0000
     45 N9        -1.1751   10.3100    4.6637 N.pl3     2 RES2    0.0000
     46 N10       -0.1297   10.2237    6.8572 N.pl3     2 RES2    0.0000
     47 N11        2.0318   11.3806    4.3358 N.2       2 RES2    0.0000
     48 N12        3.0105    9.3628    3.9239 N.2       2 RES2    0.0000
     49 N13        3.0840    6.6697    4.0628 N.2       2 RES2    0.0000
     50 N14        2.0653    4.6564    4.3650 N.2       2 RES2    0.0000
     51 N15       -1.1736    5.6456    4.2355 N.pl3     2 RES2    0.0000
     52 N16       -0.4255    5.9366    6.5224 N.pl3     2 RES2    0.0000
     53 H3         0.0115   11.7648    5.6239 H         2 RES2    0.0000
     54 H4        -0.0365    4.3258    5.3673 H         2 RES2    0.0000
@<TRIPOS>BOND
     1    1    2 1
     2    2    3 1
     3    3   12 1
     4    4    5 1
     5    5    6 1
     6    6   24 1
     7    7   18 2
     8    8   18 2
     9    9   19 2
    10   10   19 2
    11   11   20 1
    12   12    4 1
    13   13   22 1
    14   14   24 2
    15   15   25 2
    16   16   25 2
    17   17   24 2
    18   18    1 1
    19   19    1 1
    20   20    2 2
    21   21    3 2
    22   22    4 2
    23   23    5 2
    24   25    6 1
    25   26    6 1
    26   27    1 1
    27   28   29 1
    28   29   30 1
    29   30   39 1
    30   31   32 1
    31   32   33 1
    32   33   45 1
    33   34   51 2
    34   35   51 2
    35   36   52 2
    36   37   52 2
    37   38   49 1
    38   39   31 1
    39   40   47 1
    40   41   46 2
    41   42   46 2
    42   43   45 2
    43   44   45 2
    44   46   33 1
    45   47   32 2
    46   48   31 2
    47   49   30 2
    48   50   29 2
    49   51   28 1
    50   52   28 1
    51   53   33 1
    52   54   28 1
    53   11   21 1
    54   13   23 1
    55   38   50 1
    56   40   48 1
@<TRIPOS>SUBSTRUCTURE
     1 RES1 1
     2 RES2 28

@<TRIPOS>CRYSIN
  14.9740   14.9680   11.8220  90.0000  99.2600  90.0000   9 1

