# MOL2 file generated by ConQuest
# Please check atom types

@<TRIPOS>MOLECULE
HOZFEI
    94    98     2
SMALL
NO_CHARGES
****
Generated from CSD

@<TRIPOS>ATOM
      1 O1         2.6544    1.5482   11.6783 O.3       1 RES1    0.0000
      2 H1         2.4847    2.3728   12.1338 H         1 RES1    0.0000
      3 O2        -0.2464    0.2198   10.2897 O.3       1 RES1    0.0000
      4 O3         0.4652    0.2695   12.4575 O.2       1 RES1    0.0000
      5 N1         1.5597    1.3967   10.8097 N.am      1 RES1    0.0000
      6 C1         1.8901    1.6138    9.4100 C.3       1 RES1    0.0000
      7 H2         1.0516    1.4910    8.8794 H         1 RES1    0.0000
      8 C2         2.4190    3.0248    9.1250 C.3       1 RES1    0.0000
      9 H3         1.6833    3.6484    8.9026 H         1 RES1    0.0000
     10 H4         2.9289    3.3818    9.8947 H         1 RES1    0.0000
     11 C3         3.3089    2.7856    7.9446 C.2       1 RES1    0.0000
     12 H5         3.6358    3.4749    7.3798 H         1 RES1    0.0000
     13 C4         3.5842    1.5044    7.7820 C.2       1 RES1    0.0000
     14 H6         4.1202    1.1664    7.0731 H         1 RES1    0.0000
     15 C5         2.9567    0.6392    8.8387 C.3       1 RES1    0.0000
     16 H7         3.6349    0.4475    9.5468 H         1 RES1    0.0000
     17 C6         2.3636   -0.6742    8.3512 C.ar      1 RES1    0.0000
     18 C7         1.8104   -0.7433    7.0938 C.ar      1 RES1    0.0000
     19 H8         1.8307    0.0266    6.5372 H         1 RES1    0.0000
     20 C8         1.2165   -1.9194    6.6091 C.ar      1 RES1    0.0000
     21 H9         0.8368   -1.9335    5.7384 H         1 RES1    0.0000
     22 C9         1.1827   -3.0389    7.3821 C.ar      1 RES1    0.0000
     23 H10        0.7842   -3.8316    7.0422 H         1 RES1    0.0000
     24 C10        1.7372   -3.0376    8.6875 C.ar      1 RES1    0.0000
     25 C11        1.6990   -4.1855    9.5069 C.ar      1 RES1    0.0000
     26 H11        1.3142   -4.9854    9.1680 H         1 RES1    0.0000
     27 C12        2.2031   -4.1717   10.7718 C.ar      1 RES1    0.0000
     28 H12        2.1649   -4.9529   11.3093 H         1 RES1    0.0000
     29 C13        2.7822   -2.9903   11.2773 C.ar      1 RES1    0.0000
     30 H13        3.1406   -2.9814   12.1570 H         1 RES1    0.0000
     31 C14        2.8340   -1.8618   10.5175 C.ar      1 RES1    0.0000
     32 H14        3.2175   -1.0727   10.8816 H         1 RES1    0.0000
     33 C15        2.3276   -1.8391    9.1899 C.ar      1 RES1    0.0000
     34 C16        0.5795    0.5748   11.2791 C.2       1 RES1    0.0000
     35 C17       -1.4289   -0.6277   10.5605 C.3       1 RES1    0.0000
     36 C18       -2.0356   -0.7673    9.1770 C.3       1 RES1    0.0000
     37 H15       -2.2814    0.1185    8.8356 H         1 RES1    0.0000
     38 H16       -2.8347   -1.3324    9.2273 H         1 RES1    0.0000
     39 H17       -1.3814   -1.1788    8.5728 H         1 RES1    0.0000
     40 C19       -0.9846   -1.9793   11.0753 C.3       1 RES1    0.0000
     41 H18       -0.4728   -1.8616   11.9019 H         1 RES1    0.0000
     42 H19       -0.4205   -2.4157   10.4023 H         1 RES1    0.0000
     43 H20       -1.7709   -2.5354   11.2526 H         1 RES1    0.0000
     44 C20       -2.3737    0.0962   11.5154 C.3       1 RES1    0.0000
     45 H21       -1.9231    0.2422   12.3735 H         1 RES1    0.0000
     46 H22       -3.1761   -0.4481   11.6571 H         1 RES1    0.0000
     47 H23       -2.6291    0.9606   11.1289 H         1 RES1    0.0000
     48 O4         1.8923    5.0382    1.4783 O.3       2 RES2    0.0000
     49 H24        2.5183    5.1188    0.8632 H         2 RES2    0.0000
     50 O5         1.8629    1.7119    2.5100 O.3       2 RES2    0.0000
     51 O6         1.5039    2.6069    0.4453 O.2       2 RES2    0.0000
     52 N2         2.1784    3.8746    2.2152 N.am      2 RES2    0.0000
     53 C21        2.2989    4.0996    3.6430 C.3       2 RES2    0.0000
     54 H25        2.5434    3.2249    4.0609 H         2 RES2    0.0000
     55 C22        3.3906    5.1100    4.0264 C.3       2 RES2    0.0000
     56 H26        4.2748    4.6733    4.1125 H         2 RES2    0.0000
     57 H27        3.4509    5.8460    3.3678 H         2 RES2    0.0000
     58 C23        2.8854    5.6020    5.3606 C.2       2 RES2    0.0000
     59 H28        3.4240    6.0547    5.9986 H         2 RES2    0.0000
     60 C24        1.6071    5.3270    5.5323 C.2       2 RES2    0.0000
     61 H29        1.1171    5.5564    6.3130 H         2 RES2    0.0000
     62 C25        1.0113    4.6060    4.3472 C.3       2 RES2    0.0000
     63 H30        0.5690    5.2791    3.7543 H         2 RES2    0.0000
     64 C26        0.0168    3.5051    4.6536 C.ar      2 RES2    0.0000
     65 C27        0.1654    2.7550    5.7910 C.ar      2 RES2    0.0000
     66 H31        0.8963    2.9389    6.3697 H         2 RES2    0.0000
     67 C28       -0.7231    1.7255    6.1295 C.ar      2 RES2    0.0000
     68 H32       -0.5898    1.2231    6.9237 H         2 RES2    0.0000
     69 C29       -1.7828    1.4481    5.3125 C.ar      2 RES2    0.0000
     70 H33       -2.3928    0.7619    5.5529 H         2 RES2    0.0000
     71 C30       -1.9828    2.1679    4.1161 C.ar      2 RES2    0.0000
     72 C31       -3.0469    1.8531    3.2348 C.ar      2 RES2    0.0000
     73 H34       -3.6642    1.1711    3.4734 H         2 RES2    0.0000
     74 C32       -3.1987    2.5119    2.0557 C.ar      2 RES2    0.0000
     75 H35       -3.9101    2.2777    1.4713 H         2 RES2    0.0000
     76 C33       -2.3113    3.5348    1.6983 C.ar      2 RES2    0.0000
     77 H36       -2.4322    4.0017    0.8787 H         2 RES2    0.0000
     78 C34       -1.2712    3.8635    2.5247 C.ar      2 RES2    0.0000
     79 H37       -0.6692    4.5495    2.2598 H         2 RES2    0.0000
     80 C35       -1.0680    3.2074    3.7682 C.ar      2 RES2    0.0000
     81 C36        1.7947    2.7137    1.6267 C.2       2 RES2    0.0000
     82 C37        1.4971    0.3273    2.1387 C.3       2 RES2    0.0000
     83 C38        1.6806   -0.3842    3.4667 C.3       2 RES2    0.0000
     84 H38        2.6167   -0.3152    3.7466 H         2 RES2    0.0000
     85 H39        1.4383   -1.3287    3.3678 H         2 RES2    0.0000
     86 H40        1.1055    0.0319    4.1434 H         2 RES2    0.0000
     87 C39        0.0440    0.2718    1.7295 C.3       2 RES2    0.0000
     88 H41       -0.5156    0.5871    2.4685 H         2 RES2    0.0000
     89 H42       -0.1976   -0.6516    1.5074 H         2 RES2    0.0000
     90 H43       -0.0969    0.8434    0.9457 H         2 RES2    0.0000
     91 C40        2.4428   -0.2066    1.0840 C.3       2 RES2    0.0000
     92 H44        3.3658   -0.1387    1.4069 H         2 RES2    0.0000
     93 H45        2.3454    0.3180    0.2628 H         2 RES2    0.0000
     94 H46        2.2302   -1.1451    0.8993 H         2 RES2    0.0000
@<TRIPOS>BOND
     1    1    2 1
     2    3   34 1
     3    4   34 2
     4    5    1 1
     5    6    5 1
     6    7    6 1
     7    8    6 1
     8    9    8 1
     9   10    8 1
    10   11    8 1
    11   12   11 1
    12   13   11 2
    13   14   13 1
    14   15    6 1
    15   16   15 1
    16   17   15 1
    17   18   17 ar
    18   19   18 1
    19   20   18 ar
    20   21   20 1
    21   22   20 ar
    22   23   22 1
    23   24   22 ar
    24   25   24 ar
    25   26   25 1
    26   27   25 ar
    27   28   27 1
    28   29   27 ar
    29   30   29 1
    30   31   29 ar
    31   32   31 1
    32   33   17 ar
    33   34    5 1
    34   35    3 1
    35   36   35 1
    36   37   36 1
    37   38   36 1
    38   39   36 1
    39   40   35 1
    40   41   40 1
    41   42   40 1
    42   43   40 1
    43   44   35 1
    44   45   44 1
    45   46   44 1
    46   47   44 1
    47   48   49 1
    48   50   81 1
    49   51   81 2
    50   52   48 1
    51   53   52 1
    52   54   53 1
    53   55   53 1
    54   56   55 1
    55   57   55 1
    56   58   55 1
    57   59   58 1
    58   60   58 2
    59   61   60 1
    60   62   53 1
    61   63   62 1
    62   64   62 1
    63   65   64 ar
    64   66   65 1
    65   67   65 ar
    66   68   67 1
    67   69   67 ar
    68   70   69 1
    69   71   69 ar
    70   72   71 ar
    71   73   72 1
    72   74   72 ar
    73   75   74 1
    74   76   74 ar
    75   77   76 1
    76   78   76 ar
    77   79   78 1
    78   80   64 ar
    79   81   52 1
    80   82   50 1
    81   83   82 1
    82   84   83 1
    83   85   83 1
    84   86   83 1
    85   87   82 1
    86   88   87 1
    87   89   87 1
    88   90   87 1
    89   91   82 1
    90   92   91 1
    91   93   91 1
    92   94   91 1
    93   13   15 1
    94   24   33 ar
    95   31   33 ar
    96   60   62 1
    97   71   80 ar
    98   78   80 ar
@<TRIPOS>SUBSTRUCTURE
     1 RES1 1
     2 RES2 48

@<TRIPOS>CRYSIN
   8.4710    8.4880   26.1836  95.9800  95.4190 111.9600   2 1

