# MOL2 file generated by ConQuest
# Please check atom types

@<TRIPOS>MOLECULE
HPIOXZ11
    19    20     1
SMALL
NO_CHARGES
****
Generated from CSD

@<TRIPOS>ATOM
      1 O1         6.8262    1.8945    8.5340 O.3       1 RES1    0.0000
      2 O2         7.7808    3.5978    9.6243 O.2       1 RES1    0.0000
      3 N1         5.4869    1.4445    8.2455 N.2       1 RES1    0.0000
      4 C1         4.6595    2.2831    8.7607 C.2       1 RES1    0.0000
      5 C2         5.3337    3.4105    9.4599 C.3       1 RES1    0.0000
      6 H1         5.1381    4.2989    9.0575 H         1 RES1    0.0000
      7 H2         5.1351    3.4455   10.4207 H         1 RES1    0.0000
      8 C3         6.7754    3.0543    9.2655 C.2       1 RES1    0.0000
      9 C4         3.2085    2.0933    8.6163 C.ar      1 RES1    0.0000
     10 C5         2.6984    1.0140    7.8868 C.ar      1 RES1    0.0000
     11 H3         3.3202    0.3711    7.4625 H         1 RES1    0.0000
     12 C6         1.3309    0.8736    7.7239 C.ar      1 RES1    0.0000
     13 H4         1.0037    0.1060    7.1957 H         1 RES1    0.0000
     14 C7         0.4557    1.7986    8.2818 C.ar      1 RES1    0.0000
     15 H5        -0.5257    1.7016    8.1427 H         1 RES1    0.0000
     16 C8         0.9588    2.8619    9.0153 C.ar      1 RES1    0.0000
     17 H6         0.3518    3.5038    9.4178 H         1 RES1    0.0000
     18 C9         2.3304    3.0109    9.1835 C.ar      1 RES1    0.0000
     19 H7         2.6543    3.7530    9.6846 H         1 RES1    0.0000
@<TRIPOS>BOND
     1    1    3 1
     2    2    8 2
     3    3    4 2
     4    4    5 1
     5    5    6 1
     6    7    5 1
     7    8    1 1
     8    9    4 1
     9   10    9 ar
    10   11   10 1
    11   12   10 ar
    12   13   12 1
    13   14   12 ar
    14   15   14 1
    15   16   14 ar
    16   17   16 1
    17   18    9 ar
    18   19   18 1
    19    5    8 1
    20   16   18 ar
@<TRIPOS>SUBSTRUCTURE
     1 RES1 1

@<TRIPOS>CRYSIN
   9.9869    5.3008   13.9874  90.0000  93.1060  90.0000 231 1

