# MOL2 file generated by ConQuest
# Please check atom types

@<TRIPOS>MOLECULE
HPXAXB
    31    32     1
SMALL
NO_CHARGES
****
Generated from CSD

@<TRIPOS>ATOM
      1 C1        15.7194    4.8110   -6.7316 C.3       1 RES1    0.0000
      2 C2        15.1881    5.2705   -5.3609 C.3       1 RES1    0.0000
      3 C3        14.2118    4.2504   -4.7501 C.3       1 RES1    0.0000
      4 C4        13.7308    4.7113   -3.3667 C.3       1 RES1    0.0000
      5 C5        12.7044    3.7337   -2.7780 C.3       1 RES1    0.0000
      6 C6        12.3198    4.1346   -1.3400 C.3       1 RES1    0.0000
      7 C7        11.2570    3.1806   -0.8144 C.3       1 RES1    0.0000
      8 O1        10.9696    3.6247    0.5495 O.3       1 RES1    0.0000
      9 C8        10.0820    2.9100    1.2710 C.ar      1 RES1    0.0000
     10 C9         9.3675    1.8167    0.8050 C.ar      1 RES1    0.0000
     11 C10        8.4687    1.1504    1.6416 C.ar      1 RES1    0.0000
     12 C11        8.3225    1.5754    2.9407 C.ar      1 RES1    0.0000
     13 C12        9.0235    2.6570    3.4510 C.ar      1 RES1    0.0000
     14 C13        9.9199    3.3418    2.6136 C.ar      1 RES1    0.0000
     15 N1         7.3592    0.8850    3.7696 N.pl3     1 RES1    0.0000
     16 O2         6.7455   -0.1345    3.2321 O.2       1 RES1    0.0000
     17 N2         7.1666    1.3328    4.9324 N.2       1 RES1    0.0000
     18 C14        6.2415    0.7199    5.8209 C.ar      1 RES1    0.0000
     19 C15        5.5932   -0.5284    5.6693 C.ar      1 RES1    0.0000
     20 C16        4.7249   -0.9515    6.6728 C.ar      1 RES1    0.0000
     21 C17        4.5016   -0.1782    7.7990 C.ar      1 RES1    0.0000
     22 C18        5.1572    1.0535    7.9626 C.ar      1 RES1    0.0000
     23 C19        6.0391    1.4823    6.9761 C.ar      1 RES1    0.0000
     24 O3         3.6056   -0.6750    8.7037 O.3       1 RES1    0.0000
     25 C20        3.2704    0.1051    9.8648 C.3       1 RES1    0.0000
     26 C21        2.2502   -0.6925   10.6366 C.3       1 RES1    0.0000
     27 C22        1.8314    0.0424   11.9128 C.3       1 RES1    0.0000
     28 C23        0.8080   -0.7464   12.7323 C.3       1 RES1    0.0000
     29 C24        0.3828   -0.0236   14.0178 C.3       1 RES1    0.0000
     30 C25       -0.5894   -0.8535   14.8288 C.3       1 RES1    0.0000
     31 C26       -1.0418   -0.1665   16.0674 C.3       1 RES1    0.0000
@<TRIPOS>BOND
     1    1    2 1
     2    2    3 1
     3    3    4 1
     4    4    5 1
     5    5    6 1
     6    6    7 1
     7    7    8 1
     8    8    9 1
     9    9   10 ar
    10   10   11 ar
    11   11   12 ar
    12   12   13 ar
    13   13   14 ar
    14   14    9 ar
    15   15   12 1
    16   16   15 1
    17   17   15 2
    18   18   17 1
    19   19   18 ar
    20   20   19 ar
    21   21   20 ar
    22   22   21 ar
    23   23   18 ar
    24   24   21 1
    25   25   24 1
    26   26   25 1
    27   27   26 1
    28   28   27 1
    29   29   28 1
    30   30   29 1
    31   31   30 1
    32   22   23 ar
@<TRIPOS>SUBSTRUCTURE
     1 RES1 1

@<TRIPOS>CRYSIN
  18.8790    7.8000   10.9400 128.8000  87.0500  97.6100   2 1

