# MOL2 file generated by ConQuest
# Please check atom types

@<TRIPOS>MOLECULE
HQUINO10
    19    20     1
SMALL
USER_CHARGES
****
Generated from CSD

@<TRIPOS>ATOM
      1 C1         1.5150    0.8597    4.0558 C.ar      1 RES1    0.0000
      2 C2         3.3937   -1.0408    4.8236 C.ar      1 RES1    0.0000
      3 C3         3.6124   -0.2544    3.6974 C.ar      1 RES1    0.0000
      4 C4         2.7009    0.6771    3.3017 C.ar      1 RES1    0.0000
      5 C5         0.5437    1.8203    3.7060 C.ar      1 RES1    0.0000
      6 C6        -0.5822    1.9320    4.4589 C.ar      1 RES1    0.0000
      7 C7        -0.7945    1.1136    5.5665 C.ar      1 RES1    0.0000
      8 C8         0.1249    0.1875    5.9398 C.ar      1 RES1    0.0000
      9 C9         1.3046    0.0463    5.1894 C.ar      1 RES1    0.0000
     10 H1         4.0400   -1.7061    5.1448 H         1 RES1    0.0000
     11 H2         4.4443   -0.4321    3.2025 H         1 RES1    0.0000
     12 H3         2.8368    1.2455    2.4819 H         1 RES1    0.0000
     13 H4         0.6897    2.3931    2.9619 H         1 RES1    0.0000
     14 H5        -1.2635    2.6126    4.2691 H         1 RES1    0.0000
     15 H6        -1.5457    1.1742    6.1222 H         1 RES1    0.0000
     16 H7         0.7807   -1.2795    6.9631 H         1 RES1    0.0000
     17 N1         2.2744   -0.9030    5.5504 N.pl3     1 RES1    1.0000
     18 O1         2.0941   -1.6776    6.6220 O.2       1 RES1   -1.0000
     19 O2        -0.1008   -0.5999    7.0164 O.3       1 RES1    0.0000
@<TRIPOS>BOND
     1    1    4 ar
     2    2    3 ar
     3    3    4 ar
     4    4   12 1
     5    5    1 ar
     6    6    5 ar
     7    7    6 ar
     8    8    7 ar
     9    9    1 ar
    10   10    2 1
    11   11    3 1
    12   13    5 1
    13   14    6 1
    14   15    7 1
    15   16   19 1
    16   17    2 ar
    17   18   17 1
    18   19    8 1
    19    8    9 ar
    20    9   17 ar
@<TRIPOS>SUBSTRUCTURE
     1 RES1 1

@<TRIPOS>CRYSIN
  12.1364    4.9211   13.1384  90.0000 109.2600  90.0000  14 1

