# MOL2 file generated by ConQuest
# Please check atom types

@<TRIPOS>MOLECULE
HUCQOM
    32    33     1
SMALL
NO_CHARGES
****
Generated from CSD

@<TRIPOS>ATOM
      1 O1         3.1128    6.5054   13.2869 O.2       1 RES1    0.0000
      2 O2         0.2883    0.4065   11.6313 O.2       1 RES1    0.0000
      3 O3        -1.5915    1.1539   10.8691 O.2       1 RES1    0.0000
      4 N1         1.1373    6.6354   12.1368 N.am      1 RES1    0.0000
      5 H1         0.5717    7.2150   11.7935 H         1 RES1    0.0000
      6 N2        -0.4595    1.3343   11.3417 N.pl3     1 RES1    0.0000
      7 C1         3.3349   10.8184   13.3540 C.ar      1 RES1    0.0000
      8 C2         4.5175   11.3868   13.8220 C.ar      1 RES1    0.0000
      9 H2         5.2190   10.8225   14.1269 H         1 RES1    0.0000
     10 C3         4.6872   12.7629   13.8498 C.ar      1 RES1    0.0000
     11 H3         5.5012   13.1341   14.1699 H         1 RES1    0.0000
     12 C4         3.6780   13.5924   13.4150 C.ar      1 RES1    0.0000
     13 H4         3.7965   14.5353   13.4293 H         1 RES1    0.0000
     14 C5         2.4865   13.0480   12.9542 C.ar      1 RES1    0.0000
     15 H5         1.7874   13.6172   12.6558 H         1 RES1    0.0000
     16 C6         2.3189   11.6728   12.9293 C.ar      1 RES1    0.0000
     17 H6         1.4993   11.3071   12.6186 H         1 RES1    0.0000
     18 C7         3.2204    9.3561   13.3167 C.2       1 RES1    0.0000
     19 H7         3.9177    8.8599   13.7287 H         1 RES1    0.0000
     20 C8         2.2350    8.6596   12.7609 C.2       1 RES1    0.0000
     21 H8         1.5140    9.1218   12.3493 H         1 RES1    0.0000
     22 C9         2.2359    7.1789   12.7694 C.2       1 RES1    0.0000
     23 C10        0.8010    5.2923   11.9666 C.ar      1 RES1    0.0000
     24 C11        1.6441    4.2367   12.2901 C.ar      1 RES1    0.0000
     25 H9         2.5041    4.4097   12.6544 H         1 RES1    0.0000
     26 C12        1.2329    2.9341   12.0815 C.ar      1 RES1    0.0000
     27 H10        1.8056    2.2078   12.2991 H         1 RES1    0.0000
     28 C13       -0.0213    2.6998   11.5529 C.ar      1 RES1    0.0000
     29 C14       -0.8696    3.7365   11.2077 C.ar      1 RES1    0.0000
     30 H11       -1.7232    3.5548   10.8323 H         1 RES1    0.0000
     31 C15       -0.4627    5.0300   11.4136 C.ar      1 RES1    0.0000
     32 H12       -1.0377    5.7506   11.1818 H         1 RES1    0.0000
@<TRIPOS>BOND
     1    1   22 2
     2    2    6 2
     3    3    6 2
     4    4    5 1
     5    6   28 1
     6    7    8 ar
     7    8    9 1
     8   10    8 ar
     9   11   10 1
    10   12   10 ar
    11   13   12 1
    12   14   12 ar
    13   15   14 1
    14   16    7 ar
    15   17   16 1
    16   18    7 1
    17   19   18 1
    18   20   18 2
    19   21   20 1
    20   22    4 1
    21   23    4 1
    22   24   23 ar
    23   25   24 1
    24   26   24 ar
    25   27   26 1
    26   28   26 ar
    27   29   28 ar
    28   30   29 1
    29   31   23 ar
    30   32   31 1
    31   14   16 ar
    32   20   22 1
    33   29   31 ar
@<TRIPOS>SUBSTRUCTURE
     1 RES1 1

@<TRIPOS>CRYSIN
   5.9030   15.0500   14.3880  90.0000  95.3800  90.0000  14 1

