# MOL2 file generated by ConQuest
# Please check atom types

@<TRIPOS>MOLECULE
HUCRAZ
   111   111     3
SMALL
NO_CHARGES
****
Generated from CSD

@<TRIPOS>ATOM
      1 O1         0.2721   -0.1863   15.0003 O.2       1 RES1    0.0000
      2 O2        -1.7334    0.8307   14.8736 O.3       1 RES1    0.0000
      3 O3        -3.3030    2.6225   10.8032 O.2       1 RES1    0.0000
      4 O4        -2.2511    2.4283    8.9218 O.2       1 RES1    0.0000
      5 N1        -2.3537    2.1985   10.1400 N.pl3     1 RES1    0.0000
      6 N2         0.0436    1.1408    8.7702 N.3       1 RES1    0.0000
      7 C1        -3.2318    1.1645   16.7003 C.3       1 RES1    0.0000
      8 H1        -3.3242    1.1372   17.6558 H         1 RES1    0.0000
      9 H2        -3.8728    0.5696   16.3003 H         1 RES1    0.0000
     10 H3        -3.3868    2.0592   16.3884 H         1 RES1    0.0000
     11 C2        -1.8363    0.7373   16.3152 C.3       1 RES1    0.0000
     12 H4        -1.1803    1.3156   16.7349 H         1 RES1    0.0000
     13 H5        -1.6746   -0.1740   16.6042 H         1 RES1    0.0000
     14 C3        -0.5908    0.3425   14.3462 C.2       1 RES1    0.0000
     15 C4        -0.5240    0.5395   12.8834 C.ar      1 RES1    0.0000
     16 C5        -1.4730    1.2135   12.1573 C.ar      1 RES1    0.0000
     17 H6        -2.2297    1.5371   12.5861 H         1 RES1    0.0000
     18 C6        -1.3218    1.4216   10.7947 C.ar      1 RES1    0.0000
     19 C7        -0.1799    0.9497   10.0826 C.ar      1 RES1    0.0000
     20 C8         0.7713    0.2298   10.8622 C.ar      1 RES1    0.0000
     21 H7         1.5240   -0.1202   10.4434 H         1 RES1    0.0000
     22 C9         0.6085    0.0392   12.2065 C.ar      1 RES1    0.0000
     23 H8         1.2572   -0.4284   12.6834 H         1 RES1    0.0000
     24 C10        1.2726    0.7140    8.1064 C.3       1 RES1    0.0000
     25 H9         1.3918   -0.2401    8.2307 H         1 RES1    0.0000
     26 H10        2.0310    1.1692    8.5042 H         1 RES1    0.0000
     27 C11        1.2147    1.0276    6.6238 C.3       1 RES1    0.0000
     28 H11        0.9936    1.9647    6.5043 H         1 RES1    0.0000
     29 H12        0.5094    0.5012    6.2125 H         1 RES1    0.0000
     30 C12        2.5333    0.7302    5.9271 C.3       1 RES1    0.0000
     31 H13        2.7565   -0.2037    6.0606 H         1 RES1    0.0000
     32 H14        3.2333    1.2662    6.3311 H         1 RES1    0.0000
     33 C13        2.4763    1.0253    4.4311 C.3       1 RES1    0.0000
     34 H15        3.2974    0.7476    4.0181 H         1 RES1    0.0000
     35 H16        2.3558    1.9675    4.2947 H         1 RES1    0.0000
     36 H17        1.7444    0.5459    4.0394 H         1 RES1    0.0000
     37 O5         3.8444    2.7835    9.3908 O.2       2 RES2    0.0000
     38 O6         5.8838    3.6675    9.7546 O.3       2 RES2    0.0000
     39 O7         7.5181    4.1814   14.1700 O.2       2 RES2    0.0000
     40 O8         6.5554    3.3396   15.9167 O.2       2 RES2    0.0000
     41 N3         6.6044    3.5406   14.6912 N.pl3     2 RES2    0.0000
     42 N4         4.2376    2.0964   15.7191 N.3       2 RES2    0.0000
     43 C14        7.3231    4.5520    8.0796 C.3       2 RES2    0.0000
     44 H18        7.3955    4.8127    7.1578 H         2 RES2    0.0000
     45 H19        7.9750    3.8756    8.2732 H         2 RES2    0.0000
     46 H20        7.4793    5.3150    8.6410 H         2 RES2    0.0000
     47 C15        5.9425    4.0053    8.3422 C.3       2 RES2    0.0000
     48 H21        5.2714    4.6703    8.1273 H         2 RES2    0.0000
     49 H22        5.7827    3.2170    7.7991 H         2 RES2    0.0000
     50 C16        4.7477    3.0631   10.1516 C.2       2 RES2    0.0000
     51 C17        4.7061    2.8100   11.6077 C.ar      2 RES2    0.0000
     52 C18        5.6728    3.2419   12.4840 C.ar      2 RES2    0.0000
     53 H23        6.4166    3.6940   12.1606 H         2 RES2    0.0000
     54 C19        5.5469    3.0097   13.8520 C.ar      2 RES2    0.0000
     55 C20        4.4237    2.3333   14.4098 C.ar      2 RES2    0.0000
     56 C21        3.4484    1.9073   13.4724 C.ar      2 RES2    0.0000
     57 H24        2.6904    1.4647   13.7806 H         2 RES2    0.0000
     58 C22        3.5887    2.1285   12.1290 C.ar      2 RES2    0.0000
     59 H25        2.9294    1.8215   11.5467 H         2 RES2    0.0000
     60 C23        3.0113    1.5106   16.2644 C.3       2 RES2    0.0000
     61 H26        2.8670    0.6337   15.8748 H         2 RES2    0.0000
     62 H27        2.2498    2.0703   16.0358 H         2 RES2    0.0000
     63 C24        3.1165    1.3872   17.7704 C.3       2 RES2    0.0000
     64 H28        3.3358    2.2531   18.1482 H         2 RES2    0.0000
     65 H29        3.8347    0.7729   17.9902 H         2 RES2    0.0000
     66 C25        1.8180    0.8876   18.3938 C.3       2 RES2    0.0000
     67 H30        1.5846    0.0312   18.0054 H         2 RES2    0.0000
     68 H31        1.1038    1.5134   18.1938 H         2 RES2    0.0000
     69 C26        1.9508    0.7361   19.9065 C.3       2 RES2    0.0000
     70 H32        1.1220    0.4161   20.2697 H         2 RES2    0.0000
     71 H33        2.1660    1.5873   20.2971 H         2 RES2    0.0000
     72 H34        2.6476    0.1096   20.1056 H         2 RES2    0.0000
     73 O9        12.4438    4.1082   10.1756 O.2       3 RES3    0.0000
     74 O10       10.4802    5.1204    9.7255 O.3       3 RES3    0.0000
     75 O11        9.0400    5.7335    5.2627 O.2       3 RES3    0.0000
     76 O12        9.9832    4.7818    3.5549 O.2       3 RES3    0.0000
     77 N5         9.9344    5.0278    4.7746 N.pl3     3 RES3    0.0000
     78 N6        12.2769    3.5105    3.8190 N.3       3 RES3    0.0000
     79 C27        8.9686    6.0116   11.3385 C.3       3 RES3    0.0000
     80 H35        8.8597    6.2778   12.2548 H         3 RES3    0.0000
     81 H36        8.3054    5.3502   11.1181 H         3 RES3    0.0000
     82 H37        8.8550    6.7762   10.7686 H         3 RES3    0.0000
     83 C28       10.3461    5.4321   11.1391 C.3       3 RES3    0.0000
     84 H38       11.0235    6.0733   11.4068 H         3 RES3    0.0000
     85 H39       10.4507    4.6291   11.6713 H         3 RES3    0.0000
     86 C29       11.6053    4.4717    9.3774 C.2       3 RES3    0.0000
     87 C30       11.7195    4.2553    7.9155 C.ar      3 RES3    0.0000
     88 C31       10.7922    4.7209    7.0064 C.ar      3 RES3    0.0000
     89 H40       10.0526    5.1944    7.3067 H         3 RES3    0.0000
     90 C32       10.9556    4.4883    5.6375 C.ar      3 RES3    0.0000
     91 C33       12.0807    3.7858    5.1244 C.ar      3 RES3    0.0000
     92 C34       13.0366    3.3610    6.0906 C.ar      3 RES3    0.0000
     93 H41       13.8070    2.9310    5.8022 H         3 RES3    0.0000
     94 C35       12.8512    3.5663    7.4268 C.ar      3 RES3    0.0000
     95 H42       13.4847    3.2455    8.0301 H         3 RES3    0.0000
     96 C36       13.4935    2.8907    3.3050 C.3       3 RES3    0.0000
     97 H43       13.6387    2.0414    3.7506 H         3 RES3    0.0000
     98 H44       14.2563    3.4634    3.4892 H         3 RES3    0.0000
     99 C37       13.3755    2.6688    1.8106 C.3       3 RES3    0.0000
    100 H45       13.1631    3.5109    1.3799 H         3 RES3    0.0000
    101 H46       12.6441    2.0521    1.6382 H         3 RES3    0.0000
    102 C38       14.6601    2.1087    1.2051 C.3       3 RES3    0.0000
    103 H47       14.8862    1.2792    1.6534 H         3 RES3    0.0000
    104 H48       15.3829    2.7372    1.3556 H         3 RES3    0.0000
    105 C39       14.5249    1.8480   -0.2985 C.3       3 RES3    0.0000
    106 H49       15.3486    1.4809   -0.6352 H         3 RES3    0.0000
    107 H50       14.3345    2.6731   -0.7507 H         3 RES3    0.0000
    108 H51       13.8117    1.2262   -0.4529 H         3 RES3    0.0000
    109 H52        4.8231    2.3456   16.2547 H         2 RES2    0.0000
    110 H53       -0.5765    1.5901    8.3158 H         1 RES1    0.0000
    111 H54       11.6815    3.7221    3.3008 H         3 RES3    0.0000
@<TRIPOS>BOND
     1    1   14 2
     2    2   11 1
     3    3    5 2
     4    4    5 2
     5    5   18 1
     6    6   19 1
     7    7    8 1
     8    9    7 1
     9   10    7 1
    10   11    7 1
    11   12   11 1
    12   13   11 1
    13   14    2 1
    14   15   14 1
    15   16   15 ar
    16   17   16 1
    17   18   16 ar
    18   19   18 ar
    19   20   19 ar
    20   21   20 1
    21   22   15 ar
    22   23   22 1
    23   24    6 1
    24   25   24 1
    25   26   24 1
    26   27   24 1
    27   28   27 1
    28   29   27 1
    29   30   27 1
    30   31   30 1
    31   32   30 1
    32   33   30 1
    33   34   33 1
    34   35   33 1
    35   36   33 1
    36   37   50 2
    37   38   47 1
    38   39   41 2
    39   40   41 2
    40   41   54 1
    41   42   55 1
    42   43   44 1
    43   45   43 1
    44   46   43 1
    45   47   43 1
    46   48   47 1
    47   49   47 1
    48   50   38 1
    49   51   50 1
    50   52   51 ar
    51   53   52 1
    52   54   52 ar
    53   55   54 ar
    54   56   55 ar
    55   57   56 1
    56   58   51 ar
    57   59   58 1
    58   60   42 1
    59   61   60 1
    60   62   60 1
    61   63   60 1
    62   64   63 1
    63   65   63 1
    64   66   63 1
    65   67   66 1
    66   68   66 1
    67   69   66 1
    68   70   69 1
    69   71   69 1
    70   72   69 1
    71   73   86 2
    72   74   83 1
    73   75   77 2
    74   76   77 2
    75   77   90 1
    76   78   91 1
    77   79   80 1
    78   81   79 1
    79   82   79 1
    80   83   79 1
    81   84   83 1
    82   85   83 1
    83   86   74 1
    84   87   86 1
    85   88   87 ar
    86   89   88 1
    87   90   88 ar
    88   91   90 ar
    89   92   91 ar
    90   93   92 1
    91   94   87 ar
    92   95   94 1
    93   96   78 1
    94   97   96 1
    95   98   96 1
    96   99   96 1
    97  100   99 1
    98  101   99 1
    99  102   99 1
   100  103  102 1
   101  104  102 1
   102  105  102 1
   103  106  105 1
   104  107  105 1
   105  108  105 1
   106  109   42 1
   107  110    6 1
   108  111   78 1
   109   20   22 ar
   110   56   58 ar
   111   92   94 ar
@<TRIPOS>SUBSTRUCTURE
     1 RES1 1
     2 RES2 37
     3 RES3 73

@<TRIPOS>CRYSIN
  65.2920    3.9555   31.4417  90.0000 104.8330  90.0000  15 1

