# MOL2 file generated by ConQuest
# Please check atom types

@<TRIPOS>MOLECULE
HUCTAC
    20    20     1
SMALL
NO_CHARGES
****
Generated from CSD

@<TRIPOS>ATOM
      1 C1         2.0033   -0.0324    8.5182 C.2       1 RES1    0.0000
      2 C2         3.1258   -1.0453    8.4815 C.3       1 RES1    0.0000
      3 H1         3.1293   -1.5504    9.3334 H         1 RES1    0.0000
      4 H2         3.9887   -0.5645    8.4128 H         1 RES1    0.0000
      5 C3         3.0121   -2.0399    7.3104 C.3       1 RES1    0.0000
      6 H3         3.5385   -2.8482    7.5326 H         1 RES1    0.0000
      7 H4         2.0653   -2.3154    7.2220 H         1 RES1    0.0000
      8 C4         3.4896   -1.5045    5.9615 C.3       1 RES1    0.0000
      9 H5         4.4503   -1.2776    6.0349 H         1 RES1    0.0000
     10 H6         3.4036   -2.2243    5.2875 H         1 RES1    0.0000
     11 C5         2.7396   -0.2823    5.4635 C.3       1 RES1    0.0000
     12 H7         1.7804   -0.5098    5.3722 H         1 RES1    0.0000
     13 H8         3.0793   -0.0419    4.5655 H         1 RES1    0.0000
     14 C6         2.8759    0.9264    6.3832 C.3       1 RES1    0.0000
     15 H9         3.8114    0.9845    6.7014 H         1 RES1    0.0000
     16 H10        2.6817    1.7475    5.8655 H         1 RES1    0.0000
     17 N1         1.9854    0.8717    7.5373 N.am      1 RES1    0.0000
     18 O1         1.1362   -0.0243    9.4077 O.2       1 RES1    0.0000
     19 O2         0.8661    1.7016    7.4083 O.3       1 RES1    0.0000
     20 H11        0.8078    2.2000    8.0823 H         1 RES1    0.0000
@<TRIPOS>BOND
     1    1    2 1
     2    2    3 1
     3    4    2 1
     4    5    2 1
     5    6    5 1
     6    7    5 1
     7    8    5 1
     8    9    8 1
     9   10    8 1
    10   11    8 1
    11   12   11 1
    12   13   11 1
    13   14   11 1
    14   15   14 1
    15   16   14 1
    16   17    1 1
    17   18    1 2
    18   19   17 1
    19   20   19 1
    20   14   17 1
@<TRIPOS>SUBSTRUCTURE
     1 RES1 1

@<TRIPOS>CRYSIN
   5.1537    6.7525    9.5458  90.0000  99.5540  90.0000   4 1

