# MOL2 file generated by ConQuest
# Please check atom types

@<TRIPOS>MOLECULE
HUDBOY
    33    34     1
SMALL
NO_CHARGES
****
Generated from CSD

@<TRIPOS>ATOM
      1 N1         3.2542    5.2002    4.6650 N.pl3     1 RES1    0.0000
      2 H1         3.4531    4.3744    4.8013 H         1 RES1    0.0000
      3 N2         3.7645    5.8680    3.5810 N.2       1 RES1    0.0000
      4 O1         5.7170    1.0643    3.1482 O.3       1 RES1    0.0000
      5 C1         2.4275    5.8629    5.5237 C.ar      1 RES1    0.0000
      6 C2         1.9664    5.3099    6.7349 C.ar      1 RES1    0.0000
      7 N3         2.2660    3.9528    7.1108 N.pl3     1 RES1    0.0000
      8 C3         4.5885    5.2359    2.8116 C.2       1 RES1    0.0000
      9 O2         1.6935    3.4649    8.0874 O.2       1 RES1    0.0000
     10 C4         4.9842    3.8454    2.9343 C.2       1 RES1    0.0000
     11 H2         4.6242    3.3538    3.6372 H         1 RES1    0.0000
     12 O3         3.0773    3.2977    6.4451 O.2       1 RES1    0.0000
     13 C5         1.9943    7.1551    5.2287 C.ar      1 RES1    0.0000
     14 H3         2.2329    7.5391    4.4156 H         1 RES1    0.0000
     15 C6         6.9331    1.0922    1.2992 C.2       1 RES1    0.0000
     16 H4         7.3715    1.3853    0.5332 H         1 RES1    0.0000
     17 C7         6.1922    1.8440    2.1309 C.2       1 RES1    0.0000
     18 C8         1.2282    7.8712    6.1040 C.ar      1 RES1    0.0000
     19 H5         0.9602    8.7325    5.8783 H         1 RES1    0.0000
     20 C9         5.8307    3.2224    2.1078 C.2       1 RES1    0.0000
     21 H6         6.2250    3.7442    1.4467 H         1 RES1    0.0000
     22 C10        5.1191    6.0450    1.6733 C.3       1 RES1    0.0000
     23 H7         4.7019    6.9100    1.6742 H         1 RES1    0.0000
     24 H8         4.9270    5.5981    0.8460 H         1 RES1    0.0000
     25 H9         6.0687    6.1478    1.7684 H         1 RES1    0.0000
     26 C11        1.1968    6.0533    7.6209 C.ar      1 RES1    0.0000
     27 H10        0.9206    5.6750    8.4233 H         1 RES1    0.0000
     28 C12        0.8438    7.3377    7.3196 C.ar      1 RES1    0.0000
     29 H11        0.3521    7.8457    7.9239 H         1 RES1    0.0000
     30 C13        6.9220   -0.2216    1.8039 C.2       1 RES1    0.0000
     31 H12        7.3468   -0.9626    1.4351 H         1 RES1    0.0000
     32 C14        6.1859   -0.1971    2.9094 C.2       1 RES1    0.0000
     33 H13        6.0125   -0.9365    3.4461 H         1 RES1    0.0000
@<TRIPOS>BOND
     1    1    2 1
     2    3    1 1
     3    4   17 1
     4    5    1 1
     5    6    5 ar
     6    7    6 1
     7    8    3 2
     8    9    7 2
     9   10    8 1
    10   11   10 1
    11   12    7 2
    12   13    5 ar
    13   14   13 1
    14   15   16 1
    15   17   15 2
    16   18   13 ar
    17   19   18 1
    18   20   10 2
    19   21   20 1
    20   22    8 1
    21   23   22 1
    22   24   22 1
    23   25   22 1
    24   26    6 ar
    25   27   26 1
    26   28   18 ar
    27   29   28 1
    28   30   15 1
    29   31   30 1
    30   32    4 1
    31   33   32 1
    32   17   20 1
    33   26   28 ar
    34   30   32 2
@<TRIPOS>SUBSTRUCTURE
     1 RES1 1

@<TRIPOS>CRYSIN
   8.2261    9.0200    9.1027  89.1660  77.5490  80.2500   2 1

