# MOL2 file generated by ConQuest
# Please check atom types

@<TRIPOS>MOLECULE
HUDCUF
    33    34     1
SMALL
NO_CHARGES
****
Generated from CSD

@<TRIPOS>ATOM
      1 O1        -1.6618   -0.8696   15.8647 O.3       1 RES1    0.0000
      2 O2        -0.5908   -0.4812   13.9730 O.2       1 RES1    0.0000
      3 O3        -3.9911   -1.2264   15.9045 O.3       1 RES1    0.0000
      4 C1        -1.6607   -0.5898   14.5379 C.2       1 RES1    0.0000
      5 N1        -2.0904    0.1616   11.7338 N.3       1 RES1    0.0000
      6 C2        -2.2854    0.5586   10.3855 C.ar      1 RES1    0.0000
      7 C3        -1.3256    0.2231    9.4523 C.ar      1 RES1    0.0000
      8 H1        -0.5767   -0.2736    9.6933 H         1 RES1    0.0000
      9 C4        -2.8820   -0.6423   16.6026 C.3       1 RES1    0.0000
     10 O4        -5.2161   -1.1202   14.0734 O.2       1 RES1    0.0000
     11 C5        -3.0732   -0.1132   12.5739 C.2       1 RES1    0.0000
     12 H2        -3.9390   -0.0482   12.2407 H         1 RES1    0.0000
     13 O5         0.2628   -0.6369    7.4045 O.2       1 RES1    0.0000
     14 C6        -4.1380   -0.9306   14.5873 C.2       1 RES1    0.0000
     15 C7        -2.9435   -0.4853   13.8917 C.2       1 RES1    0.0000
     16 C8        -1.5079    0.6459    8.1512 C.ar      1 RES1    0.0000
     17 C9        -3.4131    1.2712   10.0036 C.ar      1 RES1    0.0000
     18 H3        -4.0609    1.4953   10.6320 H         1 RES1    0.0000
     19 C10       -2.7457   -1.4116   17.8893 C.3       1 RES1    0.0000
     20 H4        -3.5646   -1.3497   18.3875 H         1 RES1    0.0000
     21 H5        -2.0268   -1.0427   18.4080 H         1 RES1    0.0000
     22 H6        -2.5594   -2.3328   17.6931 H         1 RES1    0.0000
     23 N2        -0.4754    0.3029    7.1676 N.pl3     1 RES1    0.0000
     24 C11       -3.1064    0.8299   16.8060 C.3       1 RES1    0.0000
     25 H7        -3.1845    1.2629   15.9532 H         1 RES1    0.0000
     26 H8        -2.3649    1.2032   17.2880 H         1 RES1    0.0000
     27 H9        -3.9144    0.9638   17.3073 H         1 RES1    0.0000
     28 C12       -2.6014    1.3611    7.7401 C.ar      1 RES1    0.0000
     29 H10       -2.6889    1.6435    6.8591 H         1 RES1    0.0000
     30 O6        -0.3950    0.9857    6.1640 O.2       1 RES1    0.0000
     31 C13       -3.5671    1.6461    8.6815 C.ar      1 RES1    0.0000
     32 H11       -4.3369    2.0986    8.4228 H         1 RES1    0.0000
     33 H12       -1.2558    0.0877   12.0093 H         1 RES1    0.0000
@<TRIPOS>BOND
     1    1    4 1
     2    2    4 2
     3    3    9 1
     4    4   15 1
     5    5    6 1
     6    6    7 ar
     7    7    8 1
     8    9    1 1
     9   10   14 2
    10   11    5 1
    11   12   11 1
    12   13   23 2
    13   14    3 1
    14   15   11 2
    15   16    7 ar
    16   17    6 ar
    17   18   17 1
    18   19    9 1
    19   20   19 1
    20   21   19 1
    21   22   19 1
    22   23   16 1
    23   24    9 1
    24   25   24 1
    25   26   24 1
    26   27   24 1
    27   28   16 ar
    28   29   28 1
    29   30   23 2
    30   31   17 ar
    31   32   31 1
    32   33    5 1
    33   14   15 1
    34   28   31 ar
@<TRIPOS>SUBSTRUCTURE
     1 RES1 1

@<TRIPOS>CRYSIN
  11.7900    8.7699   14.0614  90.0000 113.8640  90.0000  14 1

