# MOL2 file generated by ConQuest
# Please check atom types

@<TRIPOS>MOLECULE
HUDDAL
    35    36     1
SMALL
NO_CHARGES
****
Generated from CSD

@<TRIPOS>ATOM
      1 N1         1.6803    0.8518    4.1421 N.3       1 RES1    0.0000
      2 O1         1.8225    1.8103    5.2350 O.3       1 RES1    0.0000
      3 H1         1.3960    2.4890    5.0609 H         1 RES1    0.0000
      4 C1         3.0396    0.3057    3.9616 C.3       1 RES1    0.0000
      5 H2         3.3525   -0.0490    4.8198 H         1 RES1    0.0000
      6 C2         3.9960    1.3927    3.5054 C.3       1 RES1    0.0000
      7 H3         4.8727    1.0197    3.3873 H         1 RES1    0.0000
      8 H4         4.0296    2.0879    4.1668 H         1 RES1    0.0000
      9 H5         3.6898    1.7589    2.6720 H         1 RES1    0.0000
     10 C3         2.9993   -0.8293    2.9489 C.3       1 RES1    0.0000
     11 H6         2.7854   -0.4676    2.0748 H         1 RES1    0.0000
     12 H7         3.8777   -1.2372    2.8948 H         1 RES1    0.0000
     13 C4         1.9816   -1.8905    3.3076 C.3       1 RES1    0.0000
     14 H8         2.2677   -2.3499    4.1125 H         1 RES1    0.0000
     15 H9         1.9338   -2.5433    2.5919 H         1 RES1    0.0000
     16 C5         0.5932   -1.2877    3.5362 C.3       1 RES1    0.0000
     17 C6         0.0554   -0.7248    2.2082 C.3       1 RES1    0.0000
     18 H10       -0.8180   -0.3314    2.3614 H         1 RES1    0.0000
     19 H11        0.6477   -0.0216    1.8989 H         1 RES1    0.0000
     20 O2        -0.0540   -1.7214    1.1936 O.3       1 RES1    0.0000
     21 H12        0.6829   -1.8524    0.8586 H         1 RES1    0.0000
     22 C7        -0.3650   -2.3549    4.0800 C.3       1 RES1    0.0000
     23 H13       -0.5017   -3.0310    3.3983 H         1 RES1    0.0000
     24 H14        0.0461   -2.7854    4.8455 H         1 RES1    0.0000
     25 C8        -1.7190   -1.7949    4.4980 C.3       1 RES1    0.0000
     26 H15       -2.1897   -1.4749    3.7117 H         1 RES1    0.0000
     27 H16       -2.2501   -2.5014    4.8970 H         1 RES1    0.0000
     28 C9        -1.5706   -0.6592    5.4907 C.3       1 RES1    0.0000
     29 H17       -1.2442   -1.0141    6.3321 H         1 RES1    0.0000
     30 H18       -2.4414   -0.2625    5.6524 H         1 RES1    0.0000
     31 C10       -0.6133    0.4225    4.9997 C.3       1 RES1    0.0000
     32 H19       -0.4816    1.0806    5.7006 H         1 RES1    0.0000
     33 H20       -1.0001    0.8732    4.2331 H         1 RES1    0.0000
     34 C11        0.7375   -0.1823    4.6075 C.3       1 RES1    0.0000
     35 H21        1.1217   -0.5947    5.4092 H         1 RES1    0.0000
@<TRIPOS>BOND
     1    1    2 1
     2    2    3 1
     3    4    1 1
     4    5    4 1
     5    6    4 1
     6    7    6 1
     7    8    6 1
     8    9    6 1
     9   10    4 1
    10   11   10 1
    11   12   10 1
    12   13   10 1
    13   14   13 1
    14   15   13 1
    15   16   13 1
    16   17   16 1
    17   18   17 1
    18   19   17 1
    19   20   17 1
    20   21   20 1
    21   22   16 1
    22   23   22 1
    23   24   22 1
    24   25   22 1
    25   26   25 1
    26   27   25 1
    27   28   25 1
    28   29   28 1
    29   30   28 1
    30   31   28 1
    31   32   31 1
    32   33   31 1
    33   34    1 1
    34   35   34 1
    35   16   34 1
    36   31   34 1
@<TRIPOS>SUBSTRUCTURE
     1 RES1 1

@<TRIPOS>CRYSIN
   8.3897   11.2676   11.4629  90.0000  90.0000  90.0000  19 1

