# MOL2 file generated by ConQuest
# Please check atom types

@<TRIPOS>MOLECULE
HUDJEW
    53    56     1
SMALL
NO_CHARGES
****
Generated from CSD

@<TRIPOS>ATOM
      1 O1        10.8891  -10.3702   12.3225 O.2       1 RES1    0.0000
      2 O2        10.8228  -11.5967   10.5727 O.2       1 RES1    0.0000
      3 O3         4.7911   -2.5054    4.4652 O.3       1 RES1    0.0000
      4 O4        10.3778    6.6898   -2.1267 O.2       1 RES1    0.0000
      5 O5         9.7587    7.8665   -0.4437 O.2       1 RES1    0.0000
      6 N1        10.6315  -10.5466   11.1464 N.pl3     1 RES1    0.0000
      7 N2         7.7818   -6.3941    7.1123 N.2       1 RES1    0.0000
      8 N3         6.5883    2.2881    2.2552 N.2       1 RES1    0.0000
      9 N4         9.7778    6.8278   -1.0757 N.pl3     1 RES1    0.0000
     10 C1        10.0473   -9.4271   10.3866 C.ar      1 RES1    0.0000
     11 C2         9.6264   -9.6487    9.0927 C.ar      1 RES1    0.0000
     12 C3         9.0369   -8.6077    8.4006 C.ar      1 RES1    0.0000
     13 C4         8.8788   -7.3668    8.9929 C.ar      1 RES1    0.0000
     14 C5         9.3468   -7.1770   10.2839 C.ar      1 RES1    0.0000
     15 C6         9.9283   -8.2125   10.9865 C.ar      1 RES1    0.0000
     16 C7         8.1747   -6.2745    8.2952 C.2       1 RES1    0.0000
     17 C8         7.0899   -5.3342    6.4642 C.ar      1 RES1    0.0000
     18 C9         6.3289   -5.6777    5.3597 C.ar      1 RES1    0.0000
     19 C10        5.5936   -4.7215    4.6778 C.ar      1 RES1    0.0000
     20 C11        5.6422   -3.4137    5.0916 C.ar      1 RES1    0.0000
     21 C12        6.4396   -3.0347    6.1503 C.ar      1 RES1    0.0000
     22 C13        7.1587   -3.9895    6.8387 C.ar      1 RES1    0.0000
     23 C14        5.3223   -1.3238    3.9655 C.ar      1 RES1    0.0000
     24 C15        4.4649   -0.2437    3.9050 C.ar      1 RES1    0.0000
     25 C16        4.9031    0.9390    3.3420 C.ar      1 RES1    0.0000
     26 C17        6.1797    1.0416    2.8081 C.ar      1 RES1    0.0000
     27 C18        7.0407   -0.0437    2.9029 C.ar      1 RES1    0.0000
     28 C19        6.6136   -1.2302    3.4866 C.ar      1 RES1    0.0000
     29 C20        7.1744    2.2865    1.1366 C.2       1 RES1    0.0000
     30 C21        7.7495    3.5045    0.5426 C.ar      1 RES1    0.0000
     31 C22        8.3670    3.4192   -0.7035 C.ar      1 RES1    0.0000
     32 C23        9.0168    4.5116   -1.2474 C.ar      1 RES1    0.0000
     33 C24        9.0195    5.6856   -0.5400 C.ar      1 RES1    0.0000
     34 C25        8.3730    5.8198    0.6695 C.ar      1 RES1    0.0000
     35 C26        7.7342    4.7246    1.2117 C.ar      1 RES1    0.0000
     36 H1         9.7273  -10.4833    8.7305 H         1 RES1    0.0000
     37 H2         8.7319   -8.7491    7.4948 H         1 RES1    0.0000
     38 H3         9.2300   -6.2430   10.7057 H         1 RES1    0.0000
     39 H4        10.2133   -8.1170   11.9003 H         1 RES1    0.0000
     40 H5         8.0266   -5.4742    8.8110 H         1 RES1    0.0000
     41 H6         6.3141   -6.6356    5.0907 H         1 RES1    0.0000
     42 H7         5.0349   -4.9737    3.9405 H         1 RES1    0.0000
     43 H8         6.5020   -2.1119    6.4201 H         1 RES1    0.0000
     44 H9         7.6890   -3.7533    7.5507 H         1 RES1    0.0000
     45 H10        3.5774   -0.3479    4.2658 H         1 RES1    0.0000
     46 H11        4.3260    1.7168    3.3177 H         1 RES1    0.0000
     47 H12        7.9668    0.0333    2.5569 H         1 RES1    0.0000
     48 H13        7.2093   -1.9723    3.5527 H         1 RES1    0.0000
     49 H14        7.2750    1.4415    0.5833 H         1 RES1    0.0000
     50 H15        8.3889    2.5554   -1.1897 H         1 RES1    0.0000
     51 H16        9.4414    4.4675   -2.0442 H         1 RES1    0.0000
     52 H17        8.3785    6.6057    1.1322 H         1 RES1    0.0000
     53 H18        7.2685    4.7541    2.0409 H         1 RES1    0.0000
@<TRIPOS>BOND
     1    1    6 2
     2    2    6 2
     3    3   20 1
     4    4    9 2
     5    5    9 2
     6    6   10 1
     7    7   16 2
     8    8   26 1
     9    9   33 1
    10   10   11 ar
    11   11   12 ar
    12   12   13 ar
    13   13   14 ar
    14   14   15 ar
    15   15   10 ar
    16   16   13 1
    17   17    7 1
    18   18   17 ar
    19   19   18 ar
    20   20   19 ar
    21   21   20 ar
    22   22   17 ar
    23   23    3 1
    24   24   23 ar
    25   25   24 ar
    26   26   25 ar
    27   27   26 ar
    28   28   23 ar
    29   29    8 2
    30   30   29 1
    31   31   30 ar
    32   32   31 ar
    33   33   32 ar
    34   34   33 ar
    35   35   30 ar
    36   36   11 1
    37   37   12 1
    38   38   14 1
    39   39   15 1
    40   40   16 1
    41   41   18 1
    42   42   19 1
    43   43   21 1
    44   44   22 1
    45   45   24 1
    46   46   25 1
    47   47   27 1
    48   48   28 1
    49   49   29 1
    50   50   31 1
    51   51   32 1
    52   52   34 1
    53   53   35 1
    54   21   22 ar
    55   27   28 ar
    56   34   35 ar
@<TRIPOS>SUBSTRUCTURE
     1 RES1 1

@<TRIPOS>CRYSIN
   8.3322    9.0716   17.1070  74.7140  78.8850  64.6430   2 1

