# MOL2 file generated by ConQuest
# Please check atom types

@<TRIPOS>MOLECULE
HUDWAF
    56    58     2
SMALL
USER_CHARGES
****
Generated from CSD

@<TRIPOS>ATOM
      1 O1         1.0187   13.6497   -1.3298 O.2       1 RES1   -1.0000
      2 O2         1.8592    8.5491    0.8189 O.2       1 RES1    0.0000
      3 O3         3.1373    7.2222   -3.0521 O.3       1 RES1    0.0000
      4 O4         6.5935   -3.6334   -1.3760 O.2       2 RES2   -1.0000
      5 O5         4.7066    1.4863   -0.0505 O.2       2 RES2    0.0000
      6 O6         5.3441    2.6605   -4.1047 O.3       2 RES2    0.0000
      7 N1         1.1762   12.6109   -0.6106 N.pl3     1 RES1    1.0000
      8 N2         1.5413   11.4566   -1.1092 N.2       1 RES1    0.0000
      9 N3         1.5787   10.5976   -0.0402 N.am      1 RES1    0.0000
     10 N4         6.1802   -2.5626   -0.8192 N.pl3     2 RES2    1.0000
     11 N5         6.0084   -1.4485   -1.4824 N.2       2 RES2    0.0000
     12 N6         5.5376   -0.5430   -0.5560 N.am      2 RES2    0.0000
     13 C1         1.2260   11.2417    1.1379 C.ar      1 RES1    0.0000
     14 C2         1.0777   10.8392    2.4628 C.ar      1 RES1    0.0000
     15 H1         1.2436    9.9459    2.7400 H         1 RES1    0.0000
     16 C3         0.6737   11.8175    3.3492 C.ar      1 RES1    0.0000
     17 H2         0.5555   11.5822    4.2623 H         1 RES1    0.0000
     18 C4         0.4306   13.1374    2.9634 C.ar      1 RES1    0.0000
     19 H3         0.1573   13.7672    3.6209 H         1 RES1    0.0000
     20 C5         0.5751   13.5529    1.6575 C.ar      1 RES1    0.0000
     21 H4         0.4156   14.4482    1.3832 H         1 RES1    0.0000
     22 C6         0.9730   12.5586    0.7738 C.ar      1 RES1    0.0000
     23 C7         1.9488    9.2249   -0.1833 C.2       1 RES1    0.0000
     24 C8         2.3720    8.8404   -1.5071 C.2       1 RES1    0.0000
     25 H5         2.3772    9.4973   -2.1930 H         1 RES1    0.0000
     26 C9         2.7635    7.5786   -1.8131 C.2       1 RES1    0.0000
     27 C10        2.8707    6.4260   -0.8933 C.3       1 RES1    0.0000
     28 H6         3.1782    5.6389   -1.3909 H         1 RES1    0.0000
     29 H7         1.9919    6.2407   -0.4992 H         1 RES1    0.0000
     30 H8         3.5101    6.6343   -0.1824 H         1 RES1    0.0000
     31 C11        3.1015    8.2025   -4.1060 C.3       1 RES1    0.0000
     32 H9         3.4011    7.7919   -4.9438 H         1 RES1    0.0000
     33 H10        3.6953    8.9495   -3.8775 H         1 RES1    0.0000
     34 H11        2.1860    8.5339   -4.2128 H         1 RES1    0.0000
     35 C12        5.4174   -1.1286    0.6931 C.ar      2 RES2    0.0000
     36 C13        4.9870   -0.6800    1.9479 C.ar      2 RES2    0.0000
     37 H12        4.6894    0.2113    2.0863 H         2 RES2    0.0000
     38 C14        5.0190   -1.6012    2.9661 C.ar      2 RES2    0.0000
     39 H13        4.7336   -1.3309    3.8311 H         2 RES2    0.0000
     40 C15        5.4548   -2.9251    2.7846 C.ar      2 RES2    0.0000
     41 H14        5.4647   -3.5179    3.5267 H         2 RES2    0.0000
     42 C16        5.8691   -3.3827    1.5502 C.ar      2 RES2    0.0000
     43 H15        6.1543   -4.2770    1.4079 H         2 RES2    0.0000
     44 C17        5.8375   -2.4404    0.5343 C.ar      2 RES2    0.0000
     45 C18        5.1494    0.7811   -0.9382 C.2       2 RES2    0.0000
     46 C19        5.3559    1.0965   -2.3307 C.2       2 RES2    0.0000
     47 H16        5.6474    0.4126   -2.9224 H         2 RES2    0.0000
     48 C20        5.1445    2.3463   -2.8156 C.2       2 RES2    0.0000
     49 C21        4.6875    3.5339   -2.0434 C.3       2 RES2    0.0000
     50 H17        4.6194    4.3060   -2.6427 H         2 RES2    0.0000
     51 H18        5.3338    3.7282   -1.3322 H         2 RES2    0.0000
     52 H19        3.8111    3.3487   -1.6474 H         2 RES2    0.0000
     53 C22        5.7339    1.6333   -5.0223 C.3       2 RES2    0.0000
     54 H20        5.8392    2.0178   -5.9174 H         2 RES2    0.0000
     55 H21        5.0446    0.9373   -5.0458 H         2 RES2    0.0000
     56 H22        6.5844    1.2417   -4.7321 H         2 RES2    0.0000
@<TRIPOS>BOND
     1    1    7 1
     2    2   23 2
     3    3   26 1
     4    4   10 1
     5    5   45 2
     6    6   48 1
     7    7    8 2
     8    8    9 1
     9    9   13 1
    10   10   11 2
    11   11   12 1
    12   12   35 1
    13   13   14 ar
    14   14   15 1
    15   16   14 ar
    16   17   16 1
    17   18   16 ar
    18   19   18 1
    19   20   18 ar
    20   21   20 1
    21   22    7 1
    22   23    9 1
    23   24   23 1
    24   25   24 1
    25   26   24 2
    26   27   26 1
    27   28   27 1
    28   29   27 1
    29   30   27 1
    30   31    3 1
    31   32   31 1
    32   33   31 1
    33   34   31 1
    34   35   36 ar
    35   36   37 1
    36   38   36 ar
    37   39   38 1
    38   40   38 ar
    39   41   40 1
    40   42   40 ar
    41   43   42 1
    42   44   10 1
    43   45   12 1
    44   46   45 1
    45   47   46 1
    46   48   46 2
    47   49   48 1
    48   50   49 1
    49   51   49 1
    50   52   49 1
    51   53    6 1
    52   54   53 1
    53   55   53 1
    54   56   53 1
    55   13   22 ar
    56   20   22 ar
    57   35   44 ar
    58   42   44 ar
@<TRIPOS>SUBSTRUCTURE
     1 RES1 1
     2 RES2 4

@<TRIPOS>CRYSIN
  14.0110   10.0140   15.6990  90.0000 100.1300  90.0000  14 1

