# MOL2 file generated by ConQuest
# Please check atom types

@<TRIPOS>MOLECULE
HUFBAM
    60    60     1
SMALL
NO_CHARGES
****
Generated from CSD

@<TRIPOS>ATOM
      1 O1         7.1576   -2.3526    7.4273 O.2       1 RES1    0.0000
      2 O2         7.1480   -0.4879    6.3256 O.2       1 RES1    0.0000
      3 O3         7.4910    1.3728    8.2517 O.3       1 RES1    0.0000
      4 N1         6.8689   -1.1662    7.3091 N.pl3     1 RES1    0.0000
      5 C1         6.1111   -0.5394    8.3994 C.ar      1 RES1    0.0000
      6 C2         6.4376    0.7493    8.8326 C.ar      1 RES1    0.0000
      7 C3         5.6642    1.2842    9.8510 C.ar      1 RES1    0.0000
      8 H1         5.8418    2.1596   10.1755 H         1 RES1    0.0000
      9 C4         7.8599    2.6731    8.7596 C.3       1 RES1    0.0000
     10 H2         7.9899    2.6363    9.7405 H         1 RES1    0.0000
     11 H3         7.1515    3.3355    8.5595 H         1 RES1    0.0000
     12 C5         9.1482    3.0573    8.0726 C.3       1 RES1    0.0000
     13 H4         9.3630    3.9989    8.2917 H         1 RES1    0.0000
     14 H5         9.0215    2.9954    7.0928 H         1 RES1    0.0000
     15 C6        10.3195    2.1741    8.4790 C.3       1 RES1    0.0000
     16 H6        10.1610    1.2601    8.1338 H         1 RES1    0.0000
     17 H7        10.3479    2.1206    9.4671 H         1 RES1    0.0000
     18 C7        11.6764    2.6562    7.9781 C.3       1 RES1    0.0000
     19 H8        11.6900    2.6188    6.9894 H         1 RES1    0.0000
     20 H9        11.8058    3.6001    8.2485 H         1 RES1    0.0000
     21 C8        12.8217    1.8204    8.5235 C.3       1 RES1    0.0000
     22 H10       12.7684    1.8195    9.5122 H         1 RES1    0.0000
     23 H11       12.7036    0.8867    8.2175 H         1 RES1    0.0000
     24 C9        14.2079    2.2906    8.1155 C.3       1 RES1    0.0000
     25 H12       14.3061    3.2473    8.3499 H         1 RES1    0.0000
     26 H13       14.3020    2.2080    7.1332 H         1 RES1    0.0000
     27 C10       15.3183    1.4969    8.7887 C.3       1 RES1    0.0000
     28 H14       15.2433    1.5915    9.7612 H         1 RES1    0.0000
     29 H15       16.1880    1.8370    8.4927 H         1 RES1    0.0000
     30 H16       15.2376    0.5514    8.5454 H         1 RES1    0.0000
     31 O1B        3.5893    2.3526   11.3641 O.2       1 RES1    0.0000
     32 O2B        3.5989    0.4879   12.4657 O.2       1 RES1    0.0000
     33 O3B        3.2559   -1.3728   10.5396 O.3       1 RES1    0.0000
     34 N1B        3.8780    1.1662   11.4823 N.pl3     1 RES1    0.0000
     35 C1B        4.6358    0.5394   10.3920 C.ar      1 RES1    0.0000
     36 C2B        4.3093   -0.7493    9.9588 C.ar      1 RES1    0.0000
     37 C3B        5.0827   -1.2842    8.9404 C.ar      1 RES1    0.0000
     38 H1B        4.9051   -2.1596    8.6158 H         1 RES1    0.0000
     39 C4B        2.8870   -2.6731   10.0318 C.3       1 RES1    0.0000
     40 H2B        2.7570   -2.6363    9.0508 H         1 RES1    0.0000
     41 H3B        3.5954   -3.3355   10.2319 H         1 RES1    0.0000
     42 C5B        1.5987   -3.0573   10.7188 C.3       1 RES1    0.0000
     43 H4B        1.3839   -3.9989   10.4997 H         1 RES1    0.0000
     44 H5B        1.7254   -2.9954   11.6985 H         1 RES1    0.0000
     45 C6B        0.4274   -2.1741   10.3123 C.3       1 RES1    0.0000
     46 H6B        0.5859   -1.2601   10.6575 H         1 RES1    0.0000
     47 H7B        0.3990   -2.1206    9.3243 H         1 RES1    0.0000
     48 C7B       -0.9295   -2.6562   10.8132 C.3       1 RES1    0.0000
     49 H8B       -0.9431   -2.6188   11.8019 H         1 RES1    0.0000
     50 H9B       -1.0589   -3.6001   10.5429 H         1 RES1    0.0000
     51 C8B       -2.0748   -1.8204   10.2679 C.3       1 RES1    0.0000
     52 H10B      -2.0215   -1.8195    9.2792 H         1 RES1    0.0000
     53 H11B      -1.9567   -0.8867   10.5739 H         1 RES1    0.0000
     54 C9B       -3.4610   -2.2906   10.6758 C.3       1 RES1    0.0000
     55 H12B      -3.5592   -3.2473   10.4414 H         1 RES1    0.0000
     56 H13B      -3.5551   -2.2080   11.6581 H         1 RES1    0.0000
     57 C10B      -4.5714   -1.4969   10.0026 C.3       1 RES1    0.0000
     58 H14B      -4.4964   -1.5915    9.0302 H         1 RES1    0.0000
     59 H15B      -5.4411   -1.8370   10.2986 H         1 RES1    0.0000
     60 H16B      -4.4907   -0.5514   10.2460 H         1 RES1    0.0000
@<TRIPOS>BOND
     1    1    4 2
     2    2    4 2
     3    3    6 1
     4    4    5 1
     5    5    6 ar
     6    6    7 ar
     7    7    8 1
     8    9    3 1
     9   10    9 1
    10   11    9 1
    11   12    9 1
    12   13   12 1
    13   14   12 1
    14   15   12 1
    15   16   15 1
    16   17   15 1
    17   18   15 1
    18   19   18 1
    19   20   18 1
    20   21   18 1
    21   22   21 1
    22   23   21 1
    23   24   21 1
    24   25   24 1
    25   26   24 1
    26   27   24 1
    27   28   27 1
    28   29   27 1
    29   30   27 1
    30   31   34 2
    31   32   34 2
    32   33   36 1
    33   34   35 1
    34   35    7 ar
    35   36   35 ar
    36   37    5 ar
    37   38   37 1
    38   39   33 1
    39   40   39 1
    40   41   39 1
    41   42   39 1
    42   43   42 1
    43   44   42 1
    44   45   42 1
    45   46   45 1
    46   47   45 1
    47   48   45 1
    48   49   48 1
    49   50   48 1
    50   51   48 1
    51   52   51 1
    52   53   51 1
    53   54   51 1
    54   55   54 1
    55   56   54 1
    56   57   54 1
    57   58   57 1
    58   59   57 1
    59   60   57 1
    60   36   37 ar
@<TRIPOS>SUBSTRUCTURE
     1 RES1 1

@<TRIPOS>CRYSIN
  13.9880    7.9454    9.5344  90.0000  99.7860  90.0000  14 1

