# MOL2 file generated by ConQuest
# Please check atom types

@<TRIPOS>MOLECULE
HUFKOJ
    50    51     1
SMALL
NO_CHARGES
****
Generated from CSD

@<TRIPOS>ATOM
      1 C1         3.1091    2.9019   11.3595 C.ar      1 RES1    0.0000
      2 C2         2.5392    2.9345   10.1038 C.ar      1 RES1    0.0000
      3 H1         1.7660    2.4479    9.9288 H         1 RES1    0.0000
      4 C3         3.1191    3.6915    9.1115 C.ar      1 RES1    0.0000
      5 H2         2.7296    3.7316    8.2684 H         1 RES1    0.0000
      6 C4         4.2674    4.3839    9.3669 C.ar      1 RES1    0.0000
      7 H3         4.6679    4.8826    8.6913 H         1 RES1    0.0000
      8 C5         4.8294    4.3473   10.6127 C.ar      1 RES1    0.0000
      9 H4         5.6144    4.8213   10.7690 H         1 RES1    0.0000
     10 C6         4.2593    3.6198   11.6551 C.ar      1 RES1    0.0000
     11 C7         4.9350    3.6976   12.9866 C.ar      1 RES1    0.0000
     12 C8         5.7822    2.6966   13.4560 C.ar      1 RES1    0.0000
     13 C9         6.5067    2.9142   14.6353 C.ar      1 RES1    0.0000
     14 C10        5.5768    5.0168   14.8926 C.ar      1 RES1    0.0000
     15 C11        4.8545    4.8903   13.6997 C.ar      1 RES1    0.0000
     16 C12        5.4968    6.2494   15.7449 C.3       1 RES1    0.0000
     17 H5         5.8789    6.0685   16.6061 H         1 RES1    0.0000
     18 H6         4.5779    6.5063   15.8494 H         1 RES1    0.0000
     19 H7         5.9821    6.9624   15.3232 H         1 RES1    0.0000
     20 C13        7.4721    1.9162   15.2002 C.3       1 RES1    0.0000
     21 H8         8.2539    1.8774   14.6443 H         1 RES1    0.0000
     22 H9         7.0577    1.0515   15.2299 H         1 RES1    0.0000
     23 H10        7.7234    2.1809   16.0884 H         1 RES1    0.0000
     24 C14        7.3023   -0.2189   11.8071 C.3       1 RES1    0.0000
     25 H11        6.9193   -0.8906   12.3757 H         1 RES1    0.0000
     26 H12        8.2413   -0.3881   11.6996 H         1 RES1    0.0000
     27 H13        6.8733   -0.2438   10.9486 H         1 RES1    0.0000
     28 C15        1.9590    6.8347   12.5044 C.3       1 RES1    0.0000
     29 H14        2.1133    6.8446   11.5469 H         1 RES1    0.0000
     30 H15        2.1996    7.7054   12.8594 H         1 RES1    0.0000
     31 C16        0.5259    6.5557   12.7823 C.3       1 RES1    0.0000
     32 H16        0.4078    6.5726   13.7547 H         1 RES1    0.0000
     33 C17       -0.3282    7.6712   12.2017 C.3       1 RES1    0.0000
     34 H17       -0.0379    8.5147   12.5567 H         1 RES1    0.0000
     35 H18       -1.2476    7.5246   12.4351 H         1 RES1    0.0000
     36 H19       -0.2382    7.6789   11.2456 H         1 RES1    0.0000
     37 C18        0.0944    5.1926   12.2993 C.3       1 RES1    0.0000
     38 H20        0.2053    5.1414   11.3474 H         1 RES1    0.0000
     39 H21       -0.8284    5.0518   12.5214 H         1 RES1    0.0000
     40 H22        0.6316    4.5178   12.7208 H         1 RES1    0.0000
     41 C19        5.8791    1.4099   12.7113 C.2       1 RES1    0.0000
     42 C20        4.0715    6.0398   13.1701 C.2       1 RES1    0.0000
     43 N1         2.4465    2.1033   12.3873 N.pl3     1 RES1    0.0000
     44 N2         6.3771    4.0501   15.3379 N.ar      1 RES1    0.0000
     45 O1         4.9477    0.7569   12.3944 O.2       1 RES1    0.0000
     46 O2         7.1101    1.0913   12.4078 O.3       1 RES1    0.0000
     47 O3         2.7766    5.8034   13.1269 O.3       1 RES1    0.0000
     48 O4         4.5697    7.0647   12.8025 O.2       1 RES1    0.0000
     49 O5         2.5648    2.4350   13.5496 O.2       1 RES1    0.0000
     50 O6         1.7942    1.1349   12.0304 O.2       1 RES1    0.0000
@<TRIPOS>BOND
     1    1    2 ar
     2    2    3 1
     3    4    2 ar
     4    5    4 1
     5    6    4 ar
     6    7    6 1
     7    8    6 ar
     8    9    8 1
     9   10    1 ar
    10   11   10 1
    11   12   11 ar
    12   13   12 ar
    13   14   15 ar
    14   15   11 ar
    15   16   14 1
    16   17   16 1
    17   18   16 1
    18   19   16 1
    19   20   13 1
    20   21   20 1
    21   22   20 1
    22   23   20 1
    23   24   25 1
    24   26   24 1
    25   27   24 1
    26   28   29 1
    27   30   28 1
    28   31   28 1
    29   32   31 1
    30   33   31 1
    31   34   33 1
    32   35   33 1
    33   36   33 1
    34   37   31 1
    35   38   37 1
    36   39   37 1
    37   40   37 1
    38   41   12 1
    39   42   15 1
    40   43    1 1
    41   44   13 ar
    42   45   41 2
    43   46   24 1
    44   47   28 1
    45   48   42 2
    46   49   43 2
    47   50   43 2
    48    8   10 ar
    49   14   44 ar
    50   41   46 1
    51   42   47 1
@<TRIPOS>SUBSTRUCTURE
     1 RES1 1

@<TRIPOS>CRYSIN
   8.4222   16.5850   14.5011  90.0000 102.7480  90.0000  14 1

