# MOL2 file generated by ConQuest
# Please check atom types

@<TRIPOS>MOLECULE
HUFNON
    26    28     1
SMALL
NO_CHARGES
****
Generated from CSD

@<TRIPOS>ATOM
      1 C1         0.9286    0.9444    8.2054 C.2       1 RES1    0.0000
      2 C2         0.3657    2.2270    8.1554 C.2       1 RES1    0.0000
      3 C3        -0.0435    3.1335    9.2688 C.3       1 RES1    0.0000
      4 H1        -0.4991    3.8976    8.9076 H         1 RES1    0.0000
      5 H2         0.7360    3.4222    9.7494 H         1 RES1    0.0000
      6 H3        -0.6303    2.6620    9.8654 H         1 RES1    0.0000
      7 C4         1.1077    0.5238    6.8904 C.2       1 RES1    0.0000
      8 C5         1.6278   -0.6257    6.2307 C.2       1 RES1    0.0000
      9 H4         1.9584   -1.3441    6.7218 H         1 RES1    0.0000
     10 C6         1.6338   -0.6544    4.8825 C.2       1 RES1    0.0000
     11 H5         1.9696   -1.4054    4.4475 H         1 RES1    0.0000
     12 C7         1.1414    0.4271    4.1088 C.ar      1 RES1    0.0000
     13 C8         0.6303    1.5687    4.7481 C.ar      1 RES1    0.0000
     14 C9         0.1312    2.6542    4.0449 C.ar      1 RES1    0.0000
     15 H6        -0.2054    3.3961    4.4918 H         1 RES1    0.0000
     16 C10        0.1454    2.6058    2.6708 C.ar      1 RES1    0.0000
     17 H7        -0.1814    3.3268    2.1815 H         1 RES1    0.0000
     18 C11        0.6415    1.4917    2.0054 C.ar      1 RES1    0.0000
     19 H8         0.6356    1.4695    1.0760 H         1 RES1    0.0000
     20 C12        1.1354    0.4350    2.7010 C.ar      1 RES1    0.0000
     21 H9         1.4757   -0.2965    2.2385 H         1 RES1    0.0000
     22 N1         1.3258    0.2351    9.3582 N.pl3     1 RES1    0.0000
     23 N2         0.1806    2.6016    6.9012 N.2       1 RES1    0.0000
     24 N3         0.6415    1.5504    6.1482 N.pl3     1 RES1    0.0000
     25 O1         1.3153    0.8124   10.4416 O.2       1 RES1    0.0000
     26 O2         1.6743   -0.9431    9.2211 O.2       1 RES1    0.0000
@<TRIPOS>BOND
     1    1    2 1
     2    2    3 1
     3    3    4 1
     4    5    3 1
     5    6    3 1
     6    7    1 2
     7    8    7 1
     8    9    8 1
     9   10    8 2
    10   11   10 1
    11   12   10 1
    12   13   12 ar
    13   14   13 ar
    14   15   14 1
    15   16   14 ar
    16   17   16 1
    17   18   16 ar
    18   19   18 1
    19   20   12 ar
    20   21   20 1
    21   22    1 1
    22   23    2 2
    23   24    7 1
    24   25   22 2
    25   26   22 2
    26   13   24 1
    27   18   20 ar
    28   23   24 1
@<TRIPOS>SUBSTRUCTURE
     1 RES1 1

@<TRIPOS>CRYSIN
   7.4947   13.0618   21.0980  90.0000  90.0000  90.0000  61 1

