# MOL2 file generated by ConQuest
# Please check atom types

@<TRIPOS>MOLECULE
HUFPOP
    33    36     1
SMALL
NO_CHARGES
****
Generated from CSD

@<TRIPOS>ATOM
      1 C1         4.5670    2.8074    1.8526 C.2       1 RES1    0.0000
      2 C2         4.5907    3.8275    2.8169 C.2       1 RES1    0.0000
      3 C3         4.9153    5.2706    2.6449 C.3       1 RES1    0.0000
      4 H1         4.8936    5.7078    3.5002 H         1 RES1    0.0000
      5 H2         4.2701    5.6770    2.0622 H         1 RES1    0.0000
      6 H3         5.7917    5.3579    2.2633 H         1 RES1    0.0000
      7 C4         4.1905    1.6248    2.5002 C.2       1 RES1    0.0000
      8 C5         3.9837    0.2858    2.1439 C.2       1 RES1    0.0000
      9 H4         4.1040    0.0137    1.2623 H         1 RES1    0.0000
     10 C6         3.6058   -0.6148    3.0932 C.2       1 RES1    0.0000
     11 H5         3.4736   -1.5064    2.8620 H         1 RES1    0.0000
     12 C7         3.4160   -0.2000    4.4194 C.2       1 RES1    0.0000
     13 C8         3.6113    1.1315    4.7606 C.2       1 RES1    0.0000
     14 C9         3.4234    2.6126    6.8162 C.3       1 RES1    0.0000
     15 H6         4.2320    2.6367    7.3322 H         1 RES1    0.0000
     16 H7         2.6663    2.6726    7.4036 H         1 RES1    0.0000
     17 H8         3.4128    3.3517    6.2034 H         1 RES1    0.0000
     18 C10        2.9940    0.1328    6.6301 C.ar      1 RES1    0.0000
     19 C11        3.0156   -0.8503    5.6357 C.ar      1 RES1    0.0000
     20 C12        2.6805   -2.1651    5.9656 C.ar      1 RES1    0.0000
     21 H9         2.6861   -2.8331    5.3189 H         1 RES1    0.0000
     22 C13        2.3414   -2.4515    7.2655 C.ar      1 RES1    0.0000
     23 H10        2.1141   -3.3222    7.4976 H         1 RES1    0.0000
     24 C14        2.3328   -1.4675    8.2345 C.ar      1 RES1    0.0000
     25 H11        2.1081   -1.6948    9.1077 H         1 RES1    0.0000
     26 C15        2.6477   -0.1623    7.9469 C.ar      1 RES1    0.0000
     27 H12        2.6308    0.4971    8.6030 H         1 RES1    0.0000
     28 N1         4.8349    2.9234    0.4812 N.pl3     1 RES1    0.0000
     29 N2         4.2524    3.3657    4.0057 N.2       1 RES1    0.0000
     30 N3         4.0069    2.0237    3.8021 N.pl3     1 RES1    0.0000
     31 N4         3.3599    1.3640    6.0714 N.pl3     1 RES1    0.0000
     32 O1         5.2207    4.0009    0.0320 O.2       1 RES1    0.0000
     33 O2         4.6731    1.9303   -0.2292 O.2       1 RES1    0.0000
@<TRIPOS>BOND
     1    1    2 1
     2    2    3 1
     3    3    4 1
     4    5    3 1
     5    6    3 1
     6    7    1 2
     7    8    7 1
     8    9    8 1
     9   10    8 2
    10   11   10 1
    11   12   10 1
    12   13   12 2
    13   14   15 1
    14   16   14 1
    15   17   14 1
    16   18   19 ar
    17   19   12 1
    18   20   19 ar
    19   21   20 1
    20   22   20 ar
    21   23   22 1
    22   24   22 ar
    23   25   24 1
    24   26   18 ar
    25   27   26 1
    26   28    1 1
    27   29    2 2
    28   30    7 1
    29   31   13 1
    30   32   28 2
    31   33   28 2
    32   13   30 1
    33   14   31 1
    34   18   31 1
    35   24   26 ar
    36   29   30 1
@<TRIPOS>SUBSTRUCTURE
     1 RES1 1

@<TRIPOS>CRYSIN
   7.1508    9.6154   10.0654  82.9650  70.0190  87.2300   2 1

