# MOL2 file generated by ConQuest
# Please check atom types

@<TRIPOS>MOLECULE
HUFSAC
    33    34     1
SMALL
NO_CHARGES
****
Generated from CSD

@<TRIPOS>ATOM
      1 O1         3.9791    2.9953    2.5831 O.3       1 RES1    0.0000
      2 O2         6.4566    4.2410    2.2823 O.3       1 RES1    0.0000
      3 O3         6.4676    0.9477    1.2436 O.2       1 RES1    0.0000
      4 N1         5.1945    2.2615    2.5982 N.am      1 RES1    0.0000
      5 N2         4.2287    1.0596    0.8679 N.am      1 RES1    0.0000
      6 C1         6.3120    3.0513    3.0649 C.3       1 RES1    0.0000
      7 C2         5.2536    5.0327    2.2660 C.3       1 RES1    0.0000
      8 C3         4.1400    4.1662    1.7455 C.3       1 RES1    0.0000
      9 C4         5.3503    1.3937    1.5148 C.2       1 RES1    0.0000
     10 C5         6.2519    3.3556    4.5475 C.ar      1 RES1    0.0000
     11 C6         7.1685    4.2292    5.0659 C.ar      1 RES1    0.0000
     12 C7         7.2142    4.4869    6.4121 C.ar      1 RES1    0.0000
     13 C8         6.3672    3.8671    7.2730 C.ar      1 RES1    0.0000
     14 C9         5.4673    3.0054    6.7746 C.ar      1 RES1    0.0000
     15 C10        5.4082    2.7474    5.4153 C.ar      1 RES1    0.0000
     16 C11        5.5136    6.2491    1.4157 C.3       1 RES1    0.0000
     17 C12        6.5841    7.1568    1.9977 C.3       1 RES1    0.0000
     18 H1         7.0885    2.5035    2.9431 H         1 RES1    0.0000
     19 H2         5.0450    5.3017    3.1646 H         1 RES1    0.0000
     20 H3         7.7678    4.6809    4.4713 H         1 RES1    0.0000
     21 H4         7.8736    5.0943    6.7462 H         1 RES1    0.0000
     22 H5         6.3888    4.0357    8.2177 H         1 RES1    0.0000
     23 H6         4.8481    2.5751    7.3711 H         1 RES1    0.0000
     24 H7         4.7610    2.1254    5.0713 H         1 RES1    0.0000
     25 H8         3.3183    4.6689    1.7395 H         1 RES1    0.0000
     26 H9         4.3526    3.8958    0.8500 H         1 RES1    0.0000
     27 H10        4.2546    0.3721    0.2109 H         1 RES1    0.0000
     28 H11        3.3768    1.3318    1.1924 H         1 RES1    0.0000
     29 H12        5.7955    5.9645    0.5447 H         1 RES1    0.0000
     30 H13        4.6974    6.7572    1.3352 H         1 RES1    0.0000
     31 H14        6.7142    7.9158    1.4262 H         1 RES1    0.0000
     32 H15        7.3981    6.6633    2.0761 H         1 RES1    0.0000
     33 H16        6.2999    7.4560    2.8664 H         1 RES1    0.0000
@<TRIPOS>BOND
     1    1    4 1
     2    2    6 1
     3    3    9 2
     4    4    6 1
     5    5    9 1
     6    6   10 1
     7    7    2 1
     8    8    1 1
     9    9    4 1
    10   10   11 ar
    11   11   12 ar
    12   12   13 ar
    13   13   14 ar
    14   14   15 ar
    15   15   10 ar
    16   16    7 1
    17   17   16 1
    18   18    6 1
    19   19    7 1
    20   20   11 1
    21   21   12 1
    22   22   13 1
    23   23   14 1
    24   24   15 1
    25   25    8 1
    26   26    8 1
    27   27    5 1
    28   28    5 1
    29   29   16 1
    30   30   16 1
    31   31   17 1
    32   32   17 1
    33   33   17 1
    34    7    8 1
@<TRIPOS>SUBSTRUCTURE
     1 RES1 1

@<TRIPOS>CRYSIN
   5.4856    9.9060   12.2270  73.4290  77.4430  78.5760   2 1

