# MOL2 file generated by ConQuest
# Please check atom types

@<TRIPOS>MOLECULE
HUFSAD
    28    29     1
SMALL
NO_CHARGES
****
Generated from CSD

@<TRIPOS>ATOM
      1 C1         1.2993    3.1044    1.0469 C.3       1 RES1    0.0000
      2 H1         1.2016    4.0592    1.0480 H         1 RES1    0.0000
      3 H2         0.5227    2.7026    1.4416 H         1 RES1    0.0000
      4 H3         1.3961    2.7942    0.1439 H         1 RES1    0.0000
      5 C2         2.4984    2.7313    1.8273 C.2       1 RES1    0.0000
      6 C3         4.1658    2.2619    3.1419 C.2       1 RES1    0.0000
      7 H4         4.6635    2.1378    3.9178 H         1 RES1    0.0000
      8 C4         2.8137    2.6883    3.1407 C.2       1 RES1    0.0000
      9 C5         1.8820    3.0733    4.2146 C.2       1 RES1    0.0000
     10 C6         3.5430    2.3145    7.1833 C.2       1 RES1    0.0000
     11 H5         2.8700    2.6358    7.7388 H         1 RES1    0.0000
     12 C7         4.7525    1.7497    7.7849 C.ar      1 RES1    0.0000
     13 C8         5.8119    1.2724    7.0146 C.ar      1 RES1    0.0000
     14 H6         5.7530    1.2933    6.0869 H         1 RES1    0.0000
     15 C9         6.9379    0.7738    7.6095 C.ar      1 RES1    0.0000
     16 H7         7.6372    0.4598    7.0832 H         1 RES1    0.0000
     17 C10        7.0455    0.7325    8.9791 C.ar      1 RES1    0.0000
     18 H8         7.8142    0.3961    9.3806 H         1 RES1    0.0000
     19 C11        6.0053    1.1932    9.7483 C.ar      1 RES1    0.0000
     20 H9         6.0665    1.1640   10.6749 H         1 RES1    0.0000
     21 C12        4.8762    1.6978    9.1534 C.ar      1 RES1    0.0000
     22 H10        4.1807    2.0098    9.6853 H         1 RES1    0.0000
     23 H11        1.6871    3.3198    6.1285 H         1 RES1    0.0000
     24 N1         4.6344    2.0637    1.9589 N.2       1 RES1    0.0000
     25 N2         2.2125    2.9447    5.5033 N.am      1 RES1    0.0000
     26 N3         3.3887    2.3765    5.9261 N.2       1 RES1    0.0000
     27 O1         3.5571    2.3666    1.0986 O.3       1 RES1    0.0000
     28 O2         0.7714    3.5405    3.9290 O.2       1 RES1    0.0000
@<TRIPOS>BOND
     1    1    2 1
     2    3    1 1
     3    4    1 1
     4    5    1 1
     5    6    7 1
     6    8    5 2
     7    9    8 1
     8   10   11 1
     9   12   10 1
    10   13   12 ar
    11   14   13 1
    12   15   13 ar
    13   16   15 1
    14   17   15 ar
    15   18   17 1
    16   19   17 ar
    17   20   19 1
    18   21   12 ar
    19   22   21 1
    20   23   25 1
    21   24    6 2
    22   25    9 1
    23   26   10 2
    24   27    5 1
    25   28    9 2
    26    6    8 1
    27   19   21 ar
    28   24   27 1
    29   25   26 1
@<TRIPOS>SUBSTRUCTURE
     1 RES1 1

@<TRIPOS>CRYSIN
   6.6562    7.4874   11.3051  87.3190  84.6400  87.8780   2 1

