# MOL2 file generated by ConQuest
# Please check atom types

@<TRIPOS>MOLECULE
HUFTAE
    31    33     1
SMALL
NO_CHARGES
****
Generated from CSD

@<TRIPOS>ATOM
      1 O1         5.9204    7.6657    1.0708 O.3       1 RES1    0.0000
      2 O2         3.4231    9.1753   -5.1859 O.2       1 RES1    0.0000
      3 O3         3.4363   11.2642   -4.7033 O.2       1 RES1    0.0000
      4 N1         3.6182   10.0933   -4.4094 N.pl3     1 RES1    0.0000
      5 C1         4.0863    9.7830   -3.0653 C.ar      1 RES1    0.0000
      6 C2         4.2426   10.7941   -2.1657 C.ar      1 RES1    0.0000
      7 H1         4.0133   11.6864   -2.3992 H         1 RES1    0.0000
      8 C3         4.7302   10.5105   -0.9275 C.ar      1 RES1    0.0000
      9 H2         4.8327   11.2108   -0.2945 H         1 RES1    0.0000
     10 C4         5.0819    9.2141   -0.5760 C.ar      1 RES1    0.0000
     11 C5         4.8995    8.2087   -1.4995 C.ar      1 RES1    0.0000
     12 H3         5.1161    7.3126   -1.2692 H         1 RES1    0.0000
     13 C6         4.4048    8.4902   -2.7547 C.ar      1 RES1    0.0000
     14 H4         4.2875    7.7980   -3.3942 H         1 RES1    0.0000
     15 C7         5.6447    8.9649    0.7326 C.2       1 RES1    0.0000
     16 C8         6.4970    8.9523    2.7794 C.2       1 RES1    0.0000
     17 H5         6.8259    9.2397    3.6223 H         1 RES1    0.0000
     18 C9         5.9891    9.7733    1.7587 C.2       1 RES1    0.0000
     19 H6         5.9044   10.7188    1.7844 H         1 RES1    0.0000
     20 C10        6.4295    7.6780    2.3392 C.2       1 RES1    0.0000
     21 C11        6.8072    6.3997    2.9186 C.ar      1 RES1    0.0000
     22 C12        7.2320    6.3446    4.2446 C.ar      1 RES1    0.0000
     23 H7         7.2590    7.1383    4.7662 H         1 RES1    0.0000
     24 C13        7.6115    5.1496    4.7994 C.ar      1 RES1    0.0000
     25 H8         7.8999    5.1232    5.7044 H         1 RES1    0.0000
     26 C14        7.5797    4.0052    4.0721 C.ar      1 RES1    0.0000
     27 H9         7.8384    3.1814    4.4695 H         1 RES1    0.0000
     28 C15        7.1764    4.0370    2.7644 C.ar      1 RES1    0.0000
     29 H10        7.1626    3.2352    2.2535 H         1 RES1    0.0000
     30 C16        6.7881    5.2297    2.1828 C.ar      1 RES1    0.0000
     31 H11        6.5074    5.2454    1.2756 H         1 RES1    0.0000
@<TRIPOS>BOND
     1    1   15 1
     2    2    4 2
     3    3    4 2
     4    4    5 1
     5    5    6 ar
     6    6    7 1
     7    8    6 ar
     8    9    8 1
     9   10    8 ar
    10   11   10 ar
    11   12   11 1
    12   13    5 ar
    13   14   13 1
    14   15   10 1
    15   16   17 1
    16   18   15 2
    17   19   18 1
    18   20    1 1
    19   21   20 1
    20   22   21 ar
    21   23   22 1
    22   24   22 ar
    23   25   24 1
    24   26   24 ar
    25   27   26 1
    26   28   26 ar
    27   29   28 1
    28   30   21 ar
    29   31   30 1
    30   11   13 ar
    31   16   18 1
    32   16   20 2
    33   28   30 ar
@<TRIPOS>SUBSTRUCTURE
     1 RES1 1

@<TRIPOS>CRYSIN
   7.3213   16.2900   10.9040  90.0000 100.8100  90.0000 231 1

