# MOL2 file generated by ConQuest
# Please check atom types

@<TRIPOS>MOLECULE
HUFVUA
    36    29     2
SMALL
NO_CHARGES
****
Generated from CSD

@<TRIPOS>ATOM
      1 O1         9.0890    2.0397    8.8515 O.2       1 RES1    0.0000
      2 O2         8.8253    3.9259    7.8967 O.2       1 RES1    0.0000
      3 O3         5.8546   -1.1587    3.8142 O.2       1 RES1    0.0000
      4 O4         4.6680    2.2427    1.1440 O.3       1 RES1    0.0000
      5 H1         4.7465    3.0476    1.0074 H         1 RES1    0.0000
      6 O5         4.6666   -0.9466    0.9164 O.2       1 RES1    0.0000
      7 O6         3.0421   -0.1550    2.2356 O.3       1 RES1    0.0000
      8 N1         8.6706    2.7272    7.9458 N.pl3     1 RES1    0.0000
      9 N2         5.3996    1.8924    2.2616 N.2       1 RES1    0.0000
     10 C1         7.9525    2.0685    6.8401 C.ar      1 RES1    0.0000
     11 C2         8.0333    0.6975    6.7332 C.ar      1 RES1    0.0000
     12 H2         8.5204    0.1992    7.3486 H         1 RES1    0.0000
     13 C3         7.3756    0.0846    5.6922 C.ar      1 RES1    0.0000
     14 H3         7.4312   -0.8389    5.5922 H         1 RES1    0.0000
     15 C4         6.6260    0.8346    4.7827 C.ar      1 RES1    0.0000
     16 C5         6.5512    2.2112    4.9338 C.ar      1 RES1    0.0000
     17 H4         6.0430    2.7145    4.3400 H         1 RES1    0.0000
     18 C6         7.2306    2.8383    5.9628 C.ar      1 RES1    0.0000
     19 H5         7.1990    3.7634    6.0585 H         1 RES1    0.0000
     20 C7         5.8969    0.0594    3.7337 C.2       1 RES1    0.0000
     21 C8         5.1830    0.6766    2.5845 C.2       1 RES1    0.0000
     22 C9         4.2763   -0.2447    1.7986 C.2       1 RES1    0.0000
     23 C10        1.9417   -0.9837    1.6366 C.3       1 RES1    0.0000
     24 H6         1.1153   -0.4756    1.6098 H         1 RES1    0.0000
     25 H7         2.1727   -1.2444    0.7317 H         1 RES1    0.0000
     26 C11        1.7852   -2.1388    2.4604 C.3       1 RES1    0.0000
     27 H8         1.1481   -2.7326    2.0597 H         1 RES1    0.0000
     28 H9         1.4741   -1.8732    3.3291 H         1 RES1    0.0000
     29 H10        2.6296   -2.5866    2.5458 H         1 RES1    0.0000
     30 C12        2.1766   -1.1768    1.6598 Du        2 SUP2    0.0000
     31 C13        1.0047   -1.2734    2.5966 Du        2 SUP2    0.0000
     32 H11        2.6397   -2.0265    1.6012 Du        2 SUP2    0.0000
     33 H12        1.8848   -0.9185    0.7713 Du        2 SUP2    0.0000
     34 H13        0.3416   -1.8587    2.2217 Du        2 SUP2    0.0000
     35 H14        0.6238   -0.4019    2.7250 Du        2 SUP2    0.0000
     36 H15        1.2977   -1.6222    3.4412 Du        2 SUP2    0.0000
@<TRIPOS>BOND
     1    1    8 2
     2    2    8 2
     3    3   20 2
     4    4    5 1
     5    6   22 2
     6    7   22 1
     7    8   10 1
     8    9    4 1
     9   10   11 ar
    10   11   12 1
    11   13   11 ar
    12   14   13 1
    13   15   13 ar
    14   16   15 ar
    15   17   16 1
    16   18   10 ar
    17   19   18 1
    18   20   15 1
    19   21    9 2
    20   22   21 1
    21   23    7 1
    22   24   23 1
    23   25   23 1
    24   26   23 1
    25   27   26 1
    26   28   26 1
    27   29   26 1
    28   16   18 ar
    29   20   21 1
@<TRIPOS>SUBSTRUCTURE
     1 RES1 1
     2 SUP2 30

@<TRIPOS>CRYSIN
  23.2347   12.0698    8.9698  90.0000 106.1000  90.0000  15 1

