# MOL2 file generated by ConQuest
# Please check atom types

@<TRIPOS>MOLECULE
HUGSUX
    35    36     1
SMALL
NO_CHARGES
****
Generated from CSD

@<TRIPOS>ATOM
      1 O1        -4.7098   -0.8254    6.8585 O.3       1 RES1    0.0000
      2 O2        -4.5395   -0.5663    9.9400 O.2       1 RES1    0.0000
      3 O3        -5.1299    1.3729    8.9951 O.3       1 RES1    0.0000
      4 O4        -1.5520    1.7849    7.2235 O.2       1 RES1    0.0000
      5 O5        -2.4524    2.3605    9.1935 O.3       1 RES1    0.0000
      6 O6        -8.1892   -2.7717    6.5037 O.2       1 RES1    0.0000
      7 O7        -7.2483   -0.9597    7.1840 O.2       1 RES1    0.0000
      8 O8        -4.5943   -4.7657    1.9983 O.2       1 RES1    0.0000
      9 O9        -6.6957   -4.8149    2.4873 O.2       1 RES1    0.0000
     10 N1        -3.3700   -0.2441    6.8529 N.3       1 RES1    0.0000
     11 N2        -7.2726   -1.9678    6.4966 N.pl3     1 RES1    0.0000
     12 N3        -5.5617   -4.4024    2.6653 N.pl3     1 RES1    0.0000
     13 C1        -2.5442   -0.9318    7.8673 C.3       1 RES1    0.0000
     14 H1        -2.9068   -1.7130    8.2675 H         1 RES1    0.0000
     15 H2        -1.5984   -0.9140    7.6528 H         1 RES1    0.0000
     16 C2        -3.1784    0.3595    8.2075 C.3       1 RES1    0.0000
     17 C3        -4.3499    0.3145    9.1592 C.2       1 RES1    0.0000
     18 C4        -2.3100    1.5857    8.1315 C.2       1 RES1    0.0000
     19 C5        -4.8781   -1.6700    5.8143 C.ar      1 RES1    0.0000
     20 C6        -6.1400   -2.2448    5.6109 C.ar      1 RES1    0.0000
     21 C7        -6.3777   -3.1294    4.5748 C.ar      1 RES1    0.0000
     22 H3        -7.2056   -3.5044    4.4569 H         1 RES1    0.0000
     23 C8        -5.3276   -3.4403    3.7408 C.ar      1 RES1    0.0000
     24 C9        -4.0713   -2.9110    3.9159 C.ar      1 RES1    0.0000
     25 H4        -3.3420   -3.1602    3.2825 H         1 RES1    0.0000
     26 C10       -3.8415   -2.0234    4.9467 C.ar      1 RES1    0.0000
     27 H5        -2.9814   -1.6131    5.0767 H         1 RES1    0.0000
     28 C11       -6.3176    1.3924    9.8211 C.3       1 RES1    0.0000
     29 H6        -6.9277    0.7742    9.5418 H         1 RES1    0.0000
     30 H7        -6.1037    1.2458   10.7549 H         1 RES1    0.0000
     31 H8        -6.6873    2.2744    9.7151 H         1 RES1    0.0000
     32 C12       -1.5878    3.5231    9.2258 C.3       1 RES1    0.0000
     33 H9        -1.6961    4.0217    8.3695 H         1 RES1    0.0000
     34 H10       -1.8826    4.0496   10.0413 H         1 RES1    0.0000
     35 H11       -0.7270    3.2680    9.3481 H         1 RES1    0.0000
@<TRIPOS>BOND
     1    1   10 1
     2    2   17 2
     3    3   17 1
     4    4   18 2
     5    5   18 1
     6    6   11 2
     7    7   11 2
     8    8   12 2
     9    9   12 2
    10   10   13 1
    11   11   20 1
    12   12   23 1
    13   13   14 1
    14   15   13 1
    15   16   10 1
    16   17   16 1
    17   18   16 1
    18   19    1 1
    19   20   19 ar
    20   21   20 ar
    21   22   21 1
    22   23   21 ar
    23   24   23 ar
    24   25   24 1
    25   26   19 ar
    26   27   26 1
    27   28    3 1
    28   29   28 1
    29   30   28 1
    30   31   28 1
    31   32    5 1
    32   33   32 1
    33   34   32 1
    34   35   32 1
    35   13   16 1
    36   24   26 ar
@<TRIPOS>SUBSTRUCTURE
     1 RES1 1

@<TRIPOS>CRYSIN
   8.1795    8.5461   10.5620  90.8900 105.0000  94.9400   2 1

