# MOL2 file generated by ConQuest
# Please check atom types

@<TRIPOS>MOLECULE
HUGXAI
    78    82     2
SMALL
NO_CHARGES
****
Generated from CSD

@<TRIPOS>ATOM
      1 N1        -5.6509    7.8822    6.0832 N.3       1 RES1    0.0000
      2 C1        -6.1544    9.1283    5.5491 C.3       1 RES1    0.0000
      3 H1        -5.3978    9.5993    5.1428 H         1 RES1    0.0000
      4 O1        -6.7232    9.9974    6.5132 O.3       1 RES1    0.0000
      5 C2        -5.7585   10.3782    7.5211 C.3       1 RES1    0.0000
      6 H2        -4.9645   10.7564    7.0888 H         1 RES1    0.0000
      7 C3        -5.3738    9.1110    8.2697 C.3       1 RES1    0.0000
      8 H3        -6.1580    8.7649    8.7447 H         1 RES1    0.0000
      9 C4        -4.8498    8.0454    7.3186 C.3       1 RES1    0.0000
     10 H4        -3.9164    8.2345    7.0876 H         1 RES1    0.0000
     11 C5        -4.9672    6.6435    7.8824 C.3       1 RES1    0.0000
     12 H5        -4.3442    6.0365    7.4548 H         1 RES1    0.0000
     13 H6        -4.8170    6.6348    8.8406 H         1 RES1    0.0000
     14 C6        -6.3852    6.2986    7.5496 C.2       1 RES1    0.0000
     15 O2        -6.8245    7.0898    6.5523 O.3       1 RES1    0.0000
     16 O3        -7.1161    5.4765    8.0447 O.2       1 RES1    0.0000
     17 C7        -7.1903    8.9120    4.4629 C.3       1 RES1    0.0000
     18 H7        -7.4237    9.7563    4.0697 H         1 RES1    0.0000
     19 H8        -7.9740    8.5090    4.8431 H         1 RES1    0.0000
     20 H9        -6.8293    8.3334    3.7866 H         1 RES1    0.0000
     21 C8        -6.4150   11.4339    8.3787 C.3       1 RES1    0.0000
     22 H10       -7.1491   11.0445    8.8595 H         1 RES1    0.0000
     23 H11       -6.7385   12.1447    7.8196 H         1 RES1    0.0000
     24 H12       -5.7739   11.7850    9.0017 H         1 RES1    0.0000
     25 O4        -4.3227    9.3521    9.2075 O.3       1 RES1    0.0000
     26 C9        -4.7106    9.4337   10.5710 C.3       1 RES1    0.0000
     27 H13       -5.3728    8.7525   10.7688 H         1 RES1    0.0000
     28 H14       -5.1038   10.3027   10.7523 H         1 RES1    0.0000
     29 C10       -3.4861    9.2309   11.4357 C.ar      1 RES1    0.0000
     30 C11       -1.3295    8.8217   13.0856 C.ar      1 RES1    0.0000
     31 H15       -0.5927    8.6660   13.6316 H         1 RES1    0.0000
     32 C12       -1.5868    7.9811   12.0587 C.ar      1 RES1    0.0000
     33 H16       -1.0339    7.2480   11.9142 H         1 RES1    0.0000
     34 C13       -2.6454    8.1987   11.2355 C.ar      1 RES1    0.0000
     35 H17       -2.7921    7.6226   10.5201 H         1 RES1    0.0000
     36 C14       -2.1313    9.8886   13.3331 C.ar      1 RES1    0.0000
     37 H18       -1.9525   10.4610   14.0438 H         1 RES1    0.0000
     38 C15       -3.2371   10.1124   12.4946 C.ar      1 RES1    0.0000
     39 H19       -3.7988   10.8393   12.6426 H         1 RES1    0.0000
     40 N2        -0.5923    8.9268    6.2040 N.3       2 RES2    0.0000
     41 O5        -2.2338   10.6526    6.3707 O.3       2 RES2    0.0000
     42 C16       -0.7494   10.4412    8.2389 C.3       2 RES2    0.0000
     43 H20       -1.3887    9.9739    8.8157 H         2 RES2    0.0000
     44 C17       -1.3940    9.9183    5.5123 C.3       2 RES2    0.0000
     45 H21       -0.7762   10.5549    5.0954 H         2 RES2    0.0000
     46 C18       -1.4779   11.4215    7.3245 C.3       2 RES2    0.0000
     47 H22       -0.8194   11.9704    6.8496 H         2 RES2    0.0000
     48 C19        0.0661    9.4361    7.4276 C.3       2 RES2    0.0000
     49 H23        0.9317    9.8305    7.1930 H         2 RES2    0.0000
     50 C20        0.2854    8.1418    8.1726 C.3       2 RES2    0.0000
     51 H24        1.0830    7.6856    7.8599 H         2 RES2    0.0000
     52 H25        0.3585    8.2939    9.1284 H         2 RES2    0.0000
     53 C21       -0.9472    7.3716    7.8386 C.2       2 RES2    0.0000
     54 O6        -1.5174    7.8884    6.7394 O.3       2 RES2    0.0000
     55 O7        -1.4493    6.4259    8.3988 O.2       2 RES2    0.0000
     56 C22       -2.2390    9.3249    4.4132 C.3       2 RES2    0.0000
     57 H26       -2.7196   10.0258    3.9667 H         2 RES2    0.0000
     58 H27       -2.8612    8.6994    4.7910 H         2 RES2    0.0000
     59 H28       -1.6730    8.8724    3.7843 H         2 RES2    0.0000
     60 C23       -2.4536   12.3190    8.0352 C.3       2 RES2    0.0000
     61 H29       -3.0539   11.7850    8.5622 H         2 RES2    0.0000
     62 H30       -2.9553   12.8209    7.3897 H         2 RES2    0.0000
     63 H31       -1.9749   12.9223    8.6084 H         2 RES2    0.0000
     64 O8         0.2133   11.1310    9.0225 O.3       2 RES2    0.0000
     65 C24       -0.1142   11.3919   10.3863 C.3       2 RES2    0.0000
     66 H32       -0.1956   10.5611   10.8802 H         2 RES2    0.0000
     67 H33       -0.9528   11.8740   10.4479 H         2 RES2    0.0000
     68 C25        1.0225   12.2300   10.9406 C.ar      2 RES2    0.0000
     69 C26        1.7583   11.8678   12.0172 C.ar      2 RES2    0.0000
     70 H34        1.5582   11.0779   12.4649 H         2 RES2    0.0000
     71 C27        2.8215   12.6676   12.4697 C.ar      2 RES2    0.0000
     72 H35        3.3154   12.4043   13.2111 H         2 RES2    0.0000
     73 C28        3.1307   13.8223   11.8265 C.ar      2 RES2    0.0000
     74 H36        3.8380   14.3502   12.1191 H         2 RES2    0.0000
     75 C29        2.3871   14.1993   10.7440 C.ar      2 RES2    0.0000
     76 H37        2.5847   14.9905   10.2986 H         2 RES2    0.0000
     77 C30        1.3551   13.4168   10.3164 C.ar      2 RES2    0.0000
     78 H38        0.8593   13.6912    9.5797 H         2 RES2    0.0000
@<TRIPOS>BOND
     1    1    2 1
     2    2    3 1
     3    4    2 1
     4    5    4 1
     5    6    5 1
     6    7    5 1
     7    8    7 1
     8    9    1 1
     9   10    9 1
    10   11    9 1
    11   12   11 1
    12   13   11 1
    13   14   11 1
    14   15    1 1
    15   16   14 2
    16   17    2 1
    17   18   17 1
    18   19   17 1
    19   20   17 1
    20   21    5 1
    21   22   21 1
    22   23   21 1
    23   24   21 1
    24   25    7 1
    25   26   25 1
    26   27   26 1
    27   28   26 1
    28   29   26 1
    29   30   31 1
    30   32   30 ar
    31   33   32 1
    32   34   29 ar
    33   35   34 1
    34   36   30 ar
    35   37   36 1
    36   38   29 ar
    37   39   38 1
    38   40   44 1
    39   41   44 1
    40   42   43 1
    41   44   45 1
    42   46   41 1
    43   47   46 1
    44   48   40 1
    45   49   48 1
    46   50   48 1
    47   51   50 1
    48   52   50 1
    49   53   50 1
    50   54   40 1
    51   55   53 2
    52   56   44 1
    53   57   56 1
    54   58   56 1
    55   59   56 1
    56   60   46 1
    57   61   60 1
    58   62   60 1
    59   63   60 1
    60   64   42 1
    61   65   64 1
    62   66   65 1
    63   67   65 1
    64   68   65 1
    65   69   68 ar
    66   70   69 1
    67   71   69 ar
    68   72   71 1
    69   73   71 ar
    70   74   73 1
    71   75   73 ar
    72   76   75 1
    73   77   68 ar
    74   78   77 1
    75    7    9 1
    76   14   15 1
    77   32   34 ar
    78   36   38 ar
    79   42   46 1
    80   42   48 1
    81   53   54 1
    82   75   77 ar
@<TRIPOS>SUBSTRUCTURE
     1 RES1 1
     2 RES2 40

@<TRIPOS>CRYSIN
  10.0661   12.3623   12.0728  90.0000 101.1650  90.0000   4 1

