# MOL2 file generated by ConQuest
# Please check atom types

@<TRIPOS>MOLECULE
HUHBUI
   130   130     2
SMALL
NO_CHARGES
****
Generated from CSD

@<TRIPOS>ATOM
      1 O1         2.7384   10.6453    7.6476 O.3       1 RES1    0.0000
      2 N1         5.8797   10.5216    9.2891 N.2       1 RES1    0.0000
      3 C1         1.5005    1.4063    5.1951 C.2       2 RES2    0.0000
      4 C2         4.9247   10.1277    6.9871 C.3       1 RES1    0.0000
      5 H1         5.2329   11.0527    6.8968 H         1 RES1    0.0000
      6 O2         3.8866    7.9717    8.1183 O.2       1 RES1    0.0000
      7 N2         5.1491    9.7680    8.4029 N.am      1 RES1    0.0000
      8 C3         4.0104    7.0570   10.8145 C.3       1 RES1    0.0000
      9 O3         1.0883    3.5752    3.7271 O.2       2 RES2    0.0000
     10 O4         7.2713   11.0954    5.5857 O.2       1 RES1    0.0000
     11 C4         4.5477    8.6388    8.9007 C.2       1 RES1    0.0000
     12 C5         7.3339   12.3001    9.8574 C.ar      1 RES1    0.0000
     13 N3        -0.9304    1.0188    2.5577 N.2       2 RES2    0.0000
     14 N4        -0.4914    4.6722    6.3555 N.2       2 RES2    0.0000
     15 N5         5.4537    6.8827    5.4852 N.2       1 RES1    0.0000
     16 C6         6.8912    9.9594    5.3650 C.2       1 RES1    0.0000
     17 C7        -3.9861   -2.1715    0.2560 C.ar      2 RES2    0.0000
     18 N6         9.8321   14.4428   12.5138 N.pl3     1 RES1    0.0000
     19 C8         6.5483   11.5210    8.8947 C.2       1 RES1    0.0000
     20 O5         2.3387    4.3599    1.3564 O.3       2 RES2    0.0000
     21 H2         2.4208    4.2334    2.1615 H         2 RES2    0.0000
     22 C9         8.1225   12.7350   12.0919 C.ar      1 RES1    0.0000
     23 H3         8.1063   12.5572   13.0044 H         1 RES1    0.0000
     24 O6         1.9416    1.7101    6.2683 O.2       2 RES2    0.0000
     25 O7        10.5628   15.3052   12.0509 O.2       1 RES1    0.0000
     26 O8         2.2080    0.8999    4.2016 O.3       2 RES2    0.0000
     27 C10        0.3949    2.9073    2.9782 C.2       2 RES2    0.0000
     28 C11        4.7579    8.3014   10.3483 C.3       1 RES1    0.0000
     29 H4         4.4730    9.0548   10.8879 H         1 RES1    0.0000
     30 H5         5.7060    8.1703   10.5040 H         1 RES1    0.0000
     31 C12        0.1964    3.2363    1.5256 C.3       2 RES2    0.0000
     32 H6        -0.7501    3.3715    1.3675 H         2 RES2    0.0000
     33 H7         0.4737    2.4716    0.9978 H         2 RES2    0.0000
     34 C13        8.1520   13.3266    9.3953 C.ar      1 RES1    0.0000
     35 H8         8.1578   13.5330    8.4895 H         1 RES1    0.0000
     36 O9        -2.3150    0.4549    6.2630 O.2       2 RES2    0.0000
     37 N7        -0.2042    1.7691    3.4512 N.am      2 RES2    0.0000
     38 C14        5.7798    9.3112    6.0294 C.2       1 RES1    0.0000
     39 O10       -2.5196    2.3916    7.3954 O.3       2 RES2    0.0000
     40 O11        3.0050    9.8434    5.5738 O.2       1 RES1    0.0000
     41 C15        8.9377   13.7158   11.5895 C.ar      1 RES1    0.0000
     42 C16        7.3306   12.0198   11.2292 C.ar      1 RES1    0.0000
     43 H9         6.7859   11.3423   11.5586 H         1 RES1    0.0000
     44 C17        3.4553   10.1486    6.6337 C.2       1 RES1    0.0000
     45 C18       -3.1899   -1.7878    2.4542 C.ar      2 RES2    0.0000
     46 H10       -3.1817   -2.0105    3.3583 H         2 RES2    0.0000
     47 C19        4.8278    6.0406    4.4391 C.3       1 RES1    0.0000
     48 O12        7.4834    9.1631    4.4613 O.3       1 RES1    0.0000
     49 C20       -1.6158    0.0160    2.9602 C.2       2 RES2    0.0000
     50 O13        2.6122    7.1954   10.4940 O.3       1 RES1    0.0000
     51 H11        2.5289    7.3308    9.6887 H         1 RES1    0.0000
     52 C21       -3.9983   -2.4897    1.5856 C.ar      2 RES2    0.0000
     53 H12       -4.5458   -3.1721    1.9008 H         2 RES2    0.0000
     54 C22       -2.3919   -0.7590    1.9949 C.ar      2 RES2    0.0000
     55 C23       -0.0061    1.4393    4.8733 C.3       2 RES2    0.0000
     56 H13       -0.3128    0.5137    4.9700 H         2 RES2    0.0000
     57 C24        5.5319    8.0408    5.7141 C.2       1 RES1    0.0000
     58 C25       -3.1685   -1.1855   -0.2349 C.ar      2 RES2    0.0000
     59 H14       -3.1564   -0.9940   -1.1447 H         2 RES2    0.0000
     60 C26        3.6341    0.8091    4.4391 C.3       2 RES2    0.0000
     61 H15        4.0273    1.6817    4.3632 H         2 RES2    0.0000
     62 H16        4.0303    0.2215    3.7920 H         2 RES2    0.0000
     63 H17        3.7902    0.4639    5.3207 H         2 RES2    0.0000
     64 C27        4.0651    7.0303   12.3362 C.3       1 RES1    0.0000
     65 H18        3.6916    7.8433   12.6844 H         1 RES1    0.0000
     66 H19        4.9777    6.9499   12.6228 H         1 RES1    0.0000
     67 H20        3.5599    6.2820   12.6607 H         1 RES1    0.0000
     68 C28        8.9562   14.0454   10.2599 C.ar      1 RES1    0.0000
     69 H21        9.4961   14.7353    9.9470 H         1 RES1    0.0000
     70 C29       -1.9355    1.5878    6.4891 C.2       2 RES2    0.0000
     71 C30       -0.5715    3.5116    6.1393 C.2       2 RES2    0.0000
     72 N8        -4.8732   -2.8814   -0.6731 N.pl3     2 RES2    0.0000
     73 O14        9.8360   14.1378   13.6838 O.2       1 RES1    0.0000
     74 O15       -4.8490   -2.5883   -1.8396 O.2       2 RES2    0.0000
     75 O16       -5.5893   -3.7500   -0.1996 O.2       2 RES2    0.0000
     76 C31       -0.8166    2.2217    5.8284 C.2       2 RES2    0.0000
     77 C32       -2.3629   -0.4765    0.6390 C.ar      2 RES2    0.0000
     78 H22       -1.8003    0.1903    0.3152 H         2 RES2    0.0000
     79 C33        0.1319    5.5153    7.3921 C.3       2 RES2    0.0000
     80 C34        0.9544    4.4683    1.0310 C.3       2 RES2    0.0000
     81 C35        1.3260   10.7724    7.4040 C.3       1 RES1    0.0000
     82 H23        1.1687   11.5091    6.8091 H         1 RES1    0.0000
     83 H24        0.8703   10.9285    8.2335 H         1 RES1    0.0000
     84 H25        0.9966    9.9633    7.0034 H         1 RES1    0.0000
     85 C36        1.1375    4.6880    8.1695 C.3       2 RES2    0.0000
     86 H26        1.8368    4.3974    7.5817 H         2 RES2    0.0000
     87 H27        0.6981    3.9229    8.5487 H         2 RES2    0.0000
     88 H28        1.5140    5.2217    8.8734 H         2 RES2    0.0000
     89 C37        0.8937    4.5272   -0.4828 C.3       2 RES2    0.0000
     90 H29        1.3233    5.3297   -0.7892 H         2 RES2    0.0000
     91 H30       -0.0229    4.5273   -0.7679 H         2 RES2    0.0000
     92 H31        1.3437    3.7633   -0.8508 H         2 RES2    0.0000
     93 C38        0.3922    5.7572    1.6235 C.3       2 RES2    0.0000
     94 H32        0.4497    5.7200    2.5810 H         2 RES2    0.0000
     95 H33       -0.5260    5.8554    1.3628 H         2 RES2    0.0000
     96 H34        0.8996    6.5052    1.3011 H         2 RES2    0.0000
     97 C39        4.5703    5.7810   10.2196 C.3       1 RES1    0.0000
     98 H35        4.0932    5.0261   10.5727 H         1 RES1    0.0000
     99 H36        5.5012    5.7043   10.4424 H         1 RES1    0.0000
    100 H37        4.4726    5.8027    9.2645 H         1 RES1    0.0000
    101 C40        8.5912    9.7178    3.7257 C.3       1 RES1    0.0000
    102 H38        8.2907   10.4729    3.2161 H         1 RES1    0.0000
    103 H39        8.9478    9.0508    3.1356 H         1 RES1    0.0000
    104 H40        9.2739    9.9982    4.3395 H         1 RES1    0.0000
    105 C41       -3.6373    1.8418    8.1197 C.3       2 RES2    0.0000
    106 H41       -4.4184    1.8547    7.5628 H         2 RES2    0.0000
    107 H42       -3.7981    2.3685    8.9066 H         2 RES2    0.0000
    108 H43       -3.4409    0.9374    8.3757 H         2 RES2    0.0000
    109 C42        3.8142    6.8689    3.6901 C.3       1 RES1    0.0000
    110 H44        3.1036    7.1209    4.2826 H         1 RES1    0.0000
    111 H45        3.4571    6.3556    2.9602 H         1 RES1    0.0000
    112 H46        4.2382    7.6598    3.3465 H         1 RES1    0.0000
    113 C43        5.9870    5.6289    3.5432 C.3       1 RES1    0.0000
    114 H47        6.3727    6.4091    3.1403 H         1 RES1    0.0000
    115 H48        5.6673    5.0387    2.8583 H         1 RES1    0.0000
    116 H49        6.6526    5.1776    4.0693 H         1 RES1    0.0000
    117 C44       -1.0201    5.9124    8.3070 C.3       2 RES2    0.0000
    118 H50       -0.6799    6.4181    9.0488 H         2 RES2    0.0000
    119 H51       -1.4569    5.1218    8.6340 H         2 RES2    0.0000
    120 H52       -1.6486    6.4467    7.8164 H         2 RES2    0.0000
    121 C45        4.2304    4.8549    5.1477 C.3       1 RES1    0.0000
    122 H53        4.9120    4.4080    5.6549 H         1 RES1    0.0000
    123 H54        3.8632    4.2483    4.5007 H         1 RES1    0.0000
    124 H55        3.5349    5.1530    5.7378 H         1 RES1    0.0000
    125 C46        0.7236    6.7032    6.7119 C.3       2 RES2    0.0000
    126 H56        1.3605    6.4117    6.0554 H         2 RES2    0.0000
    127 H57        1.1637    7.2577    7.3589 H         2 RES2    0.0000
    128 H58        0.0275    7.2050    6.2806 H         2 RES2    0.0000
    129 H59        6.7037   11.7102    7.9443 H         1 RES1    0.0000
    130 H60       -1.6098   -0.2584    3.9106 H         2 RES2    0.0000
@<TRIPOS>BOND
     1    1   44 1
     2    2    7 1
     3    3   24 2
     4    4    5 1
     5    6   11 2
     6    7    4 1
     7    8   28 1
     8    9   27 2
     9   10   16 2
    10   11    7 1
    11   12   19 1
    12   13   37 1
    13   14   71 2
    14   15   47 1
    15   16   38 1
    16   17   52 ar
    17   18   25 2
    18   19    2 2
    19   20   21 1
    20   22   23 1
    21   26    3 1
    22   27   31 1
    23   28   11 1
    24   29   28 1
    25   30   28 1
    26   31   32 1
    27   33   31 1
    28   34   12 ar
    29   35   34 1
    30   36   70 2
    31   37   27 1
    32   38    4 1
    33   39   70 1
    34   40   44 2
    35   41   18 1
    36   42   12 ar
    37   43   42 1
    38   44    4 1
    39   45   46 1
    40   47  109 1
    41   48   16 1
    42   49   13 2
    43   50    8 1
    44   51   50 1
    45   52   45 ar
    46   53   52 1
    47   54   45 ar
    48   55    3 1
    49   56   55 1
    50   57   15 2
    51   58   17 ar
    52   59   58 1
    53   60   26 1
    54   61   60 1
    55   62   60 1
    56   63   60 1
    57   64    8 1
    58   65   64 1
    59   66   64 1
    60   67   64 1
    61   68   34 ar
    62   69   68 1
    63   70   76 1
    64   71   76 2
    65   72   17 1
    66   73   18 2
    67   74   72 2
    68   75   72 2
    69   76   55 1
    70   77   54 ar
    71   78   77 1
    72   79   14 1
    73   80   20 1
    74   81    1 1
    75   82   81 1
    76   83   81 1
    77   84   81 1
    78   85   79 1
    79   86   85 1
    80   87   85 1
    81   88   85 1
    82   89   80 1
    83   90   89 1
    84   91   89 1
    85   92   89 1
    86   93   80 1
    87   94   93 1
    88   95   93 1
    89   96   93 1
    90   97    8 1
    91   98   97 1
    92   99   97 1
    93  100   97 1
    94  101   48 1
    95  102  101 1
    96  103  101 1
    97  104  101 1
    98  105   39 1
    99  106  105 1
   100  107  105 1
   101  108  105 1
   102  109  110 1
   103  111  109 1
   104  112  109 1
   105  113   47 1
   106  114  113 1
   107  115  113 1
   108  116  113 1
   109  117   79 1
   110  118  117 1
   111  119  117 1
   112  120  117 1
   113  121   47 1
   114  122  121 1
   115  123  121 1
   116  124  121 1
   117  125   79 1
   118  126  125 1
   119  127  125 1
   120  128  125 1
   121  129   19 1
   122  130   49 1
   123   22   41 ar
   124   22   42 ar
   125   31   80 1
   126   37   55 1
   127   38   57 2
   128   41   68 ar
   129   49   54 1
   130   58   77 ar
@<TRIPOS>SUBSTRUCTURE
     1 RES1 1
     2 RES2 3

@<TRIPOS>CRYSIN
   8.7460   12.8442   24.1540  94.1820  99.6070  97.8920   2 1

