# MOL2 file generated by ConQuest
# Please check atom types

@<TRIPOS>MOLECULE
HUHCIY
    35    37     1
SMALL
NO_CHARGES
****
Generated from CSD

@<TRIPOS>ATOM
      1 C1         0.4804    1.3521    6.6167 C.ar      1 RES1    0.0000
      2 C2        -1.2204    2.9278    7.2367 C.ar      1 RES1    0.0000
      3 O1        -4.6990    5.8083    8.9362 O.3       1 RES1    0.0000
      4 N1         1.1073    0.0296    6.8130 N.pl3     1 RES1    0.0000
      5 O2        -5.1803    2.9306    4.6693 O.3       1 RES1    0.0000
      6 O3         0.6654   -0.6679    7.7204 O.2       1 RES1    0.0000
      7 C3        -3.5737    5.2285    6.9530 C.3       1 RES1    0.0000
      8 H1        -2.8263    5.8605    6.9058 H         1 RES1    0.0000
      9 C4        -3.2811    4.2277    8.0258 C.2       1 RES1    0.0000
     10 C5        -3.8218    4.6657    5.5493 C.2       1 RES1    0.0000
     11 H2        -3.2423    4.8046    4.8348 H         1 RES1    0.0000
     12 C6        -4.8093    5.9726    7.5076 C.3       1 RES1    0.0000
     13 C7        -0.6821    3.8094    6.3021 C.ar      1 RES1    0.0000
     14 H3        -1.0636    4.6495    6.1857 H         1 RES1    0.0000
     15 C8        -2.3474    3.2875    8.1258 C.2       1 RES1    0.0000
     16 H4        -2.4140    2.7627    8.8895 H         1 RES1    0.0000
     17 C9         0.9989    2.2091    5.6966 C.ar      1 RES1    0.0000
     18 H5         1.7328    1.9594    5.1839 H         1 RES1    0.0000
     19 O4         2.0147   -0.2906    6.0785 O.2       1 RES1    0.0000
     20 C10       -5.0872    3.8694    5.4348 C.2       1 RES1    0.0000
     21 C11       -0.6157    1.6857    7.4094 C.ar      1 RES1    0.0000
     22 H6        -0.9390    1.0876    8.0440 H         1 RES1    0.0000
     23 C12       -6.2129    4.3293    6.2403 C.2       1 RES1    0.0000
     24 H7        -7.0390    3.9145    6.1385 H         1 RES1    0.0000
     25 C13       -6.0964    5.3104    7.1094 C.2       1 RES1    0.0000
     26 H8        -6.8770    5.6207    7.5094 H         1 RES1    0.0000
     27 C14       -4.2638    4.4703    9.1331 C.3       1 RES1    0.0000
     28 H9        -5.0103    3.8532    9.0750 H         1 RES1    0.0000
     29 H10       -3.8406    4.3688   10.0005 H         1 RES1    0.0000
     30 C15        0.4308    3.4406    5.5330 C.ar      1 RES1    0.0000
     31 H11        0.7826    4.0344    4.9111 H         1 RES1    0.0000
     32 C16       -4.8383    7.4524    7.2185 C.3       1 RES1    0.0000
     33 H12       -5.6220    7.8403    7.6167 H         1 RES1    0.0000
     34 H13       -4.8584    7.5935    6.2694 H         1 RES1    0.0000
     35 H14       -4.0547    7.8664    7.5876 H         1 RES1    0.0000
@<TRIPOS>BOND
     1    1    4 1
     2    2   13 ar
     3    3   12 1
     4    4    6 2
     5    5   20 1
     6    7    8 1
     7    9    7 1
     8   10    7 1
     9   11   10 1
    10   12    7 1
    11   13   14 1
    12   15    2 1
    13   16   15 1
    14   17    1 ar
    15   18   17 1
    16   19    4 2
    17   20   10 2
    18   21    1 ar
    19   22   21 1
    20   23   20 1
    21   24   23 1
    22   25   12 1
    23   26   25 1
    24   27    3 1
    25   28   27 1
    26   29   27 1
    27   30   13 ar
    28   31   30 1
    29   32   12 1
    30   33   32 1
    31   34   32 1
    32   35   32 1
    33    2   21 ar
    34    9   15 2
    35    9   27 1
    36   17   30 ar
    37   23   25 2
@<TRIPOS>SUBSTRUCTURE
     1 RES1 1

@<TRIPOS>CRYSIN
  10.9511    7.0532   18.2429  90.0000  94.6580  90.0000 231 1

