# MOL2 file generated by ConQuest
# Please check atom types

@<TRIPOS>MOLECULE
HUHKOM
    34    36     1
SMALL
NO_CHARGES
****
Generated from CSD

@<TRIPOS>ATOM
      1 O1         5.3303    8.6142   14.3212 O.2       1 RES1    0.0000
      2 O2         3.9639    8.3990   12.0933 O.3       1 RES1    0.0000
      3 O3         1.2824    7.6849   12.4171 O.3       1 RES1    0.0000
      4 H1         0.7997    8.0564   12.9657 H         1 RES1    0.0000
      5 O4         0.7664    5.8087   14.4253 O.2       1 RES1    0.0000
      6 N1         3.4228    7.9461   13.3065 N.am      1 RES1    0.0000
      7 C1         4.2540    8.0245   14.3717 C.2       1 RES1    0.0000
      8 C2         3.7584    7.4028   15.6254 C.ar      1 RES1    0.0000
      9 C3         4.4852    7.5970   16.7915 C.ar      1 RES1    0.0000
     10 H2         5.2702    8.0946   16.7728 H         1 RES1    0.0000
     11 C4         4.0421    7.0504   17.9792 C.ar      1 RES1    0.0000
     12 H3         4.5295    7.1834   18.7602 H         1 RES1    0.0000
     13 C5         2.8817    6.3090   18.0132 C.ar      1 RES1    0.0000
     14 H4         2.5870    5.9497   18.8184 H         1 RES1    0.0000
     15 C6         2.1544    6.0984   16.8618 C.ar      1 RES1    0.0000
     16 H5         1.3752    5.5917   16.8893 H         1 RES1    0.0000
     17 C7         2.5893    6.6458   15.6582 C.ar      1 RES1    0.0000
     18 C8         1.7972    6.4432   14.4326 C.2       1 RES1    0.0000
     19 C9         2.3062    7.0135   13.0788 C.3       1 RES1    0.0000
     20 C10        2.7632    5.8376   12.2265 C.ar      1 RES1    0.0000
     21 C11        1.9175    5.3013   11.2665 C.ar      1 RES1    0.0000
     22 H6         1.0863    5.6879   11.1089 H         1 RES1    0.0000
     23 C12        2.3144    4.1897   10.5432 C.ar      1 RES1    0.0000
     24 H7         1.7488    3.8372    9.8946 H         1 RES1    0.0000
     25 C13        3.5337    3.6030   10.7729 C.ar      1 RES1    0.0000
     26 H8         3.7894    2.8553   10.2829 H         1 RES1    0.0000
     27 C14        4.3737    4.1191   11.7233 C.ar      1 RES1    0.0000
     28 H9         5.2002    3.7226   11.8820 H         1 RES1    0.0000
     29 C15        3.9861    5.2404   12.4507 C.ar      1 RES1    0.0000
     30 H10        4.5575    5.5903   13.0945 H         1 RES1    0.0000
     31 C16        3.6662    9.8040   11.9210 C.3       1 RES1    0.0000
     32 H11        2.7160    9.9368   11.9526 H         1 RES1    0.0000
     33 H12        4.0030   10.1010   11.0718 H         1 RES1    0.0000
     34 H13        4.0830   10.3075   12.6233 H         1 RES1    0.0000
@<TRIPOS>BOND
     1    1    7 2
     2    2    6 1
     3    3    4 1
     4    5   18 2
     5    6    7 1
     6    7    8 1
     7    8    9 ar
     8    9   10 1
     9   11    9 ar
    10   12   11 1
    11   13   11 ar
    12   14   13 1
    13   15   13 ar
    14   16   15 1
    15   17    8 ar
    16   18   17 1
    17   19    3 1
    18   20   19 1
    19   21   20 ar
    20   22   21 1
    21   23   21 ar
    22   24   23 1
    23   25   23 ar
    24   26   25 1
    25   27   25 ar
    26   28   27 1
    27   29   20 ar
    28   30   29 1
    29   31    2 1
    30   32   31 1
    31   33   31 1
    32   34   31 1
    33    6   19 1
    34   15   17 ar
    35   18   19 1
    36   27   29 ar
@<TRIPOS>SUBSTRUCTURE
     1 RES1 1

@<TRIPOS>CRYSIN
   5.8370   14.1490   17.6500  90.0000  90.0000  90.0000  19 1

