# MOL2 file generated by ConQuest
# Please check atom types

@<TRIPOS>MOLECULE
HUHYAK
    23    24     1
SMALL
NO_CHARGES
****
Generated from CSD

@<TRIPOS>ATOM
      1 O1         6.6741    1.7683   12.4728 O.2       1 RES1    0.0000
      2 O2         8.2102    3.2530   12.3757 O.2       1 RES1    0.0000
      3 O3         7.7693   -2.9040   11.9776 O.2       1 RES1    0.0000
      4 N1         7.8465    2.0954   12.4114 N.pl3     1 RES1    0.0000
      5 C1         9.4078   -1.2708   12.3791 C.ar      1 RES1    0.0000
      6 C2         8.4561   -0.2619   12.3399 C.ar      1 RES1    0.0000
      7 C3         8.8736    1.0420   12.4108 C.ar      1 RES1    0.0000
      8 C4        10.1844    1.3954   12.5028 C.ar      1 RES1    0.0000
      9 C5        11.1269    0.3980   12.5385 C.ar      1 RES1    0.0000
     10 C6        10.7471   -0.9265   12.4974 C.ar      1 RES1    0.0000
     11 C7         8.9194   -2.6845   12.3242 C.2       1 RES1    0.0000
     12 C8         9.8115   -3.7837   12.7013 C.3       1 RES1    0.0000
     13 C9         9.6022   -5.1174   12.0500 C.3       1 RES1    0.0000
     14 C10        9.1824   -4.9389   13.4227 C.3       1 RES1    0.0000
     15 H1         7.5514   -0.4667   12.2685 H         1 RES1    0.0000
     16 H2        10.4349    2.2899   12.5399 H         1 RES1    0.0000
     17 H3        12.0293    0.6177   12.5899 H         1 RES1    0.0000
     18 H4        11.3922   -1.5945   12.5499 H         1 RES1    0.0000
     19 H5        10.7300   -3.5469   12.9513 H         1 RES1    0.0000
     20 H6         8.9113   -5.1837   11.3715 H         1 RES1    0.0000
     21 H7        10.3857   -5.6664   11.8857 H         1 RES1    0.0000
     22 H8         9.7040   -5.3759   14.1140 H         1 RES1    0.0000
     23 H9         8.2296   -4.8943   13.5998 H         1 RES1    0.0000
@<TRIPOS>BOND
     1    1    4 2
     2    2    4 2
     3    3   11 2
     4    4    7 1
     5    5    6 ar
     6    6    7 ar
     7    7    8 ar
     8    8    9 ar
     9    9   10 ar
    10   10    5 ar
    11   11    5 1
    12   12   11 1
    13   13   12 1
    14   14   12 1
    15   15    6 1
    16   16    8 1
    17   17    9 1
    18   18   10 1
    19   19   12 1
    20   20   13 1
    21   21   13 1
    22   22   14 1
    23   23   14 1
    24   13   14 1
@<TRIPOS>SUBSTRUCTURE
     1 RES1 1

@<TRIPOS>CRYSIN
  11.4380   11.4380   14.2840  90.0000  90.0000  90.0000  92 1

