# MOL2 file generated by ConQuest
# Please check atom types

@<TRIPOS>MOLECULE
HUHZIU
    87    88     1
SMALL
NO_CHARGES
****
Generated from CSD

@<TRIPOS>ATOM
      1 C1        24.6210    0.5900    8.1595 C.3       1 RES1    0.0000
      2 H1        25.2136   -0.0719    8.5730 H         1 RES1    0.0000
      3 C2        24.6833    0.4485    6.6547 C.2       1 RES1    0.0000
      4 C3        23.8802    1.4653    5.8852 C.3       1 RES1    0.0000
      5 H2        24.4299    1.8130    5.1522 H         1 RES1    0.0000
      6 C4        23.5050    2.6044    6.7968 C.3       1 RES1    0.0000
      7 H3        22.7310    2.3574    7.3477 H         1 RES1    0.0000
      8 C5        24.7290    2.9642    7.7107 C.3       1 RES1    0.0000
      9 H4        25.5099    3.1320    7.1410 H         1 RES1    0.0000
     10 C6        24.5088    4.1321    8.5671 C.3       1 RES1    0.0000
     11 H5        24.4714    4.9355    8.0256 H         1 RES1    0.0000
     12 H6        25.2399    4.2232    9.1979 H         1 RES1    0.0000
     13 O1        25.0017    1.8346    8.5389 O.3       1 RES1    0.0000
     14 O2        23.3831    0.4029    8.5859 O.3       1 RES1    0.0000
     15 C7        22.8459   -0.4317    9.4446 C.3       1 RES1    0.0000
     16 H7        23.1810   -0.2014   10.3432 H         1 RES1    0.0000
     17 C8        21.3782   -0.2878    9.4328 C.3       1 RES1    0.0000
     18 H8        21.0459   -0.4653    8.5412 H         1 RES1    0.0000
     19 H9        21.1331    0.5924    9.6948 H         1 RES1    0.0000
     20 H10       20.9781   -0.9281   10.0378 H         1 RES1    0.0000
     21 C9        23.3845   -1.7962    9.1157 C.3       1 RES1    0.0000
     22 H11       24.3565   -1.7867    9.1674 H         1 RES1    0.0000
     23 H12       23.1311   -2.0337    8.2194 H         1 RES1    0.0000
     24 H13       23.0481   -2.4414    9.7300 H         1 RES1    0.0000
     25 N1        25.2911   -0.5660    6.1930 N.2       1 RES1    0.0000
     26 O3        25.2260   -0.5876    4.7846 O.3       1 RES1    0.0000
     27 C10       25.3728   -1.8634    4.2301 C.2       1 RES1    0.0000
     28 O4        25.3340   -2.8371    4.9643 O.2       1 RES1    0.0000
     29 C11       25.5293   -1.8802    2.8522 C.ar      1 RES1    0.0000
     30 C12       25.8145   -3.1033    2.2084 C.ar      1 RES1    0.0000
     31 H14       25.8519   -3.9067    2.6736 H         1 RES1    0.0000
     32 C13       26.0554   -3.0265    0.7283 C.ar      1 RES1    0.0000
     33 H15       26.3642   -3.7868    0.2960 H         1 RES1    0.0000
     34 C14       25.8754   -2.0720    0.1057 C.ar      1 RES1    0.0000
     35 H16       25.8837   -2.1440   -0.8258 H         1 RES1    0.0000
     36 C15       25.6414   -0.7746    0.6813 C.ar      1 RES1    0.0000
     37 H17       25.6442    0.0024    0.1727 H         1 RES1    0.0000
     38 C16       25.4116   -0.7506    2.0181 C.ar      1 RES1    0.0000
     39 H18       25.1610    0.0576    2.4058 H         1 RES1    0.0000
     40 O5        22.7171    0.8082    5.3273 O.3       1 RES1    0.0000
     41 C17       22.4305    1.0600    4.0363 C.2       1 RES1    0.0000
     42 O6        23.0384    1.7962    3.3820 O.2       1 RES1    0.0000
     43 C18       21.2425    0.2446    3.6005 C.3       1 RES1    0.0000
     44 C19       20.8715    0.6859    2.2084 C.3       1 RES1    0.0000
     45 H19       21.5998    0.5468    1.6117 H         1 RES1    0.0000
     46 H20       20.6292    1.6188    2.2190 H         1 RES1    0.0000
     47 H21       20.1072    0.1727    1.9054 H         1 RES1    0.0000
     48 C20       21.7604   -1.1272    3.4771 C.3       1 RES1    0.0000
     49 H22       22.1107   -1.4125    4.3252 H         1 RES1    0.0000
     50 H23       22.4596   -1.1487    2.8205 H         1 RES1    0.0000
     51 H24       21.0528   -1.7147    3.2105 H         1 RES1    0.0000
     52 C21       20.1265    0.4557    4.5343 C.3       1 RES1    0.0000
     53 H25       19.8690    1.3862    4.5191 H         1 RES1    0.0000
     54 H26       20.3952    0.2206    5.4236 H         1 RES1    0.0000
     55 H27       19.3761   -0.0815    4.2712 H         1 RES1    0.0000
     56 O7        23.2211    3.7532    6.0497 O.3       1 RES1    0.0000
     57 C22       21.9168    4.0554    5.8488 C.2       1 RES1    0.0000
     58 O8        21.0473    3.3934    6.2341 O.2       1 RES1    0.0000
     59 C23       21.7382    5.3480    5.0688 C.3       1 RES1    0.0000
     60 C24       20.4395    5.2089    4.1937 C.3       1 RES1    0.0000
     61 H28       19.6973    4.9835    4.7622 H         1 RES1    0.0000
     62 H29       20.5641    4.5182    3.5429 H         1 RES1    0.0000
     63 H30       20.2636    6.0411    3.7520 H         1 RES1    0.0000
     64 C25       21.7258    6.4583    5.9910 C.3       1 RES1    0.0000
     65 H31       22.5690    6.5087    6.4432 H         1 RES1    0.0000
     66 H32       21.0224    6.3336    6.6300 H         1 RES1    0.0000
     67 H33       21.5735    7.2737    5.5035 H         1 RES1    0.0000
     68 C26       22.8362    5.4991    4.0175 C.3       1 RES1    0.0000
     69 H34       22.7725    4.7796    3.3831 H         1 RES1    0.0000
     70 H35       23.6933    5.4775    4.4427 H         1 RES1    0.0000
     71 H36       22.7268    6.3360    3.5593 H         1 RES1    0.0000
     72 O9        23.2987    3.9690    9.2602 O.3       1 RES1    0.0000
     73 C27       22.9927    4.8971   10.1048 C.2       1 RES1    0.0000
     74 O10       23.7390    5.8060   10.3315 O.2       1 RES1    0.0000
     75 C28       21.6551    4.7244   10.7462 C.3       1 RES1    0.0000
     76 C29       20.5641    5.1321    9.9615 C.3       1 RES1    0.0000
     77 H37       19.7513    5.0434   10.4678 H         1 RES1    0.0000
     78 H38       20.5128    4.5925    9.1732 H         1 RES1    0.0000
     79 H39       20.6790    6.0554    9.7112 H         1 RES1    0.0000
     80 C30       21.6316    5.6717   11.8527 C.3       1 RES1    0.0000
     81 H40       21.8642    6.5447   11.5297 H         1 RES1    0.0000
     82 H41       22.2658    5.3983   12.5200 H         1 RES1    0.0000
     83 H42       20.7552    5.6933   12.2368 H         1 RES1    0.0000
     84 C31       21.4945    3.3815   11.2771 C.3       1 RES1    0.0000
     85 H43       20.6305    3.2999   11.6871 H         1 RES1    0.0000
     86 H44       22.1785    3.2088   11.9244 H         1 RES1    0.0000
     87 H45       21.5679    2.7459   10.5570 H         1 RES1    0.0000
@<TRIPOS>BOND
     1    1    2 1
     2    3    1 1
     3    4    3 1
     4    5    4 1
     5    6    4 1
     6    7    6 1
     7    8    6 1
     8    9    8 1
     9   10    8 1
    10   11   10 1
    11   12   10 1
    12   13    1 1
    13   14    1 1
    14   15   14 1
    15   16   15 1
    16   17   15 1
    17   18   17 1
    18   19   17 1
    19   20   17 1
    20   21   15 1
    21   22   21 1
    22   23   21 1
    23   24   21 1
    24   25    3 2
    25   26   25 1
    26   27   26 1
    27   28   27 2
    28   29   27 1
    29   30   29 ar
    30   31   30 1
    31   32   30 ar
    32   33   32 1
    33   34   32 ar
    34   35   34 1
    35   36   34 ar
    36   37   36 1
    37   38   29 ar
    38   39   38 1
    39   40    4 1
    40   41   40 1
    41   42   41 2
    42   43   41 1
    43   44   43 1
    44   45   44 1
    45   46   44 1
    46   47   44 1
    47   48   43 1
    48   49   48 1
    49   50   48 1
    50   51   48 1
    51   52   43 1
    52   53   52 1
    53   54   52 1
    54   55   52 1
    55   56    6 1
    56   57   56 1
    57   58   57 2
    58   59   57 1
    59   60   59 1
    60   61   60 1
    61   62   60 1
    62   63   60 1
    63   64   59 1
    64   65   64 1
    65   66   64 1
    66   67   64 1
    67   68   59 1
    68   69   68 1
    69   70   68 1
    70   71   68 1
    71   72   10 1
    72   73   72 1
    73   74   73 2
    74   75   73 1
    75   76   75 1
    76   77   76 1
    77   78   76 1
    78   79   76 1
    79   80   75 1
    80   81   80 1
    81   82   80 1
    82   83   80 1
    83   84   75 1
    84   85   84 1
    85   86   84 1
    86   87   84 1
    87    8   13 1
    88   36   38 ar
@<TRIPOS>SUBSTRUCTURE
     1 RES1 1

@<TRIPOS>CRYSIN
  27.6920   27.6920   11.7470  90.0000  90.0000 120.0000 232 1

