# MOL2 file generated by ConQuest
# Please check atom types

@<TRIPOS>MOLECULE
HUJMEF
    37    39     1
SMALL
NO_CHARGES
****
Generated from CSD

@<TRIPOS>ATOM
      1 O1         0.0545    2.5209    3.3204 O.2       1 RES1    0.0000
      2 O2         0.3983    4.6270    3.6202 O.2       1 RES1    0.0000
      3 N1         0.7624    3.4703    3.6170 N.pl3     1 RES1    0.0000
      4 C1         2.1787    3.2565    3.9667 C.3       1 RES1    0.0000
      5 C2         3.0835    2.9381    2.7788 C.3       1 RES1    0.0000
      6 H1         4.0076    3.3094    2.8659 H         1 RES1    0.0000
      7 C3         2.7635    1.8917    3.7814 C.3       1 RES1    0.0000
      8 H2         3.4837    1.6136    4.4003 H         1 RES1    0.0000
      9 H3         2.1512    1.1642    3.5041 H         1 RES1    0.0000
     10 O3         3.7042    4.7500    4.9609 O.2       1 RES1    0.0000
     11 O4         0.0252    4.3931   10.0262 O.3       1 RES1    0.0000
     12 C4         2.6435    4.1391    5.0692 C.2       1 RES1    0.0000
     13 C5         1.8616    4.2046    6.3233 C.ar      1 RES1    0.0000
     14 C6         2.0303    5.2890    7.1904 C.ar      1 RES1    0.0000
     15 H4         2.5983    6.0073    6.9358 H         1 RES1    0.0000
     16 C7         1.3901    5.3292    8.3961 C.ar      1 RES1    0.0000
     17 H5         1.5025    6.0785    8.9683 H         1 RES1    0.0000
     18 C8         0.5726    4.2696    8.7862 C.ar      1 RES1    0.0000
     19 C9         0.3748    3.2030    7.9464 C.ar      1 RES1    0.0000
     20 H6        -0.1847    2.4819    8.2107 H         1 RES1    0.0000
     21 C10        0.9965    3.1870    6.7085 C.ar      1 RES1    0.0000
     22 H7         0.8292    2.4664    6.1121 H         1 RES1    0.0000
     23 C11       -0.7146    3.2887   10.5544 C.3       1 RES1    0.0000
     24 H8        -0.1276    2.5072   10.6269 H         1 RES1    0.0000
     25 H9        -1.4623    3.0806    9.9564 H         1 RES1    0.0000
     26 H10       -1.0605    3.5214   11.4409 H         1 RES1    0.0000
     27 C12        2.5633    2.9376    1.3749 C.ar      1 RES1    0.0000
     28 C13        2.8607    4.0196    0.5674 C.ar      1 RES1    0.0000
     29 H11        3.3762    4.7402    0.9107 H         1 RES1    0.0000
     30 C14        2.4048    4.0547   -0.7495 C.ar      1 RES1    0.0000
     31 H12        2.6187    4.7982   -1.3008 H         1 RES1    0.0000
     32 C15        1.6543    3.0329   -1.2556 C.ar      1 RES1    0.0000
     33 H13        1.3441    3.0657   -2.1534 H         1 RES1    0.0000
     34 C16        1.3551    1.9658   -0.4642 C.ar      1 RES1    0.0000
     35 H14        0.8318    1.2527   -0.8108 H         1 RES1    0.0000
     36 C17        1.8132    1.9136    0.8543 C.ar      1 RES1    0.0000
     37 H15        1.6029    1.1625    1.3975 H         1 RES1    0.0000
@<TRIPOS>BOND
     1    1    3 2
     2    2    3 2
     3    3    4 1
     4    4    5 1
     5    5    6 1
     6    7    4 1
     7    8    7 1
     8    9    7 1
     9   10   12 2
    10   11   18 1
    11   12    4 1
    12   13   12 1
    13   14   13 ar
    14   15   14 1
    15   16   14 ar
    16   17   16 1
    17   18   16 ar
    18   19   18 ar
    19   20   19 1
    20   21   13 ar
    21   22   21 1
    22   23   11 1
    23   24   23 1
    24   25   23 1
    25   26   23 1
    26   27    5 1
    27   28   27 ar
    28   29   28 1
    29   30   28 ar
    30   31   30 1
    31   32   30 ar
    32   33   32 1
    33   34   32 ar
    34   35   34 1
    35   36   27 ar
    36   37   36 1
    37    5    7 1
    38   19   21 ar
    39   34   36 ar
@<TRIPOS>SUBSTRUCTURE
     1 RES1 1

@<TRIPOS>CRYSIN
   8.1895    5.7464   16.2690  90.0000  97.8010  90.0000   4 1

