# MOL2 file generated by ConQuest
# Please check atom types

@<TRIPOS>MOLECULE
HUJMUW
    75    60     2
SMALL
NO_CHARGES
****
Generated from CSD

@<TRIPOS>ATOM
      1 C1        15.4443    1.9338    6.2660 C.3       1 RES1    0.0000
      2 H1        14.9479    1.2290    6.7728 H         1 RES1    0.0000
      3 C2        15.0141    1.8483    4.7953 C.3       1 RES1    0.0000
      4 H2        15.5903    2.4447    4.2558 H         1 RES1    0.0000
      5 H3        15.1498    0.9222    4.4720 H         1 RES1    0.0000
      6 C3        13.5721    2.2354    4.5823 C.2       1 RES1    0.0000
      7 C4        13.1756    3.5481    5.2009 C.3       1 RES1    0.0000
      8 H4        12.1946    3.6651    5.1280 H         1 RES1    0.0000
      9 H5        13.6103    4.2902    4.7107 H         1 RES1    0.0000
     10 C5        13.5872    3.5946    6.6674 C.3       1 RES1    0.0000
     11 H6        13.0552    2.9311    7.1732 H         1 RES1    0.0000
     12 H7        13.3794    4.4915    7.0322 H         1 RES1    0.0000
     13 C6        15.0773    3.3038    6.8751 C.3       1 RES1    0.0000
     14 H8        15.6035    4.0092    6.4025 H         1 RES1    0.0000
     15 C7        15.4256    3.3600    8.3627 C.3       1 RES1    0.0000
     16 H9        15.1448    4.2243    8.7315 H         1 RES1    0.0000
     17 H10       16.3927    3.2545    8.4759 H         1 RES1    0.0000
     18 H11       14.9613    2.6380    8.8349 H         1 RES1    0.0000
     19 C8        10.7265    1.0856    2.9024 C.ar      1 RES1    0.0000
     20 C9         9.3646    1.4532    2.6736 C.ar      1 RES1    0.0000
     21 C10        8.5304    0.6951    1.8657 C.ar      1 RES1    0.0000
     22 H12        7.6328    0.9652    1.7106 H         1 RES1    0.0000
     23 C11        9.0216   -0.4496    1.2948 C.ar      1 RES1    0.0000
     24 C12       10.3471   -0.8665    1.5012 C.ar      1 RES1    0.0000
     25 H13       10.6658   -1.6671    1.0997 H         1 RES1    0.0000
     26 C13       11.1744   -0.1113    2.2826 C.ar      1 RES1    0.0000
     27 H14       12.0709   -0.3934    2.4155 H         1 RES1    0.0000
     28 C14       16.9379    1.6522    6.4106 C.ar      1 RES1    0.0000
     29 C15       17.3628    0.7134    7.3469 C.ar      1 RES1    0.0000
     30 H15       16.7175    0.2191    7.8386 H         1 RES1    0.0000
     31 C16       18.7156    0.4857    7.5762 C.ar      1 RES1    0.0000
     32 H16       18.9779   -0.1554    8.2259 H         1 RES1    0.0000
     33 C17       19.6999    1.1854    6.8647 C.ar      1 RES1    0.0000
     34 C18       19.2723    2.0984    5.9044 C.ar      1 RES1    0.0000
     35 H17       19.9159    2.5721    5.3912 H         1 RES1    0.0000
     36 C19       17.9156    2.3283    5.6835 C.ar      1 RES1    0.0000
     37 H18       17.6515    2.9592    5.0227 H         1 RES1    0.0000
     38 C20       21.1464    0.9720    7.1602 C.ar      1 RES1    0.0000
     39 C21       21.5985   -0.2133    7.7458 C.ar      1 RES1    0.0000
     40 H19       20.9825   -0.9204    7.9007 H         1 RES1    0.0000
     41 C22       22.9280   -0.3785    8.1039 C.ar      1 RES1    0.0000
     42 H20       23.2102   -1.1883    8.5116 H         1 RES1    0.0000
     43 C23       23.8485    0.6366    7.8693 C.ar      1 RES1    0.0000
     44 H21       24.7574    0.5282    8.1262 H         1 RES1    0.0000
     45 C24       23.4310    1.8047    7.2599 C.ar      1 RES1    0.0000
     46 H22       24.0575    2.4952    7.0792 H         1 RES1    0.0000
     47 C25       22.0866    1.9716    6.9093 C.ar      1 RES1    0.0000
     48 H23       21.8101    2.7791    6.4927 H         1 RES1    0.0000
     49 N1        12.8565    1.4182    3.8870 N.2       1 RES1    0.0000
     50 N2        11.5524    1.8294    3.6597 N.pl3     1 RES1    0.0000
     51 N3         8.7669    2.6145    3.2962 N.pl3     1 RES1    0.0000
     52 N4         8.1387   -1.2364    0.4534 N.pl3     1 RES1    0.0000
     53 O1         9.4752    3.3537    3.9996 O.2       1 RES1    0.0000
     54 O2         7.5718    2.8427    3.1058 O.2       1 RES1    0.0000
     55 O3         7.0173   -0.7971    0.2021 O.2       1 RES1    0.0000
     56 O4         8.5601   -2.3151    0.0231 O.2       1 RES1    0.0000
     57 H24       11.1687    2.5577    4.0810 H         1 RES1    0.0000
     58 C26       15.6020    2.2825    5.9438 Du        2 SUP2    0.0000
     59 H25       15.7183    2.9884    5.2446 Du        2 SUP2    0.0000
     60 C27       14.7370    1.0965    5.4833 Du        2 SUP2    0.0000
     61 H26       15.1384    0.6893    4.6731 Du        2 SUP2    0.0000
     62 H27       14.7119    0.4083    6.1938 Du        2 SUP2    0.0000
     63 C28       13.3277    1.5541    5.1731 Du        2 SUP2    0.0000
     64 C29       12.6683    2.3742    6.2408 Du        2 SUP2    0.0000
     65 H28       12.3095    1.7606    6.9307 Du        2 SUP2    0.0000
     66 H29       11.9039    2.8582    5.8423 Du        2 SUP2    0.0000
     67 C30       13.5822    3.3663    6.9063 Du        2 SUP2    0.0000
     68 H30       13.1465    3.6921    7.7334 Du        2 SUP2    0.0000
     69 H31       13.6959    4.1451    6.3029 Du        2 SUP2    0.0000
     70 C31       14.9706    2.8158    7.2653 Du        2 SUP2    0.0000
     71 H32       14.9044    2.0915    7.9495 Du        2 SUP2    0.0000
     72 C32       15.8130    3.9914    7.7822 Du        2 SUP2    0.0000
     73 H33       16.1022    4.5431    7.0285 Du        2 SUP2    0.0000
     74 H34       16.5977    3.6450    8.2559 Du        2 SUP2    0.0000
     75 H35       15.2731    4.5322    8.3969 Du        2 SUP2    0.0000
@<TRIPOS>BOND
     1    1    2 1
     2    3    1 1
     3    4    3 1
     4    5    3 1
     5    6    3 1
     6    7    6 1
     7    8    7 1
     8    9    7 1
     9   10    7 1
    10   11   10 1
    11   12   10 1
    12   13    1 1
    13   14   13 1
    14   15   13 1
    15   16   15 1
    16   17   15 1
    17   18   15 1
    18   19   20 ar
    19   20   21 ar
    20   21   22 1
    21   23   21 ar
    22   24   23 ar
    23   25   24 1
    24   26   19 ar
    25   27   26 1
    26   28    1 1
    27   29   28 ar
    28   30   29 1
    29   31   29 ar
    30   32   31 1
    31   33   31 ar
    32   34   33 ar
    33   35   34 1
    34   36   28 ar
    35   37   36 1
    36   38   33 1
    37   39   38 ar
    38   40   39 1
    39   41   39 ar
    40   42   41 1
    41   43   41 ar
    42   44   43 1
    43   45   43 ar
    44   46   45 1
    45   47   38 ar
    46   48   47 1
    47   49    6 2
    48   50   19 1
    49   51   20 1
    50   52   23 1
    51   53   51 2
    52   54   51 2
    53   55   52 2
    54   56   52 2
    55   57   50 1
    56   10   13 1
    57   24   26 ar
    58   34   36 ar
    59   45   47 ar
    60   49   50 1
@<TRIPOS>SUBSTRUCTURE
     1 RES1 1
     2 SUP2 58

@<TRIPOS>CRYSIN
  20.3743    5.7348   19.2424  90.0000 102.3420  90.0000  14 1

