# MOL2 file generated by ConQuest
# Please check atom types

@<TRIPOS>MOLECULE
HUKTUD
    33    32     1
SMALL
NO_CHARGES
****
Generated from CSD

@<TRIPOS>ATOM
      1 C1         9.6543    0.0000    6.3283 C.3       1 RES1    0.0000
      2 C2         8.4397    0.1829    5.3968 C.3       1 RES1    0.0000
      3 H1         8.5856    0.9693    4.8475 H         1 RES1    0.0000
      4 H2         8.3848   -0.5831    4.8044 H         1 RES1    0.0000
      5 N1         7.1637    0.3283    6.0910 N.pl3     1 RES1    0.0000
      6 H3         6.7831   -0.3736    6.4106 H         1 RES1    0.0000
      7 N2         6.5677    1.5104    6.2479 N.pl3     1 RES1    0.0000
      8 O1         7.1921    2.5380    5.9530 O.2       1 RES1    0.0000
      9 O2         5.4240    1.5126    6.6934 O.2       1 RES1    0.0000
     10 C2A       10.8689   -0.1829    5.3968 C.3       1 RES1    0.0000
     11 C2B        9.8372    1.2146    7.2598 C.3       1 RES1    0.0000
     12 C2C        9.4714   -1.2146    7.2598 C.3       1 RES1    0.0000
     13 H1A       10.7230   -0.9693    4.8475 H         1 RES1    0.0000
     14 H1B       10.6236    1.0687    7.8091 H         1 RES1    0.0000
     15 H1C        8.6850   -1.0687    7.8091 H         1 RES1    0.0000
     16 H2A       10.9238    0.5831    4.8044 H         1 RES1    0.0000
     17 H2B        9.0712    1.2695    7.8522 H         1 RES1    0.0000
     18 H2C       10.2374   -1.2695    7.8522 H         1 RES1    0.0000
     19 N1A       12.1449   -0.3283    6.0910 N.pl3     1 RES1    0.0000
     20 N1B        9.9826    2.4906    6.5656 N.pl3     1 RES1    0.0000
     21 N1C        9.3260   -2.4906    6.5656 N.pl3     1 RES1    0.0000
     22 H3A       12.5255    0.3736    6.4106 H         1 RES1    0.0000
     23 H3B        9.2807    2.8712    6.2460 H         1 RES1    0.0000
     24 H3C       10.0279   -2.8712    6.2460 H         1 RES1    0.0000
     25 N2A       12.7409   -1.5104    6.2479 N.pl3     1 RES1    0.0000
     26 N2B       11.1647    3.0866    6.4087 N.pl3     1 RES1    0.0000
     27 N2C        8.1439   -3.0866    6.4087 N.pl3     1 RES1    0.0000
     28 O1A       12.1165   -2.5380    5.9530 O.2       1 RES1    0.0000
     29 O1B       12.1923    2.4622    6.7036 O.2       1 RES1    0.0000
     30 O1C        7.1163   -2.4622    6.7036 O.2       1 RES1    0.0000
     31 O2A       13.8846   -1.5126    6.6934 O.2       1 RES1    0.0000
     32 O2B       11.1669    4.2303    5.9632 O.2       1 RES1    0.0000
     33 O2C        8.1417   -4.2303    5.9632 O.2       1 RES1    0.0000
@<TRIPOS>BOND
     1    1    2 1
     2    2    3 1
     3    4    2 1
     4    5    2 1
     5    6    5 1
     6    7    5 1
     7    8    7 2
     8    9    7 2
     9   10    1 1
    10   11    1 1
    11   12    1 1
    12   13   10 1
    13   14   11 1
    14   15   12 1
    15   16   10 1
    16   17   11 1
    17   18   12 1
    18   19   10 1
    19   20   11 1
    20   21   12 1
    21   22   19 1
    22   23   20 1
    23   24   21 1
    24   25   19 1
    25   26   20 1
    26   27   21 1
    27   28   25 2
    28   29   26 2
    29   30   27 2
    30   31   25 2
    31   32   26 2
    32   33   27 2
@<TRIPOS>SUBSTRUCTURE
     1 RES1 1

@<TRIPOS>CRYSIN
   9.6543    9.6543    6.3283  90.0000  90.0000  90.0000  82 1

