# MOL2 file generated by ConQuest
# Please check atom types

@<TRIPOS>MOLECULE
HULFAX
    84    88     2
SMALL
NO_CHARGES
****
Generated from CSD

@<TRIPOS>ATOM
      1 O1         8.7094    9.1641    0.5745 O.2       1 RES1    0.0000
      2 O2        14.1587    2.6034    2.6937 O.2       1 RES1    0.0000
      3 O3        12.9955    0.9405    3.3982 O.2       1 RES1    0.0000
      4 N1         6.9537    6.6193    1.3900 N.2       1 RES1    0.0000
      5 N2         8.2685    6.1537    1.6692 N.2       1 RES1    0.0000
      6 N3        13.0890    2.0569    2.9403 N.pl3     1 RES1    0.0000
      7 C1         5.5917    8.5382    1.0472 C.ar      1 RES1    0.0000
      8 C2         5.5237    9.9081    0.8782 C.ar      1 RES1    0.0000
      9 H1         6.2956   10.4196    0.9622 H         1 RES1    0.0000
     10 C3         4.3179   10.5325    0.5813 C.ar      1 RES1    0.0000
     11 H2         4.2833   11.4541    0.4686 H         1 RES1    0.0000
     12 C4         3.1755    9.7775    0.4561 C.ar      1 RES1    0.0000
     13 H3         2.3674   10.1860    0.2450 H         1 RES1    0.0000
     14 C5         3.2290    8.4306    0.6421 C.ar      1 RES1    0.0000
     15 H4         2.4499    7.9283    0.5795 H         1 RES1    0.0000
     16 C6         4.4220    7.8018    0.9229 C.ar      1 RES1    0.0000
     17 H5         4.4441    6.8775    1.0302 H         1 RES1    0.0000
     18 C7         6.8888    7.8975    1.3387 C.2       1 RES1    0.0000
     19 C8         8.0894    8.7893    1.5506 C.2       1 RES1    0.0000
     20 C9         8.3623    9.2805    2.9135 C.ar      1 RES1    0.0000
     21 C10        7.7225    8.7507    4.0063 C.ar      1 RES1    0.0000
     22 H6         7.1138    8.0544    3.8990 H         1 RES1    0.0000
     23 C11        7.9852    9.2558    5.2726 C.ar      1 RES1    0.0000
     24 H7         7.5594    8.8918    6.0148 H         1 RES1    0.0000
     25 C12        8.8747   10.2914    5.4282 C.ar      1 RES1    0.0000
     26 H8         9.0504   10.6302    6.2759 H         1 RES1    0.0000
     27 C13        9.4952   10.8206    4.3461 C.ar      1 RES1    0.0000
     28 H9        10.0887   11.5289    4.4552 H         1 RES1    0.0000
     29 C14        9.2583   10.3236    3.0924 C.ar      1 RES1    0.0000
     30 H10        9.7002   10.6865    2.3591 H         1 RES1    0.0000
     31 C15        8.2717    4.9113    1.9620 C.2       1 RES1    0.0000
     32 H11        7.4159    4.2221    1.9531 H         1 RES1    0.0000
     33 C16        9.5223    4.2042    2.2158 C.ar      1 RES1    0.0000
     34 C17       10.7643    4.7966    2.0371 C.ar      1 RES1    0.0000
     35 H12       10.8101    5.6813    1.7545 H         1 RES1    0.0000
     36 C18       11.9296    4.1043    2.2696 C.ar      1 RES1    0.0000
     37 H13       12.7560    4.5112    2.1409 H         1 RES1    0.0000
     38 C19       11.8480    2.8112    2.6917 C.ar      1 RES1    0.0000
     39 C20       10.6451    2.1844    2.8956 C.ar      1 RES1    0.0000
     40 H14       10.6127    1.3057    3.1961 H         1 RES1    0.0000
     41 C21        9.4819    2.8919    2.6434 C.ar      1 RES1    0.0000
     42 H15        8.6586    2.4758    2.7633 H         1 RES1    0.0000
     43 O4        10.4884   -1.0360    9.2431 O.2       2 RES2    0.0000
     44 O5         4.6104    4.1852    5.2286 O.2       2 RES2    0.0000
     45 O6         5.6219    5.8915    4.3973 O.2       2 RES2    0.0000
     46 N4        12.0373    1.3974    7.7849 N.2       2 RES2    0.0000
     47 N5        10.7109    1.6338    7.3192 N.2       2 RES2    0.0000
     48 N6         5.6231    4.8193    4.9801 N.pl3     2 RES2    0.0000
     49 C22       13.5030   -0.2242    8.7258 C.ar      2 RES2    0.0000
     50 C23       13.6877   -1.4498    9.3379 C.ar      2 RES2    0.0000
     51 H16       12.9713   -2.0376    9.4112 H         2 RES2    0.0000
     52 C24       14.9240   -1.8142    9.8422 C.ar      2 RES2    0.0000
     53 H17       15.0296   -2.6400   10.2572 H         2 RES2    0.0000
     54 C25       15.9874   -0.9694    9.7331 C.ar      2 RES2    0.0000
     55 H18       16.8195   -1.2207   10.0640 H         2 RES2    0.0000
     56 C26       15.8261    0.2522    9.1358 C.ar      2 RES2    0.0000
     57 H19       16.5497    0.8308    9.0624 H         2 RES2    0.0000
     58 C27       14.5924    0.6275    8.6420 C.ar      2 RES2    0.0000
     59 H20       14.4907    1.4633    8.2469 H         2 RES2    0.0000
     60 C28       12.1890    0.1968    8.1981 C.2       2 RES2    0.0000
     61 C29       11.0502   -0.8129    8.1843 C.2       2 RES2    0.0000
     62 C30       10.7590   -1.5456    6.9395 C.ar      2 RES2    0.0000
     63 C31       11.3465   -1.2135    5.7340 C.ar      2 RES2    0.0000
     64 H21       11.9323   -0.4930    5.6857 H         2 RES2    0.0000
     65 C32       11.0676   -1.9413    4.6126 C.ar      2 RES2    0.0000
     66 H22       11.4709   -1.7150    3.8060 H         2 RES2    0.0000
     67 C33       10.2008   -3.0024    4.6627 C.ar      2 RES2    0.0000
     68 H23       10.0102   -3.4899    3.8954 H         2 RES2    0.0000
     69 C34        9.6226   -3.3347    5.8503 C.ar      2 RES2    0.0000
     70 H24        9.0466   -4.0629    5.8914 H         2 RES2    0.0000
     71 C35        9.8779   -2.6090    6.9895 C.ar      2 RES2    0.0000
     72 H25        9.4593   -2.8315    7.7890 H         2 RES2    0.0000
     73 C36       10.6069    2.8084    6.8270 C.2       2 RES2    0.0000
     74 H26       11.5157    3.5502    6.8572 H         2 RES2    0.0000
     75 C37        9.3176    3.2792    6.3097 C.ar      2 RES2    0.0000
     76 C38        8.1796    2.4810    6.3206 C.ar      2 RES2    0.0000
     77 H27        8.2315    1.6054    6.6283 H         2 RES2    0.0000
     78 C39        6.9753    2.9837    5.8789 C.ar      2 RES2    0.0000
     79 H28        6.2090    2.4585    5.9003 H         2 RES2    0.0000
     80 C40        6.9227    4.2694    5.4083 C.ar      2 RES2    0.0000
     81 C41        8.0368    5.0633    5.3602 C.ar      2 RES2    0.0000
     82 H29        7.9851    5.9302    5.0293 H         2 RES2    0.0000
     83 C42        9.2369    4.5566    5.8127 C.ar      2 RES2    0.0000
     84 H30       10.0003    5.0864    5.7787 H         2 RES2    0.0000
@<TRIPOS>BOND
     1    1   19 2
     2    2    6 2
     3    3    6 2
     4    4    5 1
     5    5   31 2
     6    6   38 1
     7    7    8 ar
     8    8    9 1
     9   10    8 ar
    10   11   10 1
    11   12   10 ar
    12   13   12 1
    13   14   12 ar
    14   15   14 1
    15   16    7 ar
    16   17   16 1
    17   18    4 2
    18   19   18 1
    19   20   19 1
    20   21   20 ar
    21   22   21 1
    22   23   21 ar
    23   24   23 1
    24   25   23 ar
    25   26   25 1
    26   27   25 ar
    27   28   27 1
    28   29   20 ar
    29   30   29 1
    30   31   32 1
    31   33   31 1
    32   34   33 ar
    33   35   34 1
    34   36   34 ar
    35   37   36 1
    36   38   36 ar
    37   39   38 ar
    38   40   39 1
    39   41   33 ar
    40   42   41 1
    41   43   61 2
    42   44   48 2
    43   45   48 2
    44   46   47 1
    45   47   73 2
    46   48   80 1
    47   49   50 ar
    48   50   51 1
    49   52   50 ar
    50   53   52 1
    51   54   52 ar
    52   55   54 1
    53   56   54 ar
    54   57   56 1
    55   58   49 ar
    56   59   58 1
    57   60   46 2
    58   61   60 1
    59   62   61 1
    60   63   62 ar
    61   64   63 1
    62   65   63 ar
    63   66   65 1
    64   67   65 ar
    65   68   67 1
    66   69   67 ar
    67   70   69 1
    68   71   62 ar
    69   72   71 1
    70   73   74 1
    71   75   73 1
    72   76   75 ar
    73   77   76 1
    74   78   76 ar
    75   79   78 1
    76   80   78 ar
    77   81   80 ar
    78   82   81 1
    79   83   75 ar
    80   84   83 1
    81    7   18 1
    82   14   16 ar
    83   27   29 ar
    84   39   41 ar
    85   49   60 1
    86   56   58 ar
    87   69   71 ar
    88   81   83 ar
@<TRIPOS>SUBSTRUCTURE
     1 RES1 1
     2 RES2 43

@<TRIPOS>CRYSIN
   8.7014   11.6025   18.8789  73.4440  79.0020  80.5440   2 1

