# MOL2 file generated by ConQuest
# Please check atom types

@<TRIPOS>MOLECULE
HULJON
    29    30     1
SMALL
NO_CHARGES
****
Generated from CSD

@<TRIPOS>ATOM
      1 O1         6.7997    4.3569    6.2116 O.2       1 RES1    0.0000
      2 O2         8.0825    2.7003    6.6327 O.2       1 RES1    0.0000
      3 N1         6.9803    3.1645    6.3810 N.pl3     1 RES1    0.0000
      4 N2         2.6412   -0.2732    5.9671 N.pl3     1 RES1    0.0000
      5 H1         2.7549   -1.1102    6.1294 H         1 RES1    0.0000
      6 N3         1.3826    0.2070    5.6231 N.2       1 RES1    0.0000
      7 C1         3.6946    0.5897    6.0471 C.ar      1 RES1    0.0000
      8 C2         4.9436    0.1088    6.4373 C.ar      1 RES1    0.0000
      9 H2         5.0502   -0.7941    6.6356 H         1 RES1    0.0000
     10 C3         6.0060    0.9485    6.5310 C.ar      1 RES1    0.0000
     11 H3         6.8369    0.6176    6.7899 H         1 RES1    0.0000
     12 C4         5.8606    2.2763    6.2469 C.ar      1 RES1    0.0000
     13 C5         4.6399    2.7734    5.8323 C.ar      1 RES1    0.0000
     14 H4         4.5480    3.6748    5.6224 H         1 RES1    0.0000
     15 C6         3.5687    1.9308    5.7327 C.ar      1 RES1    0.0000
     16 H5         2.7463    2.2631    5.4508 H         1 RES1    0.0000
     17 C7         0.4471   -0.6676    5.5921 C.2       1 RES1    0.0000
     18 C8         0.5266   -2.1234    5.8589 C.3       1 RES1    0.0000
     19 H6         0.8549   -2.2940    6.7567 H         1 RES1    0.0000
     20 H7         1.1135   -2.5616    5.2222 H         1 RES1    0.0000
     21 C9        -0.8976   -2.6101    5.7032 C.3       1 RES1    0.0000
     22 H8        -0.9169   -3.4366    5.1955 H         1 RES1    0.0000
     23 H9        -1.2930   -2.7734    6.5735 H         1 RES1    0.0000
     24 C10       -1.6285   -1.5867    5.0116 C.3       1 RES1    0.0000
     25 H10       -2.5390   -1.5484    5.3484 H         1 RES1    0.0000
     26 H11       -1.6649   -1.7911    4.0641 H         1 RES1    0.0000
     27 C11       -0.9568   -0.2706    5.2193 C.3       1 RES1    0.0000
     28 H12       -1.3806    0.2309    5.9339 H         1 RES1    0.0000
     29 H13       -0.9682    0.2603    4.4081 H         1 RES1    0.0000
@<TRIPOS>BOND
     1    1    3 2
     2    2    3 2
     3    3   12 1
     4    4    5 1
     5    6    4 1
     6    7    4 1
     7    8    7 ar
     8    9    8 1
     9   10    8 ar
    10   11   10 1
    11   12   10 ar
    12   13   12 ar
    13   14   13 1
    14   15    7 ar
    15   16   15 1
    16   17    6 2
    17   18   17 1
    18   19   18 1
    19   20   18 1
    20   21   18 1
    21   22   21 1
    22   23   21 1
    23   24   21 1
    24   25   24 1
    25   26   24 1
    26   27   17 1
    27   28   27 1
    28   29   27 1
    29   13   15 ar
    30   24   27 1
@<TRIPOS>SUBSTRUCTURE
     1 RES1 1

@<TRIPOS>CRYSIN
  21.3720   14.7050    7.2110  90.0000  90.0000  90.0000  61 1

