# MOL2 file generated by ConQuest
# Please check atom types

@<TRIPOS>MOLECULE
HULVUF
    47    48     1
SMALL
NO_CHARGES
****
Generated from CSD

@<TRIPOS>ATOM
      1 O1         2.2663    0.0674    4.9867 O.2       1 RES1    0.0000
      2 O2         0.0534   -3.6530    6.6445 O.2       1 RES1    0.0000
      3 O3         0.7876    0.8815   11.2412 O.3       1 RES1    0.0000
      4 O4        -0.4087    3.1347   10.1296 O.2       1 RES1    0.0000
      5 O5         1.5485    4.1920   10.2691 O.3       1 RES1    0.0000
      6 N1         1.6452   -1.0501    5.0780 N.pl3     1 RES1    0.0000
      7 N2         0.5797   -2.7926    5.8485 N.pl3     1 RES1    0.0000
      8 C1         1.1367   -1.6078    6.1975 C.2       1 RES1    0.0000
      9 C2         1.5351   -1.9353    3.8763 C.3       1 RES1    0.0000
     10 C3         0.4878   -2.9719    4.3610 C.3       1 RES1    0.0000
     11 C4         1.1265   -1.0055    7.5313 C.ar      1 RES1    0.0000
     12 C5         1.8863    0.1348    7.8006 C.ar      1 RES1    0.0000
     13 H1         2.4616    0.4706    7.1372 H         1 RES1    0.0000
     14 C6         1.8109    0.7816    9.0173 C.ar      1 RES1    0.0000
     15 H2         2.3342    1.5456    9.1775 H         1 RES1    0.0000
     16 C7         0.9605    0.3017   10.0079 C.ar      1 RES1    0.0000
     17 C8         0.2212   -0.8479    9.7679 C.ar      1 RES1    0.0000
     18 H3        -0.3365   -1.1911   10.4431 H         1 RES1    0.0000
     19 C9         0.2962   -1.4937    8.5543 C.ar      1 RES1    0.0000
     20 H4        -0.2148   -2.2691    8.4088 H         1 RES1    0.0000
     21 C10        1.3689    2.1717   11.4621 C.3       1 RES1    0.0000
     22 H5         2.3436    2.1364   11.2868 H         1 RES1    0.0000
     23 C11        1.1191    2.5189   12.9191 C.3       1 RES1    0.0000
     24 H6         1.5232    3.3762   13.1223 H         1 RES1    0.0000
     25 H7         1.5094    1.8348   13.4858 H         1 RES1    0.0000
     26 H8         0.1637    2.5656   13.0798 H         1 RES1    0.0000
     27 C12        0.7148    3.1958   10.5390 C.2       1 RES1    0.0000
     28 C13        1.0307    5.2442    9.4049 C.3       1 RES1    0.0000
     29 H9         0.9092    4.8959    8.5082 H         1 RES1    0.0000
     30 H10        1.6591    5.9833    9.3824 H         1 RES1    0.0000
     31 H11        0.1787    5.5551    9.7495 H         1 RES1    0.0000
     32 C14        2.9203   -2.5044    3.6396 C.3       1 RES1    0.0000
     33 H12        2.9235   -3.0165    2.8151 H         1 RES1    0.0000
     34 H13        3.1637   -3.0828    4.3788 H         1 RES1    0.0000
     35 H14        3.5610   -1.7798    3.5716 H         1 RES1    0.0000
     36 C15        1.1115   -1.0998    2.6841 C.3       1 RES1    0.0000
     37 H15        0.8849   -1.6845    1.9430 H         1 RES1    0.0000
     38 H16        1.8401   -0.5152    2.4237 H         1 RES1    0.0000
     39 H17        0.3374   -0.5649    2.9226 H         1 RES1    0.0000
     40 C16        0.7658   -4.4076    4.0036 C.3       1 RES1    0.0000
     41 H18        0.7732   -4.5051    3.0386 H         1 RES1    0.0000
     42 H19        0.0749   -4.9746    4.3809 H         1 RES1    0.0000
     43 H20        1.6292   -4.6688    4.3606 H         1 RES1    0.0000
     44 C17       -0.9596   -2.6029    3.9902 C.3       1 RES1    0.0000
     45 H21       -1.1090   -2.7853    3.0504 H         1 RES1    0.0000
     46 H22       -1.1067   -1.6596    4.1639 H         1 RES1    0.0000
     47 H23       -1.5743   -3.1295    4.5228 H         1 RES1    0.0000
@<TRIPOS>BOND
     1    1    6 un
     2    2    7 un
     3    3   16 1
     4    4   27 2
     5    5   27 1
     6    6    8 un
     7    7    8 un
     8    8   11 1
     9    9    6 1
    10   10    7 1
    11   11   12 ar
    12   12   13 1
    13   14   12 ar
    14   15   14 1
    15   16   14 ar
    16   17   16 ar
    17   18   17 1
    18   19   11 ar
    19   20   19 1
    20   21    3 1
    21   22   21 1
    22   23   21 1
    23   24   23 1
    24   25   23 1
    25   26   23 1
    26   27   21 1
    27   28    5 1
    28   29   28 1
    29   30   28 1
    30   31   28 1
    31   32    9 1
    32   33   32 1
    33   34   32 1
    34   35   32 1
    35   36    9 1
    36   37   36 1
    37   38   36 1
    38   39   36 1
    39   40   10 1
    40   41   40 1
    41   42   40 1
    42   43   40 1
    43   44   10 1
    44   45   44 1
    45   46   44 1
    46   47   44 1
    47    9   10 1
    48   17   19 ar
@<TRIPOS>SUBSTRUCTURE
     1 RES1 1

@<TRIPOS>CRYSIN
   8.3070   10.3660   20.4390  90.0000  97.1100  90.0000  14 1

