# MOL2 file generated by ConQuest
# Please check atom types

@<TRIPOS>MOLECULE
HULWAM
    44    45     1
SMALL
NO_CHARGES
****
Generated from CSD

@<TRIPOS>ATOM
      1 O1         4.9667    3.1382    8.1525 O.2       1 RES1    0.0000
      2 O2         1.5418    1.5954   10.8637 O.2       1 RES1    0.0000
      3 O3         9.7424    4.2602   13.0608 O.3       1 RES1    0.0000
      4 H1         9.8101    5.1805   12.8378 H         1 RES1    0.0000
      5 O4         7.7021    4.8153   13.7441 O.2       1 RES1    0.0000
      6 O5         7.1024    2.1668   14.1298 O.3       1 RES1    0.0000
      7 N1         3.7891    2.8159    8.5921 N.pl3     1 RES1    0.0000
      8 N2         2.1717    2.1278    9.8865 N.pl3     1 RES1    0.0000
      9 C1         3.5084    2.3544    9.8244 C.2       1 RES1    0.0000
     10 C2         2.5982    2.7321    7.6807 C.3       1 RES1    0.0000
     11 C3         1.4623    2.7673    8.7265 C.3       1 RES1    0.0000
     12 C4         4.4510    2.2109   10.9262 C.ar      1 RES1    0.0000
     13 C5         5.7966    1.9795   10.6849 C.ar      1 RES1    0.0000
     14 H2         6.0914    1.8346    9.8040 H         1 RES1    0.0000
     15 C6         6.7143    1.9572   11.7267 C.ar      1 RES1    0.0000
     16 H3         7.6242    1.8019   11.5526 H         1 RES1    0.0000
     17 C7         6.2804    2.1649   13.0221 C.ar      1 RES1    0.0000
     18 C8         4.9383    2.3560   13.2777 C.ar      1 RES1    0.0000
     19 H4         4.6436    2.4668   14.1637 H         1 RES1    0.0000
     20 C9         4.0286    2.3870   12.2481 C.ar      1 RES1    0.0000
     21 H5         3.1175    2.5269   12.4335 H         1 RES1    0.0000
     22 C10        8.4622    2.5317   13.9600 C.3       1 RES1    0.0000
     23 H6         8.8662    1.9757   13.2482 H         1 RES1    0.0000
     24 C11        8.5681    4.0005   13.5802 C.2       1 RES1    0.0000
     25 C12        9.1735    2.2715   15.2666 C.3       1 RES1    0.0000
     26 H7        10.1065    2.5215   15.1821 H         1 RES1    0.0000
     27 H8         9.1098    1.3289   15.4876 H         1 RES1    0.0000
     28 H9         8.7608    2.7967   15.9693 H         1 RES1    0.0000
     29 C13        2.5940    3.8867    6.6877 C.3       1 RES1    0.0000
     30 H10        1.7382    3.9189    6.2325 H         1 RES1    0.0000
     31 H11        3.3016    3.7564    6.0370 H         1 RES1    0.0000
     32 H12        2.7401    4.7213    7.1603 H         1 RES1    0.0000
     33 C14        2.7295    1.3919    6.9556 C.3       1 RES1    0.0000
     34 H13        1.9813    1.2787    6.3486 H         1 RES1    0.0000
     35 H14        2.7303    0.6708    7.6043 H         1 RES1    0.0000
     36 H15        3.5586    1.3753    6.4525 H         1 RES1    0.0000
     37 C15        1.0972    4.1745    9.1950 C.3       1 RES1    0.0000
     38 H16        0.6294    4.6411    8.4842 H         1 RES1    0.0000
     39 H17        1.9063    4.6591    9.4221 H         1 RES1    0.0000
     40 H18        0.5252    4.1173    9.9761 H         1 RES1    0.0000
     41 C16        0.2211    1.9902    8.3446 C.3       1 RES1    0.0000
     42 H19       -0.1923    2.4002    7.5697 H         1 RES1    0.0000
     43 H20       -0.4049    1.9956    9.0860 H         1 RES1    0.0000
     44 H21        0.4651    1.0750    8.1349 H         1 RES1    0.0000
@<TRIPOS>BOND
     1    1    7 un
     2    2    8 un
     3    3    4 1
     4    5   24 2
     5    6   17 1
     6    7    9 un
     7    8    9 un
     8    9   12 1
     9   10    7 1
    10   11    8 1
    11   12   13 ar
    12   13   14 1
    13   15   13 ar
    14   16   15 1
    15   17   15 ar
    16   18   17 ar
    17   19   18 1
    18   20   12 ar
    19   21   20 1
    20   22    6 1
    21   23   22 1
    22   24    3 1
    23   25   22 1
    24   26   25 1
    25   27   25 1
    26   28   25 1
    27   29   10 1
    28   30   29 1
    29   31   29 1
    30   32   29 1
    31   33   10 1
    32   34   33 1
    33   35   33 1
    34   36   33 1
    35   37   11 1
    36   38   37 1
    37   39   37 1
    38   40   37 1
    39   41   11 1
    40   42   41 1
    41   43   41 1
    42   44   41 1
    43   10   11 1
    44   18   20 ar
    45   22   24 1
@<TRIPOS>SUBSTRUCTURE
     1 RES1 1

@<TRIPOS>CRYSIN
   8.5129    9.4113   10.4820  85.8470  76.4150  79.5030   2 1

