# MOL2 file generated by ConQuest
# Please check atom types

@<TRIPOS>MOLECULE
HULWOA
    66    46     2
SMALL
NO_CHARGES
****
Generated from CSD

@<TRIPOS>ATOM
      1 O1        -5.1871    2.9647   -3.1182 O.2       1 RES1    0.0000
      2 O2        -4.2684    4.1749   -4.6080 O.2       1 RES1    0.0000
      3 N1        -4.2159    3.4853   -3.6207 N.pl3     1 RES1    0.0000
      4 C1        -2.9311    3.3737   -3.0728 C.ar      1 RES1    0.0000
      5 C2        -2.8838    2.5350   -1.9236 C.ar      1 RES1    0.0000
      6 H1        -3.6399    2.1367   -1.5568 H         1 RES1    0.0000
      7 C3        -1.5051    2.3477   -1.3549 C.ar      1 RES1    0.0000
      8 H2        -1.3685    1.7866   -0.6270 H         1 RES1    0.0000
      9 C4        -0.4471    3.0167   -1.9256 C.ar      1 RES1    0.0000
     10 C5        -0.6150    3.8286   -3.0223 C.ar      1 RES1    0.0000
     11 H3         0.1202    4.2674   -3.3872 H         1 RES1    0.0000
     12 C6        -1.8221    3.9952   -3.5716 C.ar      1 RES1    0.0000
     13 H4        -1.9085    4.5480   -4.3151 H         1 RES1    0.0000
     14 N2         0.9448    2.9563   -1.4886 N.2       1 RES1    0.0000
     15 N3         1.0566    2.2239   -0.5344 N.2       1 RES1    0.0000
     16 C7         2.4184    2.0786   -0.0873 C.ar      1 RES1    0.0000
     17 C8         2.6168    1.3684    0.9744 C.ar      1 RES1    0.0000
     18 H5         1.8822    0.9908    1.3976 H         1 RES1    0.0000
     19 C9         3.7871    1.1697    1.4733 C.ar      1 RES1    0.0000
     20 H6         3.8521    0.6590    2.2497 H         1 RES1    0.0000
     21 C10        4.9249    1.6459    0.9317 C.ar      1 RES1    0.0000
     22 C11        4.7777    2.3225   -0.1902 C.ar      1 RES1    0.0000
     23 H7         5.5366    2.6207   -0.6386 H         1 RES1    0.0000
     24 C12        3.5713    2.5977   -0.7085 C.ar      1 RES1    0.0000
     25 H8         3.4954    3.1260   -1.4694 H         1 RES1    0.0000
     26 C13       -2.9241    3.0893   -2.8068 Du        2 SUP2    0.0000
     27 C14       -2.7781    2.2866   -1.8402 Du        2 SUP2    0.0000
     28 H9        -3.5243    1.7568   -1.6713 Du        2 SUP2    0.0000
     29 C15       -1.8954    2.0947   -1.1317 Du        2 SUP2    0.0000
     30 H10       -2.0002    1.5840   -0.3610 Du        2 SUP2    0.0000
     31 C16       -0.6539    2.6459   -1.4714 Du        2 SUP2    0.0000
     32 C17       -0.5973    3.4975   -2.5176 Du        2 SUP2    0.0000
     33 H11        0.1945    3.9218   -2.7564 Du        2 SUP2    0.0000
     34 C18       -1.8388    3.7231   -3.2552 Du        2 SUP2    0.0000
     35 H12       -1.8675    4.2766   -4.0006 Du        2 SUP2    0.0000
     36 N4         0.4172    2.2728   -0.7473 Du        2 SUP2    0.0000
     37 N5         1.5792    2.7606   -1.1317 Du        2 SUP2    0.0000
     38 C19        2.7255    2.3745   -0.3727 Du        2 SUP2    0.0000
     39 C20        2.6291    1.6131    0.9376 Du        2 SUP2    0.0000
     40 H13        1.8053    1.3853    1.3044 Du        2 SUP2    0.0000
     41 C21        3.9334    1.2232    1.6305 Du        2 SUP2    0.0000
     42 H14        3.9696    0.7851    2.4497 Du        2 SUP2    0.0000
     43 C22        5.0896    1.5978    0.9026 Du        2 SUP2    0.0000
     44 C23        5.1043    2.4540   -0.3397 Du        2 SUP2    0.0000
     45 H15        5.9049    2.7697   -0.6930 Du        2 SUP2    0.0000
     46 C24        3.8757    2.7751   -0.9395 Du        2 SUP2    0.0000
     47 H16        3.8509    3.2560   -1.7334 Du        2 SUP2    0.0000
     48 O3         6.2722    1.3960    1.3456 O.3       1 RES1    0.0000
     49 N6        10.0738    1.2048    3.4717 N.pl3     1 RES1    0.0000
     50 C25        6.4237    0.6605    2.5364 C.3       1 RES1    0.0000
     51 H17        5.9344   -0.1751    2.4730 H         1 RES1    0.0000
     52 H18        6.0698    1.1658    3.2843 H         1 RES1    0.0000
     53 C26        7.8858    0.3830    2.7523 C.3       1 RES1    0.0000
     54 H19        7.9765   -0.1751    3.5406 H         1 RES1    0.0000
     55 H20        8.2137   -0.1277    1.9955 H         1 RES1    0.0000
     56 C27        8.7481    1.5664    2.9206 C.3       1 RES1    0.0000
     57 H21        8.3145    2.1964    3.5173 H         1 RES1    0.0000
     58 H22        8.8665    2.0007    2.0615 H         1 RES1    0.0000
     59 C28       10.4686    1.4464    4.7509 C.2       1 RES1    0.0000
     60 H23        9.9724    1.8929    5.3982 H         1 RES1    0.0000
     61 C29       11.6999    0.9289    4.9213 C.2       1 RES1    0.0000
     62 H24       12.2122    0.9709    5.6971 H         1 RES1    0.0000
     63 C30       12.0654    0.3180    3.7228 C.2       1 RES1    0.0000
     64 H25       12.8595   -0.1346    3.5542 H         1 RES1    0.0000
     65 C31       11.0484    0.5084    2.8534 C.2       1 RES1    0.0000
     66 H26       11.0249    0.2079    1.9741 H         1 RES1    0.0000
@<TRIPOS>BOND
     1    1    3 2
     2    2    3 2
     3    3    4 1
     4    4    5 ar
     5    5    6 1
     6    7    5 ar
     7    8    7 1
     8    9    7 ar
     9   10    9 ar
    10   11   10 1
    11   12    4 ar
    12   13   12 1
    13   14    9 1
    14   15   14 2
    15   16   15 1
    16   17   16 ar
    17   18   17 1
    18   19   17 ar
    19   20   19 1
    20   21   19 ar
    21   22   21 ar
    22   23   22 1
    23   24   16 ar
    24   25   24 1
    25   48   21 1
    26   49   56 1
    27   50   48 1
    28   51   50 1
    29   52   50 1
    30   53   50 1
    31   54   53 1
    32   55   53 1
    33   56   53 1
    34   57   56 1
    35   58   56 1
    36   59   49 1
    37   60   59 1
    38   61   59 2
    39   62   61 1
    40   63   61 1
    41   64   63 1
    42   65   49 1
    43   66   65 1
    44   10   12 ar
    45   22   24 ar
    46   63   65 2
@<TRIPOS>SUBSTRUCTURE
     1 RES1 1
     2 SUP2 26

@<TRIPOS>CRYSIN
  11.8709    7.6449   20.8910  90.0000 111.6960  90.0000  14 1

