# MOL2 file generated by ConQuest
# Please check atom types

@<TRIPOS>MOLECULE
HULWEQ
    44    45     1
SMALL
NO_CHARGES
****
Generated from CSD

@<TRIPOS>ATOM
      1 O1         2.6610    9.0718    5.4671 O.2       1 RES1    0.0000
      2 O2         1.6708    4.7962    6.9343 O.2       1 RES1    0.0000
      3 O3        -3.7646    7.7832   -0.6711 O.3       1 RES1    0.0000
      4 H1        -4.1930    7.3187   -1.4883 H         1 RES1    0.0000
      5 O4        -3.4122    5.6251   -0.2499 O.2       1 RES1    0.0000
      6 O5        -1.9963    6.2134    1.9208 O.3       1 RES1    0.0000
      7 N1         2.6493    7.9976    6.1560 N.pl3     1 RES1    0.0000
      8 N2         2.2229    5.9669    6.8125 N.pl3     1 RES1    0.0000
      9 C1         1.8698    6.8995    5.9144 C.2       1 RES1    0.0000
     10 C2         3.4246    7.8654    7.4378 C.3       1 RES1    0.0000
     11 C3         3.4826    6.3230    7.5489 C.3       1 RES1    0.0000
     12 C4         0.8651    6.7613    4.8761 C.ar      1 RES1    0.0000
     13 C5         0.1575    7.8618    4.3969 C.ar      1 RES1    0.0000
     14 H2         0.3427    8.7157    4.7436 H         1 RES1    0.0000
     15 C6        -0.8064    7.7224    3.4267 C.ar      1 RES1    0.0000
     16 H3        -1.2839    8.4752    3.1286 H         1 RES1    0.0000
     17 C7        -1.0738    6.4814    2.8929 C.ar      1 RES1    0.0000
     18 C8        -0.3476    5.3738    3.3351 C.ar      1 RES1    0.0000
     19 H4        -0.5058    4.5282    2.9572 H         1 RES1    0.0000
     20 C9         0.5950    5.5143    4.3189 C.ar      1 RES1    0.0000
     21 H5         1.0648    4.7592    4.6228 H         1 RES1    0.0000
     22 C10       -2.7716    7.2853    1.3754 C.3       1 RES1    0.0000
     23 H6        -2.1967    8.0750    1.2137 H         1 RES1    0.0000
     24 C11       -3.3320    6.7756    0.0721 C.2       1 RES1    0.0000
     25 C12       -3.9290    7.6569    2.2851 C.3       1 RES1    0.0000
     26 H7        -3.5828    7.9868    3.1306 H         1 RES1    0.0000
     27 H8        -4.4791    6.8745    2.4468 H         1 RES1    0.0000
     28 H9        -4.4639    8.3477    1.8643 H         1 RES1    0.0000
     29 C13        4.7790    8.5478    7.3190 C.3       1 RES1    0.0000
     30 H10        5.3007    8.1131    6.6274 H         1 RES1    0.0000
     31 H11        5.2475    8.4847    8.1664 H         1 RES1    0.0000
     32 H12        4.6511    9.4827    7.0911 H         1 RES1    0.0000
     33 C14        2.5740    8.5276    8.5229 C.3       1 RES1    0.0000
     34 H13        1.7164    8.0774    8.5814 H         1 RES1    0.0000
     35 H14        2.4351    9.4613    8.3009 H         1 RES1    0.0000
     36 H15        3.0314    8.4632    9.3762 H         1 RES1    0.0000
     37 C15        4.6207    5.6954    6.7424 C.3       1 RES1    0.0000
     38 H16        4.6186    6.0610    5.8443 H         1 RES1    0.0000
     39 H17        4.4963    4.7342    6.7015 H         1 RES1    0.0000
     40 H18        5.4679    5.8943    7.1710 H         1 RES1    0.0000
     41 C16        3.4301    5.7930    8.9671 C.3       1 RES1    0.0000
     42 H19        2.6970    6.2146    9.4444 H         1 RES1    0.0000
     43 H20        4.2655    5.9919    9.4191 H         1 RES1    0.0000
     44 H21        3.2933    4.8319    8.9496 H         1 RES1    0.0000
@<TRIPOS>BOND
     1    1    7 un
     2    2    8 un
     3    3    4 1
     4    5   24 2
     5    6   17 1
     6    7    9 un
     7    8    9 un
     8    9   12 1
     9   10    7 1
    10   11    8 1
    11   12   13 ar
    12   13   14 1
    13   15   13 ar
    14   16   15 1
    15   17   15 ar
    16   18   17 ar
    17   19   18 1
    18   20   12 ar
    19   21   20 1
    20   22    6 1
    21   23   22 1
    22   24    3 1
    23   25   22 1
    24   26   25 1
    25   27   25 1
    26   28   25 1
    27   29   10 1
    28   30   29 1
    29   31   29 1
    30   32   29 1
    31   33   10 1
    32   34   33 1
    33   35   33 1
    34   36   33 1
    35   37   11 1
    36   38   37 1
    37   39   37 1
    38   40   37 1
    39   41   11 1
    40   42   41 1
    41   43   41 1
    42   44   41 1
    43   10   11 1
    44   18   20 ar
    45   22   24 1
@<TRIPOS>SUBSTRUCTURE
     1 RES1 1

@<TRIPOS>CRYSIN
   6.9100   11.9100   19.4810  90.0000  90.0000  90.0000  19 1

