# MOL2 file generated by ConQuest
# Please check atom types

@<TRIPOS>MOLECULE
HUMKOP
    86    90     2
SMALL
NO_CHARGES
****
Generated from CSD

@<TRIPOS>ATOM
      1 N1        15.7525    7.9234    0.8082 N.pl3     1 RES1    0.0000
      2 N2        12.4835   10.9962    2.9538 N.pl3     1 RES1    0.0000
      3 N3        12.0326    8.0177    0.7504 N.3       1 RES1    0.0000
      4 O1        16.3087    6.8646    0.8946 O.2       1 RES1    0.0000
      5 O2        16.2131    8.8751    0.1939 O.2       1 RES1    0.0000
      6 O3        11.8572   11.7873    2.2994 O.2       1 RES1    0.0000
      7 O4        12.9282   11.2211    4.0722 O.2       1 RES1    0.0000
      8 O5        11.4827    8.7471    4.1915 O.2       1 RES1    0.0000
      9 O6        15.2201   12.1360    2.0346 O.2       1 RES1    0.0000
     10 C1        14.3778    8.1043    1.4396 C.3       1 RES1    0.0000
     11 C2        13.3826    7.8117    0.2834 C.3       1 RES1    0.0000
     12 H1        13.5652    8.4015   -0.4648 H         1 RES1    0.0000
     13 H2        13.4892    6.8963   -0.0186 H         1 RES1    0.0000
     14 C3        11.8324    9.3958    1.1833 C.3       1 RES1    0.0000
     15 H3        10.9102    9.5369    1.4461 H         1 RES1    0.0000
     16 H4        12.0454   10.0095    0.4634 H         1 RES1    0.0000
     17 C4        12.7635    9.6249    2.3693 C.3       1 RES1    0.0000
     18 C5        12.4411    8.5830    3.4586 C.2       1 RES1    0.0000
     19 C6        13.2766    7.3878    3.4986 C.2       1 RES1    0.0000
     20 H5        13.1669    6.7796    4.1936 H         1 RES1    0.0000
     21 C7        14.1905    7.1477    2.5641 C.2       1 RES1    0.0000
     22 H6        14.7148    6.3812    2.6134 H         1 RES1    0.0000
     23 C8        14.2339    9.5582    1.9117 C.3       1 RES1    0.0000
     24 H7        14.3404   10.1456    1.1340 H         1 RES1    0.0000
     25 C9        11.0613    7.6268   -0.2616 C.3       1 RES1    0.0000
     26 H8        11.2179    6.7151   -0.5219 H         1 RES1    0.0000
     27 H9        11.1503    8.1980   -1.0278 H         1 RES1    0.0000
     28 H10       10.1743    7.7086    0.0969 H         1 RES1    0.0000
     29 C10       15.2775    9.9526    2.9566 C.3       1 RES1    0.0000
     30 H11       14.9541    9.7015    3.8364 H         1 RES1    0.0000
     31 H12       16.0951    9.4583    2.7886 H         1 RES1    0.0000
     32 C11       15.5883   11.4341    2.9510 C.2       1 RES1    0.0000
     33 C12       16.3584   11.9936    4.1049 C.ar      1 RES1    0.0000
     34 C13       16.4089   13.3698    4.2600 C.ar      1 RES1    0.0000
     35 H13       15.9821   13.9258    3.6505 H         1 RES1    0.0000
     36 C14       17.1058   13.9138    5.3369 C.ar      1 RES1    0.0000
     37 H14       17.1209   14.8358    5.4618 H         1 RES1    0.0000
     38 C15       17.7694   13.0927    6.2147 C.ar      1 RES1    0.0000
     39 H15       18.2418   13.4634    6.9251 H         1 RES1    0.0000
     40 C16       17.7449   11.7525    6.0567 C.ar      1 RES1    0.0000
     41 H16       18.2047   11.2062    6.6516 H         1 RES1    0.0000
     42 C17       17.0285   11.1843    5.0008 C.ar      1 RES1    0.0000
     43 H17       17.0031   10.2599    4.9014 H         1 RES1    0.0000
     44 N4        10.3389    4.6895    3.5389 N.pl3     2 RES2    0.0000
     45 N5         5.8374    6.3263    4.9166 N.pl3     2 RES2    0.0000
     46 N6         7.4283    2.9415    5.0674 N.3       2 RES2    0.0000
     47 O7        10.8699    4.4803    2.4806 O.2       2 RES2    0.0000
     48 O8        10.9348    5.1490    4.4964 O.2       2 RES2    0.0000
     49 O9         5.3848    6.3236    6.0235 O.2       2 RES2    0.0000
     50 O10        5.6515    7.2215    4.1277 O.2       2 RES2    0.0000
     51 O11        4.8521    4.5350    3.1445 O.2       2 RES2    0.0000
     52 O12        8.3667    8.2437    5.1683 O.2       2 RES2    0.0000
     53 C18        8.8656    4.3718    3.7329 C.3       2 RES2    0.0000
     54 C19        8.8111    3.2606    4.8020 C.3       2 RES2    0.0000
     55 H18        9.2774    2.4719    4.4844 H         2 RES2    0.0000
     56 H19        9.2432    3.5635    5.6158 H         2 RES2    0.0000
     57 C20        6.7095    4.0972    5.5849 C.3       2 RES2    0.0000
     58 H20        7.1401    4.4291    6.3886 H         2 RES2    0.0000
     59 H21        5.7955    3.8538    5.8030 H         2 RES2    0.0000
     60 C21        6.7241    5.1729    4.4934 C.3       2 RES2    0.0000
     61 C22        6.0555    4.5656    3.2269 C.2       2 RES2    0.0000
     62 C23        6.9521    4.0048    2.2506 C.2       2 RES2    0.0000
     63 H22        6.5981    3.7020    1.4448 H         2 RES2    0.0000
     64 C24        8.2496    3.8993    2.4462 C.2       2 RES2    0.0000
     65 H23        8.7881    3.5305    1.7834 H         2 RES2    0.0000
     66 C25        8.1599    5.6429    4.2320 C.3       2 RES2    0.0000
     67 H24        8.5587    5.8937    5.0913 H         2 RES2    0.0000
     68 C26        7.3115    1.7894    5.9446 C.3       2 RES2    0.0000
     69 H25        7.7992    1.0522    5.5706 H         2 RES2    0.0000
     70 H26        6.3869    1.5479    6.0354 H         2 RES2    0.0000
     71 H27        7.6717    2.0064    6.8083 H         2 RES2    0.0000
     72 C27        8.3303    6.8131    3.2731 C.3       2 RES2    0.0000
     73 H28        9.1795    6.7227    2.8125 H         2 RES2    0.0000
     74 H29        7.6271    6.7789    2.6054 H         2 RES2    0.0000
     75 C28        8.2872    8.1604    3.9636 C.2       2 RES2    0.0000
     76 C29        8.1922    9.3804    3.1173 C.ar      2 RES2    0.0000
     77 C30        8.6738   10.5821    3.6337 C.ar      2 RES2    0.0000
     78 H30        9.0671   10.5931    4.4764 H         2 RES2    0.0000
     79 C31        8.5760   11.7383    2.9254 C.ar      2 RES2    0.0000
     80 H31        8.9186   12.5299    3.2733 H         2 RES2    0.0000
     81 C32        7.9696   11.7346    1.6918 C.ar      2 RES2    0.0000
     82 H32        7.8920   12.5283    1.2124 H         2 RES2    0.0000
     83 C33        7.4769   10.5613    1.1580 C.ar      2 RES2    0.0000
     84 H33        7.0605   10.5653    0.3253 H         2 RES2    0.0000
     85 C34        7.5996    9.3863    1.8584 C.ar      2 RES2    0.0000
     86 H34        7.2865    8.5923    1.4899 H         2 RES2    0.0000
@<TRIPOS>BOND
     1    1    4 2
     2    2    6 2
     3    3   11 1
     4    5    1 2
     5    7    2 2
     6    8   18 2
     7    9   32 2
     8   10    1 1
     9   11   10 1
    10   12   11 1
    11   13   11 1
    12   14    3 1
    13   15   14 1
    14   16   14 1
    15   17    2 1
    16   18   17 1
    17   19   18 1
    18   20   19 1
    19   21   10 1
    20   22   21 1
    21   23   10 1
    22   24   23 1
    23   25    3 1
    24   26   25 1
    25   27   25 1
    26   28   25 1
    27   29   23 1
    28   30   29 1
    29   31   29 1
    30   32   29 1
    31   33   32 1
    32   34   33 ar
    33   35   34 1
    34   36   34 ar
    35   37   36 1
    36   38   36 ar
    37   39   38 1
    38   40   38 ar
    39   41   40 1
    40   42   33 ar
    41   43   42 1
    42   44   47 2
    43   45   49 2
    44   46   54 1
    45   48   44 2
    46   50   45 2
    47   51   61 2
    48   52   75 2
    49   53   44 1
    50   54   53 1
    51   55   54 1
    52   56   54 1
    53   57   46 1
    54   58   57 1
    55   59   57 1
    56   60   45 1
    57   61   60 1
    58   62   61 1
    59   63   62 1
    60   64   53 1
    61   65   64 1
    62   66   53 1
    63   67   66 1
    64   68   46 1
    65   69   68 1
    66   70   68 1
    67   71   68 1
    68   72   66 1
    69   73   72 1
    70   74   72 1
    71   75   72 1
    72   76   75 1
    73   77   76 ar
    74   78   77 1
    75   79   77 ar
    76   80   79 1
    77   81   79 ar
    78   82   81 1
    79   83   81 ar
    80   84   83 1
    81   85   76 ar
    82   86   85 1
    83   14   17 1
    84   17   23 1
    85   19   21 2
    86   40   42 ar
    87   57   60 1
    88   60   66 1
    89   62   64 2
    90   83   85 ar
@<TRIPOS>SUBSTRUCTURE
     1 RES1 1
     2 RES2 44

@<TRIPOS>CRYSIN
  11.3740   11.6690   13.7150  84.5600  75.6400  75.0700   2 1

