# MOL2 file generated by ConQuest
# Please check atom types

@<TRIPOS>MOLECULE
HUMPOU
    39    38     1
SMALL
NO_CHARGES
****
Generated from CSD

@<TRIPOS>ATOM
      1 C1         2.3098    7.8894   11.8400 C.3       1 RES1    0.0000
      2 H1         3.1175    8.4228   11.9946 H         1 RES1    0.0000
      3 H2         1.5259    8.3824   12.1603 H         1 RES1    0.0000
      4 H3         2.2143    7.7128   10.8807 H         1 RES1    0.0000
      5 O1         2.4154    6.6421   12.5484 O.3       1 RES1    0.0000
      6 N1         3.5508    5.9425   12.1085 N.am      1 RES1    0.0000
      7 C2         4.7448    6.1833   12.9010 C.3       1 RES1    0.0000
      8 H4         4.5578    5.9845   13.8427 H         1 RES1    0.0000
      9 H5         5.0114    7.1219   12.8127 H         1 RES1    0.0000
     10 H6         5.4697    5.6064   12.5840 H         1 RES1    0.0000
     11 C3         3.3562    4.8203   11.3701 C.2       1 RES1    0.0000
     12 O2         4.3015    4.1009   11.0796 O.2       1 RES1    0.0000
     13 C4         1.9115    4.5052   10.9764 C.3       1 RES1    0.0000
     14 H7         1.4311    5.3651   10.8031 H         1 RES1    0.0000
     15 C5         1.2204    3.7806   12.1358 C.3       1 RES1    0.0000
     16 H8         1.1426    4.4059   12.8987 H         1 RES1    0.0000
     17 H9         0.3031    3.5354   11.8540 H         1 RES1    0.0000
     18 C6         1.9384    2.5239   12.6063 C.3       1 RES1    0.0000
     19 H10        1.4404    2.1212   13.3476 H         1 RES1    0.0000
     20 H11        2.8416    2.7574   12.9071 H         1 RES1    0.0000
     21 H12        1.9967    1.8839   11.8666 H         1 RES1    0.0000
     22 N2         1.8655    3.6974    9.7752 N.am      1 RES1    0.0000
     23 H13        1.5849    2.8913    9.7794 H         1 RES1    0.0000
     24 C7         2.1133    4.2635    8.5810 C.2       1 RES1    0.0000
     25 O3         2.4553    5.4274    8.4315 O.2       1 RES1    0.0000
     26 O4         1.9370    3.3727    7.5861 O.3       1 RES1    0.0000
     27 C8         1.8627    3.8083    6.1804 C.3       1 RES1    0.0000
     28 C9         0.8017    4.8533    5.9979 C.3       1 RES1    0.0000
     29 H14       -0.0550    4.5093    6.3245 H         1 RES1    0.0000
     30 H15        0.7235    5.0765    5.0470 H         1 RES1    0.0000
     31 H16        1.0451    5.6576    6.5028 H         1 RES1    0.0000
     32 C10        3.2010    4.2769    5.6984 C.3       1 RES1    0.0000
     33 H17        3.8635    3.5669    5.8337 H         1 RES1    0.0000
     34 H18        3.4689    5.0736    6.2008 H         1 RES1    0.0000
     35 H19        3.1466    4.4945    4.7450 H         1 RES1    0.0000
     36 C11        1.4198    2.5307    5.4882 C.3       1 RES1    0.0000
     37 H20        0.5398    2.2640    5.8253 H         1 RES1    0.0000
     38 H21        2.0684    1.8189    5.6701 H         1 RES1    0.0000
     39 H22        1.3654    2.6845    4.5226 H         1 RES1    0.0000
@<TRIPOS>BOND
     1    1    2 1
     2    3    1 1
     3    4    1 1
     4    5    1 1
     5    6    5 1
     6    7    6 1
     7    8    7 1
     8    9    7 1
     9   10    7 1
    10   11    6 1
    11   12   11 2
    12   13   11 1
    13   14   13 1
    14   15   13 1
    15   16   15 1
    16   17   15 1
    17   18   15 1
    18   19   18 1
    19   20   18 1
    20   21   18 1
    21   22   13 1
    22   23   22 1
    23   24   22 1
    24   25   24 2
    25   26   24 1
    26   27   26 1
    27   28   27 1
    28   29   28 1
    29   30   28 1
    30   31   28 1
    31   32   27 1
    32   33   32 1
    33   34   32 1
    34   35   32 1
    35   36   27 1
    36   37   36 1
    37   38   36 1
    38   39   36 1
@<TRIPOS>SUBSTRUCTURE
     1 RES1 1

@<TRIPOS>CRYSIN
   6.6315    9.8478   20.9769  90.0000  90.0000  90.0000  19 1

