# MOL2 file generated by ConQuest
# Please check atom types

@<TRIPOS>MOLECULE
HUMYUL
    32    35     1
SMALL
NO_CHARGES
****
Generated from CSD

@<TRIPOS>ATOM
      1 N1         0.5827    0.7982    5.8501 N.3       1 RES1    0.0000
      2 C1         1.0644    2.1019    6.3335 C.3       1 RES1    0.0000
      3 H1         2.0067    2.1054    6.0271 H         1 RES1    0.0000
      4 C2         0.3191    3.2971    5.7614 C.3       1 RES1    0.0000
      5 H2         0.7368    4.1180    6.0656 H         1 RES1    0.0000
      6 H3        -0.5981    3.2900    6.0767 H         1 RES1    0.0000
      7 C3         0.3374    3.2468    4.2356 C.3       1 RES1    0.0000
      8 H4        -0.1648    3.9947    3.8765 H         1 RES1    0.0000
      9 H5         1.2511    3.3141    3.9159 H         1 RES1    0.0000
     10 C4        -0.2764    1.9410    3.7622 C.3       1 RES1    0.0000
     11 H6        -0.2250    1.8871    2.7951 H         1 RES1    0.0000
     12 H7        -1.2109    1.9076    4.0181 H         1 RES1    0.0000
     13 C5         0.4676    0.7642    4.3824 C.3       1 RES1    0.0000
     14 H8         0.0130   -0.0546    4.1284 H         1 RES1    0.0000
     15 H9         1.3602    0.7309    4.0049 H         1 RES1    0.0000
     16 O1        -0.7830    0.6182    6.3323 O.3       1 RES1    0.0000
     17 C6        -0.7264    0.4523    7.7701 C.3       1 RES1    0.0000
     18 H10       -1.6217    0.2098    8.0878 H         1 RES1    0.0000
     19 C7        -0.3401    1.8006    8.3973 C.3       1 RES1    0.0000
     20 H11       -0.9430    2.5038    8.1090 H         1 RES1    0.0000
     21 H12       -0.3522    1.7510    9.3654 H         1 RES1    0.0000
     22 C8         1.0640    2.0430    7.8821 C.3       1 RES1    0.0000
     23 O2         1.6501    3.2808    8.3557 O.3       1 RES1    0.0000
     24 O3         3.4999    3.8961    9.4491 O.2       1 RES1    0.0000
     25 C9         2.8329    3.0022    9.0033 C.2       1 RES1    0.0000
     26 C10        3.0049    1.5560    9.0508 C.2       1 RES1    0.0000
     27 H13        3.7240    1.1087    9.4352 H         1 RES1    0.0000
     28 C11        1.9573    0.9776    8.4497 C.2       1 RES1    0.0000
     29 C12        1.5014   -0.3885    8.4276 C.2       1 RES1    0.0000
     30 H14        2.0917   -1.0846    8.6077 H         1 RES1    0.0000
     31 C13        0.2191   -0.6451    8.1434 C.2       1 RES1    0.0000
     32 H15       -0.0905   -1.5220    8.1798 H         1 RES1    0.0000
@<TRIPOS>BOND
     1    1    2 1
     2    2    3 1
     3    4    2 1
     4    5    4 1
     5    6    4 1
     6    7    4 1
     7    8    7 1
     8    9    7 1
     9   10    7 1
    10   11   10 1
    11   12   10 1
    12   13    1 1
    13   14   13 1
    14   15   13 1
    15   16    1 1
    16   17   16 1
    17   18   17 1
    18   19   17 1
    19   20   19 1
    20   21   19 1
    21   22    2 1
    22   23   22 1
    23   24   25 2
    24   25   23 1
    25   26   25 1
    26   27   26 1
    27   28   22 1
    28   29   28 1
    29   30   29 1
    30   31   17 1
    31   32   31 1
    32   10   13 1
    33   19   22 1
    34   26   28 2
    35   29   31 2
@<TRIPOS>SUBSTRUCTURE
     1 RES1 1

@<TRIPOS>CRYSIN
   8.0910    7.0890   10.7100  90.0000 109.1710  90.0000   4 1

