# MOL2 file generated by ConQuest
# Please check atom types

@<TRIPOS>MOLECULE
HUNGIG
    35    36     2
SMALL
NO_CHARGES
****
Generated from CSD

@<TRIPOS>ATOM
      1 O1         0.8712   10.2405   12.6492 O.2       1 RES1    0.0000
      2 O2         3.5091   13.1301   15.3328 O.2       1 RES1    0.0000
      3 N1        -0.1443   16.1780   10.4692 N.pl3     1 RES1    0.0000
      4 N2         2.0757   11.4037   14.1473 N.am      1 RES1    0.0000
      5 N3         2.5010   10.2332   14.7305 N.pl3     1 RES1    0.0000
      6 N4         3.5694   12.3939   18.7367 N.2       1 RES1    0.0000
      7 N5         3.7023   13.2369   17.6320 N.am      1 RES1    0.0000
      8 C1         1.7720   13.7080   12.4569 C.ar      1 RES1    0.0000
      9 C2         1.4264   14.8712   11.8033 C.ar      1 RES1    0.0000
     10 C3         0.2307   14.9228   11.1408 C.ar      1 RES1    0.0000
     11 C4        -0.6234   13.8590   11.0908 C.ar      1 RES1    0.0000
     12 C5        -0.2606   12.6958   11.7264 C.ar      1 RES1    0.0000
     13 C6         0.9388   12.6093   12.4172 C.ar      1 RES1    0.0000
     14 C7         1.2899   11.3136   13.0657 C.2       1 RES1    0.0000
     15 C8         2.9462   10.1283   15.9710 C.2       1 RES1    0.0000
     16 C9         3.1597    8.7240   16.4119 C.ar      1 RES1    0.0000
     17 C10        2.1213    7.8184   16.3132 C.ar      1 RES1    0.0000
     18 C11        2.2928    6.5264   16.7720 C.ar      1 RES1    0.0000
     19 C12        3.4960    6.1491   17.3128 C.ar      1 RES1    0.0000
     20 C13        4.5369    7.0381   17.3808 C.ar      1 RES1    0.0000
     21 C14        4.3662    8.3283   16.9361 C.ar      1 RES1    0.0000
     22 C15        3.4596   12.5798   16.4555 C.2       1 RES1    0.0000
     23 C16        3.1928   11.2160   16.8258 C.2       1 RES1    0.0000
     24 C17        3.2955   11.2050   18.2586 C.2       1 RES1    0.0000
     25 C18        3.0061   10.1080   19.2326 C.3       1 RES1    0.0000
     26 C19        3.9395   14.6228   17.8498 C.ar      1 RES1    0.0000
     27 C20        4.0856   15.4970   16.7810 C.ar      1 RES1    0.0000
     28 C21        4.2696   16.8498   17.0271 C.ar      1 RES1    0.0000
     29 C22        4.2939   17.3246   18.3048 C.ar      1 RES1    0.0000
     30 C23        4.1959   16.4485   19.3621 C.ar      1 RES1    0.0000
     31 C24        4.0258   15.0976   19.1429 C.ar      1 RES1    0.0000
     32 O3        -1.1330   16.1927    9.7682 O.2       1 RES1    0.0000
     33 O4         0.5885   17.1332   10.5538 O.2       1 RES1    0.0000
     34 O5         0.7361   16.9657   10.2219 Du        2 SUP2    0.0000
     35 O6        -1.3176   16.3252   10.2091 Du        2 SUP2    0.0000
@<TRIPOS>BOND
     1    1   14 2
     2    2   22 2
     3    3   10 1
     4    4    5 1
     5    5   15 1
     6    6    7 1
     7    7   22 1
     8    8    9 ar
     9    9   10 ar
    10   10   11 ar
    11   11   12 ar
    12   12   13 ar
    13   13    8 ar
    14   14    4 1
    15   15   16 1
    16   16   17 ar
    17   17   18 ar
    18   18   19 ar
    19   19   20 ar
    20   20   21 ar
    21   21   16 ar
    22   22   23 1
    23   23   15 2
    24   24    6 2
    25   25   24 1
    26   26    7 1
    27   27   26 ar
    28   28   27 ar
    29   29   28 ar
    30   30   29 ar
    31   31   26 ar
    32   32    3 2
    33   33    3 2
    34   13   14 1
    35   23   24 1
    36   30   31 ar
@<TRIPOS>SUBSTRUCTURE
     1 RES1 1
     2 SUP2 34

@<TRIPOS>CRYSIN
   9.1510   18.4050   13.0610  90.0000 101.1200  90.0000  14 1

