# MOL2 file generated by ConQuest
# Please check atom types

@<TRIPOS>MOLECULE
HUQLOU
    78    82     1
SMALL
NO_CHARGES
****
Generated from CSD

@<TRIPOS>ATOM
      1 C1        -2.1780    3.7700    5.3519 C.2       1 RES1    0.0000
      2 O1        -2.4089    4.8525    4.8974 O.2       1 RES1    0.0000
      3 C2        -2.3874    3.2714    6.7421 C.3       1 RES1    0.0000
      4 C3        -2.1066    1.7942    6.6771 C.3       1 RES1    0.0000
      5 C4        -1.3681    1.5931    5.3474 C.3       1 RES1    0.0000
      6 O2        -1.6373    2.8002    4.5870 O.3       1 RES1    0.0000
      7 C5         0.1367    1.3941    5.4401 C.3       1 RES1    0.0000
      8 C6         0.8613    2.5000    6.2016 C.3       1 RES1    0.0000
      9 C7         2.3178    2.1622    6.3671 C.2       1 RES1    0.0000
     10 C8         2.9689    1.4517    5.1962 C.3       1 RES1    0.0000
     11 C9         2.1772    1.7359    3.9137 C.3       1 RES1    0.0000
     12 C10        0.7314    1.1943    4.0292 C.3       1 RES1    0.0000
     13 C11        2.8950    1.1930    2.6918 C.3       1 RES1    0.0000
     14 C12        4.3490    1.5945    2.6323 C.3       1 RES1    0.0000
     15 C13        5.1399    1.1582    3.8740 C.3       1 RES1    0.0000
     16 C14        4.4696    1.7647    5.1169 C.3       1 RES1    0.0000
     17 C15        4.8515    3.2352    5.0392 C.3       1 RES1    0.0000
     18 C16        6.3237    3.1883    4.6063 C.3       1 RES1    0.0000
     19 C17        6.5207    1.8666    3.8282 C.3       1 RES1    0.0000
     20 C18        5.1859   -0.3566    3.9387 C.3       1 RES1    0.0000
     21 C19        0.6655   -0.2728    3.6649 C.2       1 RES1    0.0000
     22 C20        7.6845    1.1032    4.4230 C.3       1 RES1    0.0000
     23 O3         8.0700    0.0732    3.4780 O.3       1 RES1    0.0000
     24 C21        8.8971   -0.8626    3.9416 C.2       1 RES1    0.0000
     25 O4         9.3747   -0.8505    5.0380 O.2       1 RES1    0.0000
     26 C22        9.1106   -1.9571    2.9521 C.ar      1 RES1    0.0000
     27 C23        9.9738   -2.9839    3.2961 C.ar      1 RES1    0.0000
     28 C24       10.1512   -4.0609    2.4537 C.ar      1 RES1    0.0000
     29 C25        9.4353   -4.0924    1.2774 C.ar      1 RES1    0.0000
     30 C26        8.5666   -3.0898    0.9100 C.ar      1 RES1    0.0000
     31 C27        8.4203   -2.0073    1.7526 C.ar      1 RES1    0.0000
     32 N1         9.5737   -5.2546    0.3938 N.pl3     1 RES1    0.0000
     33 O5        10.3132   -6.1500    0.7459 O.2       1 RES1    0.0000
     34 O6         8.9265   -5.2700   -0.6374 O.2       1 RES1    0.0000
     35 O7         1.1560   -1.1651    4.3005 O.2       1 RES1    0.0000
     36 O8         0.0046   -0.4562    2.5326 O.3       1 RES1    0.0000
     37 C28       -0.1057   -1.8237    2.0653 C.3       1 RES1    0.0000
     38 O9         2.9230    2.4189    7.3809 O.2       1 RES1    0.0000
     39 O10        2.2205    1.7629    1.5416 O.3       1 RES1    0.0000
     40 C29        2.1667    1.0020    0.4354 C.2       1 RES1    0.0000
     41 O11        2.5045   -0.1461    0.4078 O.2       1 RES1    0.0000
     42 C30        1.6495    1.7707   -0.7240 C.3       1 RES1    0.0000
     43 O12        5.1111    1.1925    6.2627 O.3       1 RES1    0.0000
     44 H1        -3.3265    3.5187    6.9810 H         1 RES1    0.0000
     45 H2        -1.7646    3.7667    7.3010 H         1 RES1    0.0000
     46 H3        -2.9734    1.3137    6.6893 H         1 RES1    0.0000
     47 H4        -1.5713    1.5080    7.4200 H         1 RES1    0.0000
     48 H5        -1.7547    0.8378    4.8425 H         1 RES1    0.0000
     49 H6         0.2730    0.5563    5.8887 H         1 RES1    0.0000
     50 H7         0.8252    3.3646    5.7161 H         1 RES1    0.0000
     51 H8         0.5122    2.6273    7.0792 H         1 RES1    0.0000
     52 H9         2.8608    0.5563    5.4348 H         1 RES1    0.0000
     53 H10        2.1080    2.6876    3.8112 H         1 RES1    0.0000
     54 H11        0.2205    1.6555    3.4481 H         1 RES1    0.0000
     55 H12        2.7919    0.2413    2.6653 H         1 RES1    0.0000
     56 H13        4.3723    2.5737    2.5150 H         1 RES1    0.0000
     57 H14        4.7398    1.1863    1.8677 H         1 RES1    0.0000
     58 H15        4.3004    3.6930    4.4199 H         1 RES1    0.0000
     59 H16        4.7610    3.6662    5.8753 H         1 RES1    0.0000
     60 H17        6.6071    3.9141    4.1118 H         1 RES1    0.0000
     61 H18        6.8749    3.1300    5.4006 H         1 RES1    0.0000
     62 H19        6.7474    2.0375    2.9421 H         1 RES1    0.0000
     63 H20        5.7149   -0.6568    4.6624 H         1 RES1    0.0000
     64 H21        5.5323   -0.7507    3.1222 H         1 RES1    0.0000
     65 H22        4.2453   -0.7373    4.0701 H         1 RES1    0.0000
     66 H23        8.4706    1.6957    4.5330 H         1 RES1    0.0000
     67 H24        7.4543    0.6903    5.2443 H         1 RES1    0.0000
     68 H25       10.4429   -2.9624    4.1445 H         1 RES1    0.0000
     69 H26       10.7244   -4.7787    2.5849 H         1 RES1    0.0000
     70 H27        8.1511   -3.1635    0.1518 H         1 RES1    0.0000
     71 H28        7.8138   -1.3271    1.4986 H         1 RES1    0.0000
     72 H29        0.8114   -2.1380    1.8319 H         1 RES1    0.0000
     73 H30       -0.6450   -1.8163    1.3021 H         1 RES1    0.0000
     74 H31       -0.4759   -2.3525    2.7710 H         1 RES1    0.0000
     75 H32        0.9860    1.2734   -1.1905 H         1 RES1    0.0000
     76 H33        2.3402    1.9102   -1.2798 H         1 RES1    0.0000
     77 H34        1.3225    2.6273   -0.4539 H         1 RES1    0.0000
     78 H35        4.7060    1.5147    6.9572 H         1 RES1    0.0000
@<TRIPOS>BOND
     1    1    2 2
     2    3    1 1
     3    4    3 1
     4    5    4 1
     5    6    1 1
     6    7    5 1
     7    8    7 1
     8    9    8 1
     9   10    9 1
    10   11   10 1
    11   12    7 1
    12   13   11 1
    13   14   13 1
    14   15   14 1
    15   16   10 1
    16   17   16 1
    17   18   17 1
    18   19   15 1
    19   20   15 1
    20   21   12 1
    21   22   19 1
    22   23   22 1
    23   24   23 1
    24   25   24 2
    25   26   24 1
    26   27   26 ar
    27   28   27 ar
    28   29   28 ar
    29   30   29 ar
    30   31   26 ar
    31   32   29 1
    32   33   32 2
    33   34   32 2
    34   35   21 2
    35   36   21 1
    36   37   36 1
    37   38    9 2
    38   39   13 1
    39   40   39 1
    40   41   40 2
    41   42   40 1
    42   43   16 1
    43   44    3 1
    44   45    3 1
    45   46    4 1
    46   47    4 1
    47   48    5 1
    48   49    7 1
    49   50    8 1
    50   51    8 1
    51   52   10 1
    52   53   11 1
    53   54   12 1
    54   55   13 1
    55   56   14 1
    56   57   14 1
    57   58   17 1
    58   59   17 1
    59   60   18 1
    60   61   18 1
    61   62   19 1
    62   63   20 1
    63   64   20 1
    64   65   20 1
    65   66   22 1
    66   67   22 1
    67   68   27 1
    68   69   28 1
    69   70   30 1
    70   71   31 1
    71   72   37 1
    72   73   37 1
    73   74   37 1
    74   75   42 1
    75   76   42 1
    76   77   42 1
    77   78   43 1
    78    5    6 1
    79   11   12 1
    80   15   16 1
    81   18   19 1
    82   30   31 ar
@<TRIPOS>SUBSTRUCTURE
     1 RES1 1

@<TRIPOS>CRYSIN
  28.6250    6.7023   17.4460  90.0000 121.4590  90.0000   5 1

