# MOL2 file generated by ConQuest
# Please check atom types

@<TRIPOS>MOLECULE
HUQQEQ
    45    47     1
SMALL
NO_CHARGES
****
Generated from CSD

@<TRIPOS>ATOM
      1 O1         4.2660    0.8878    5.2810 O.2       1 RES1    0.0000
      2 O2         1.1393    3.5964    7.1098 O.2       1 RES1    0.0000
      3 O3         0.2508    1.9412    3.0102 O.2       1 RES1    0.0000
      4 O4         1.0371    2.9679   -0.9646 O.2       1 RES1    0.0000
      5 O5         1.1470    1.5622   -2.6055 O.2       1 RES1    0.0000
      6 O6         3.1724   -4.3993    3.9420 O.3       1 RES1    0.0000
      7 N1         2.6957    2.2314    6.2051 N.am      1 RES1    0.0000
      8 N2         0.6399    2.6390    5.1115 N.am      1 RES1    0.0000
      9 N3         1.2291    1.8364   -1.4091 N.pl3     1 RES1    0.0000
     10 N4         2.6269   -2.2524    2.1751 N.3       1 RES1    0.0000
     11 C1         1.4707    2.8655    6.1945 C.2       1 RES1    0.0000
     12 C2         1.0085    1.9611    3.9647 C.2       1 RES1    0.0000
     13 C3         2.3089    1.2717    3.9983 C.2       1 RES1    0.0000
     14 C4         3.1792    1.4224    5.1899 C.2       1 RES1    0.0000
     15 C5         3.5792    2.5382    7.3426 C.3       1 RES1    0.0000
     16 H1         3.1033    2.3645    8.1804 H         1 RES1    0.0000
     17 H2         3.8437    3.4808    7.3064 H         1 RES1    0.0000
     18 H3         4.3784    1.9732    7.2984 H         1 RES1    0.0000
     19 C6        -0.6794    3.2865    5.0988 C.3       1 RES1    0.0000
     20 H4        -1.3601    2.6350    4.8283 H         1 RES1    0.0000
     21 H5        -0.6707    4.0329    4.4632 H         1 RES1    0.0000
     22 H6        -0.8870    3.6229    5.9954 H         1 RES1    0.0000
     23 C7         2.7379    0.4206    3.0451 C.2       1 RES1    0.0000
     24 H7         3.5339   -0.0471    3.2695 H         1 RES1    0.0000
     25 C8         2.1947    0.0883    1.7277 C.ar      1 RES1    0.0000
     26 C9         1.8402    1.0871    0.8324 C.ar      1 RES1    0.0000
     27 H8         1.7819    1.9895    1.1245 H         1 RES1    0.0000
     28 C10        1.5727    0.7653   -0.4839 C.ar      1 RES1    0.0000
     29 C11        1.6186   -0.5410   -0.9465 C.ar      1 RES1    0.0000
     30 H9         1.4347   -0.7396   -1.8572 H         1 RES1    0.0000
     31 C12        1.9348   -1.5444   -0.0594 C.ar      1 RES1    0.0000
     32 H10        1.9468   -2.4449   -0.3597 H         1 RES1    0.0000
     33 C13        2.2406   -1.2605    1.2804 C.ar      1 RES1    0.0000
     34 C14        3.0035   -3.5656    1.6579 C.3       1 RES1    0.0000
     35 H11        3.5198   -3.4628    0.8207 H         1 RES1    0.0000
     36 H12        2.1911   -4.0963    1.4602 H         1 RES1    0.0000
     37 C15        3.8443   -4.2778    2.6971 C.3       1 RES1    0.0000
     38 H13        4.0763   -5.1809    2.3635 H         1 RES1    0.0000
     39 H14        4.6877   -3.7770    2.8298 H         1 RES1    0.0000
     40 C16        2.8018   -3.1105    4.4321 C.3       1 RES1    0.0000
     41 H15        3.6153   -2.5682    4.5858 H         1 RES1    0.0000
     42 H16        2.3308   -3.2086    5.2973 H         1 RES1    0.0000
     43 C17        1.9058   -2.4065    3.4499 C.3       1 RES1    0.0000
     44 H17        1.0801   -2.9338    3.3095 H         1 RES1    0.0000
     45 H18        1.6515   -1.5170    3.8024 H         1 RES1    0.0000
@<TRIPOS>BOND
     1    1   14 2
     2    2   11 2
     3    3   12 2
     4    4    9 2
     5    5    9 2
     6    6   37 1
     7    7   11 1
     8    8   11 1
     9    9   28 1
    10   10   33 1
    11   12    8 1
    12   13   12 1
    13   14    7 1
    14   15    7 1
    15   16   15 1
    16   17   15 1
    17   18   15 1
    18   19    8 1
    19   20   19 1
    20   21   19 1
    21   22   19 1
    22   23   13 2
    23   24   23 1
    24   25   23 1
    25   26   25 ar
    26   27   26 1
    27   28   26 ar
    28   29   28 ar
    29   30   29 1
    30   31   29 ar
    31   32   31 1
    32   33   25 ar
    33   34   10 1
    34   35   34 1
    35   36   34 1
    36   37   34 1
    37   38   37 1
    38   39   37 1
    39   40    6 1
    40   41   40 1
    41   42   40 1
    42   43   10 1
    43   44   43 1
    44   45   43 1
    45   13   14 1
    46   31   33 ar
    47   40   43 1
@<TRIPOS>SUBSTRUCTURE
     1 RES1 1

@<TRIPOS>CRYSIN
   7.3557    8.5607   26.7570  90.0000  95.2150  90.0000 231 1

