# MOL2 file generated by ConQuest
# Please check atom types

@<TRIPOS>MOLECULE
HUQQIU
    42    45     1
SMALL
NO_CHARGES
****
Generated from CSD

@<TRIPOS>ATOM
      1 O1         1.3169    5.2929    0.9311 O.2       1 RES1    0.0000
      2 O2         0.7840    9.7442    0.9641 O.2       1 RES1    0.0000
      3 O3         4.0208    7.6995   -1.8115 O.2       1 RES1    0.0000
      4 O4         0.6241   10.0667   -3.5388 O.3       1 RES1    0.0000
      5 O5         3.2520   14.6011    3.7971 O.2       1 RES1    0.0000
      6 O6         4.7310   13.0231    4.0351 O.2       1 RES1    0.0000
      7 N1         2.6949    6.4811   -0.4401 N.am      1 RES1    0.0000
      8 N2         1.1353    7.5379    0.9558 N.am      1 RES1    0.0000
      9 H1         0.5872    7.4708    1.6898 H         1 RES1    0.0000
     10 N3         3.8194   13.5726    3.4044 N.pl3     1 RES1    0.0000
     11 N4         2.0065   11.2727   -1.3513 N.pl3     1 RES1    0.0000
     12 C1         1.6955    6.3706    0.5121 C.2       1 RES1    0.0000
     13 C2         1.4188    8.8126    0.5252 C.2       1 RES1    0.0000
     14 C3         2.5638    8.9871   -0.4425 C.3       1 RES1    0.0000
     15 C4         3.1614    7.6771   -0.9722 C.2       1 RES1    0.0000
     16 C5         3.3108    5.2328   -0.9024 C.3       1 RES1    0.0000
     17 H2         3.5862    4.6978   -0.1284 H         1 RES1    0.0000
     18 H3         4.0960    5.4394   -1.4521 H         1 RES1    0.0000
     19 H4         2.6635    4.7267   -1.4357 H         1 RES1    0.0000
     20 C6         0.9696    9.3161   -2.3759 C.3       1 RES1    0.0000
     21 H5         1.1273    8.3735   -2.6351 H         1 RES1    0.0000
     22 H6         0.2093    9.3330   -1.7430 H         1 RES1    0.0000
     23 C7         0.3731   11.4350   -3.1610 C.3       1 RES1    0.0000
     24 H7        -0.3783   11.4698   -2.5176 H         1 RES1    0.0000
     25 H8         0.1177   11.9588   -3.9615 H         1 RES1    0.0000
     26 C8         1.6052   12.0365   -2.5340 C.3       1 RES1    0.0000
     27 H9         2.3436   12.0388   -3.1924 H         1 RES1    0.0000
     28 H10        1.4205   12.9739   -2.2758 H         1 RES1    0.0000
     29 C9         2.2101    9.8546   -1.6773 C.3       1 RES1    0.0000
     30 H11        2.9722    9.7953   -2.3209 H         1 RES1    0.0000
     31 C10        3.7037    9.7185    0.3124 C.3       1 RES1    0.0000
     32 H12        3.9326    9.2136    1.1324 H         1 RES1    0.0000
     33 H13        4.5104    9.7525   -0.2609 H         1 RES1    0.0000
     34 C11        3.2948   11.1168    0.6823 C.ar      1 RES1    0.0000
     35 C12        3.7155   11.6702    1.8698 C.ar      1 RES1    0.0000
     36 H14        4.2366   11.1592    2.4793 H         1 RES1    0.0000
     37 C13        3.3735   12.9834    2.1699 C.ar      1 RES1    0.0000
     38 C14        2.6340   13.7502    1.2883 C.ar      1 RES1    0.0000
     39 H15        2.4132   14.6484    1.5067 H         1 RES1    0.0000
     40 C15        2.2198   13.2108    0.1023 C.ar      1 RES1    0.0000
     41 H16        1.7262   13.7445   -0.5095 H         1 RES1    0.0000
     42 C16        2.5189   11.8636   -0.2254 C.ar      1 RES1    0.0000
@<TRIPOS>BOND
     1    1   12 2
     2    2   13 2
     3    3   15 2
     4    4   20 1
     5    5   10 2
     6    6   10 2
     7    7   12 1
     8    8    9 1
     9   10   37 1
    10   11   26 1
    11   12    8 1
    12   13    8 1
    13   14   13 1
    14   15    7 1
    15   16    7 1
    16   17   16 1
    17   18   16 1
    18   19   16 1
    19   20   21 1
    20   22   20 1
    21   23    4 1
    22   24   23 1
    23   25   23 1
    24   26   23 1
    25   27   26 1
    26   28   26 1
    27   29   11 1
    28   30   29 1
    29   31   14 1
    30   32   31 1
    31   33   31 1
    32   34   31 1
    33   35   34 ar
    34   36   35 1
    35   37   35 ar
    36   38   37 ar
    37   39   38 1
    38   40   38 ar
    39   41   40 1
    40   42   11 1
    41   14   15 1
    42   14   29 1
    43   20   29 1
    44   34   42 ar
    45   40   42 ar
@<TRIPOS>SUBSTRUCTURE
     1 RES1 1

@<TRIPOS>CRYSIN
   9.7000   11.5880   13.8490  90.0000  99.4710  90.0000  14 1

