# MOL2 file generated by ConQuest
# Please check atom types

@<TRIPOS>MOLECULE
HUQQOA
    51    53     1
SMALL
NO_CHARGES
****
Generated from CSD

@<TRIPOS>ATOM
      1 O1         0.3615   12.5619    8.6723 O.2       1 RES1    0.0000
      2 O2         2.9377    9.3115   10.3097 O.2       1 RES1    0.0000
      3 O3        -0.2106    8.5494    6.9533 O.2       1 RES1    0.0000
      4 O4         3.7716    4.8874   13.6306 O.2       1 RES1    0.0000
      5 O5         2.6449    6.7067   13.5329 O.2       1 RES1    0.0000
      6 O6         2.8119    5.2539    4.6491 O.3       1 RES1    0.0000
      7 N1        -0.3295   10.4337    8.2289 N.am      1 RES1    0.0000
      8 N2         1.6174   10.9071    9.4368 N.am      1 RES1    0.0000
      9 H1         2.1861   11.5282    9.8244 H         1 RES1    0.0000
     10 N3         3.1670    5.7494   12.9961 N.pl3     1 RES1    0.0000
     11 N4         2.9654    5.3288    7.4569 N.3       1 RES1    0.0000
     12 C1         0.5154   11.3733    8.7571 C.2       1 RES1    0.0000
     13 C2         1.9939    9.5990    9.6043 C.2       1 RES1    0.0000
     14 C3         1.2489    8.6654    8.7840 C.2       1 RES1    0.0000
     15 C4         0.1886    9.1818    7.8928 C.2       1 RES1    0.0000
     16 C5        -1.6802   10.8579    7.6866 C.3       1 RES1    0.0000
     17 C6        -1.5001   11.4459    6.3069 C.3       1 RES1    0.0000
     18 H2        -1.0962   10.7761    5.7164 H         1 RES1    0.0000
     19 H3        -0.9151   12.2307    6.3606 H         1 RES1    0.0000
     20 H4        -2.3727   11.7123    5.9494 H         1 RES1    0.0000
     21 C7        -2.3113   11.8421    8.6412 C.3       1 RES1    0.0000
     22 H5        -2.4176   11.4213    9.5194 H         1 RES1    0.0000
     23 H6        -3.1895   12.1103    8.2986 H         1 RES1    0.0000
     24 H7        -1.7371   12.6317    8.7228 H         1 RES1    0.0000
     25 C8        -2.5979    9.6445    7.6555 C.3       1 RES1    0.0000
     26 H8        -2.2285    8.9719    7.0456 H         1 RES1    0.0000
     27 H9        -3.4869    9.9158    7.3441 H         1 RES1    0.0000
     28 H10       -2.6693    9.2652    8.5563 H         1 RES1    0.0000
     29 C9         1.5082    7.3422    8.6873 C.2       1 RES1    0.0000
     30 H11        1.0467    6.8999    7.9851 H         1 RES1    0.0000
     31 C10        2.3803    6.4780    9.4808 C.ar      1 RES1    0.0000
     32 C11        2.9776    5.3816    8.8215 C.ar      1 RES1    0.0000
     33 C12        3.5478    4.3693    9.6150 C.ar      1 RES1    0.0000
     34 H12        3.9022    3.5937    9.1963 H         1 RES1    0.0000
     35 C13        3.6009    4.4784   10.9550 C.ar      1 RES1    0.0000
     36 H13        4.0012    3.7896   11.4725 H         1 RES1    0.0000
     37 C14        3.0738    5.5925   11.5799 C.ar      1 RES1    0.0000
     38 C15        2.4502    6.5818   10.8465 C.ar      1 RES1    0.0000
     39 H14        2.0711    7.3333   11.2868 H         1 RES1    0.0000
     40 C16        3.3333    6.4753    6.6398 C.3       1 RES1    0.0000
     41 H15        4.3010    6.4458    6.4325 H         1 RES1    0.0000
     42 H16        3.1453    7.3139    7.1294 H         1 RES1    0.0000
     43 C17        2.5387    6.4371    5.3707 C.3       1 RES1    0.0000
     44 H17        1.5722    6.4782    5.5833 H         1 RES1    0.0000
     45 H18        2.7641    7.2229    4.8134 H         1 RES1    0.0000
     46 C18        2.5218    4.1126    5.4404 C.3       1 RES1    0.0000
     47 H19        2.7568    3.2981    4.9294 H         1 RES1    0.0000
     48 H20        1.5490    4.0856    5.6219 H         1 RES1    0.0000
     49 C19        3.2543    4.1002    6.7343 C.3       1 RES1    0.0000
     50 H21        2.9729    3.3188    7.2733 H         1 RES1    0.0000
     51 H22        4.2280    4.0286    6.5689 H         1 RES1    0.0000
@<TRIPOS>BOND
     1    1   12 2
     2    2   13 2
     3    3   15 2
     4    4   10 2
     5    5   10 2
     6    6   43 1
     7    7   12 1
     8    8    9 1
     9   10   37 1
    10   11   32 1
    11   12    8 1
    12   13    8 1
    13   14   13 1
    14   15    7 1
    15   16    7 1
    16   17   16 1
    17   18   17 1
    18   19   17 1
    19   20   17 1
    20   21   16 1
    21   22   21 1
    22   23   21 1
    23   24   21 1
    24   25   16 1
    25   26   25 1
    26   27   25 1
    27   28   25 1
    28   29   14 2
    29   30   29 1
    30   31   29 1
    31   32   31 ar
    32   33   32 ar
    33   34   33 1
    34   35   33 ar
    35   36   35 1
    36   37   35 ar
    37   38   31 ar
    38   39   38 1
    39   40   11 1
    40   41   40 1
    41   42   40 1
    42   43   40 1
    43   44   43 1
    44   45   43 1
    45   46    6 1
    46   47   46 1
    47   48   46 1
    48   49   11 1
    49   50   49 1
    50   51   49 1
    51   14   15 1
    52   37   38 ar
    53   46   49 1
@<TRIPOS>SUBSTRUCTURE
     1 RES1 1

@<TRIPOS>CRYSIN
   7.6970   11.8240   12.0330  63.3230  84.4270  71.5610   2 1

