# MOL2 file generated by ConQuest
# Please check atom types

@<TRIPOS>MOLECULE
HURHOS
    71    73     1
SMALL
NO_CHARGES
****
Generated from CSD

@<TRIPOS>ATOM
      1 C1        -0.3623    5.1273    4.3278 C.3       1 RES1    0.0000
      2 H1        -1.0654    5.8244    4.3250 H         1 RES1    0.0000
      3 O1         0.0101    4.6134    5.5679 O.3       1 RES1    0.0000
      4 C2         0.6635    5.2217    3.3057 C.3       1 RES1    0.0000
      5 H2         0.5521    5.9655    2.6615 H         1 RES1    0.0000
      6 O2        -0.3731    4.1984    3.2592 O.3       1 RES1    0.0000
      7 C3         2.0790    4.7764    3.5321 C.3       1 RES1    0.0000
      8 H3         2.0883    4.2240    4.3530 H         1 RES1    0.0000
      9 C4         2.5872    3.9052    2.3853 C.3       1 RES1    0.0000
     10 H4         1.9316    3.1870    2.2006 H         1 RES1    0.0000
     11 O3         3.8561    3.3153    2.7677 O.3       1 RES1    0.0000
     12 C5         2.9503    4.6115    1.0846 C.3       1 RES1    0.0000
     13 H5         3.7662    5.1566    1.2145 H         1 RES1    0.0000
     14 O4         1.8748    5.4415    0.6481 O.3       1 RES1    0.0000
     15 C6         3.1509    3.6469   -0.0717 C.3       1 RES1    0.0000
     16 H6         3.8388    3.9730   -0.6894 H         1 RES1    0.0000
     17 H7         3.4068    2.7574    0.2525 H         1 RES1    0.0000
     18 O5         1.8727    3.6194   -0.6946 O.3       1 RES1    0.0000
     19 C7         1.3795    4.9505   -0.6028 C.3       1 RES1    0.0000
     20 C8         1.9086    5.8254   -1.7188 C.3       1 RES1    0.0000
     21 H8         2.8762    5.7603   -1.7476 H         1 RES1    0.0000
     22 H9         1.6527    6.7469   -1.5552 H         1 RES1    0.0000
     23 H10        1.5377    5.5304   -2.5653 H         1 RES1    0.0000
     24 C9        -0.1251    4.9019   -0.5543 C.3       1 RES1    0.0000
     25 H11       -0.4622    4.5007   -1.3708 H         1 RES1    0.0000
     26 H12       -0.4759    5.8025   -0.4690 H         1 RES1    0.0000
     27 H13       -0.4076    4.3715    0.2084 H         1 RES1    0.0000
     28 C10        2.9381    6.0067    3.7987 C.3       1 RES1    0.0000
     29 H14        2.8187    6.6462    3.0784 H         1 RES1    0.0000
     30 H15        3.8704    5.7447    3.8480 H         1 RES1    0.0000
     31 H16        2.6714    6.4107    4.6376 H         1 RES1    0.0000
     32 N1         5.1084    1.8853    3.8432 N.am      1 RES1    0.0000
     33 H17        5.6576    2.4093    3.5313 H         1 RES1    0.0000
     34 C11        5.5433    0.8602    4.6813 C.ar      1 RES1    0.0000
     35 C12        4.7022    0.1741    5.5375 C.ar      1 RES1    0.0000
     36 H18        3.7792    0.3509    5.5435 H         1 RES1    0.0000
     37 C13        5.2414   -0.7704    6.3780 C.ar      1 RES1    0.0000
     38 C14        6.5806   -1.0929    6.3913 C.ar      1 RES1    0.0000
     39 H19        6.9199   -1.7470    6.9745 H         1 RES1    0.0000
     40 C15        7.4009   -0.4177    5.5178 C.ar      1 RES1    0.0000
     41 H20        8.3182   -0.6220    5.4954 H         1 RES1    0.0000
     42 C16        6.9063    0.5524    4.6709 C.ar      1 RES1    0.0000
     43 H21        7.4864    1.0068    4.0885 H         1 RES1    0.0000
     44 N2         4.3327   -1.4300    7.3468 N.pl3     1 RES1    0.0000
     45 O6         3.1286   -1.3384    7.1596 O.2       1 RES1    0.0000
     46 O7         4.8417   -2.0117    8.2876 O.2       1 RES1    0.0000
     47 C17       -1.0402    4.3550    6.4217 C.2       1 RES1    0.0000
     48 O8        -2.1876    4.4998    6.0618 O.2       1 RES1    0.0000
     49 N3        -0.6139    3.9556    7.6302 N.am      1 RES1    0.0000
     50 C18        0.8016    3.7037    7.9842 C.3       1 RES1    0.0000
     51 H22        0.7936    3.4252    8.9345 H         1 RES1    0.0000
     52 C19        1.4291    2.5522    7.2242 C.3       1 RES1    0.0000
     53 H23        0.8734    1.7625    7.3152 H         1 RES1    0.0000
     54 H24        2.3119    2.3708    7.5837 H         1 RES1    0.0000
     55 H25        1.5046    2.7867    6.2850 H         1 RES1    0.0000
     56 C20        1.6527    4.9597    7.9336 C.3       1 RES1    0.0000
     57 H26        1.8849    5.1566    7.0105 H         1 RES1    0.0000
     58 H27        2.4629    4.8222    8.4495 H         1 RES1    0.0000
     59 H28        1.1545    5.7035    8.3052 H         1 RES1    0.0000
     60 C21       -1.6649    3.6533    8.6275 C.3       1 RES1    0.0000
     61 H29       -2.5154    4.0079    8.2651 H         1 RES1    0.0000
     62 C22       -1.4255    4.3541    9.9446 C.3       1 RES1    0.0000
     63 H30       -0.6362    3.9831   10.3695 H         1 RES1    0.0000
     64 H31       -2.1940    4.2277   10.5218 H         1 RES1    0.0000
     65 H32       -1.2925    5.3023    9.7883 H         1 RES1    0.0000
     66 C23       -1.8482    2.1638    8.7962 C.3       1 RES1    0.0000
     67 H33       -2.0531    1.7635    7.9365 H         1 RES1    0.0000
     68 H34       -2.5779    1.9952    9.4115 H         1 RES1    0.0000
     69 H35       -1.0323    1.7754    9.1470 H         1 RES1    0.0000
     70 C24        3.8237    2.1977    3.5153 C.2       1 RES1    0.0000
     71 O9         2.8331    1.5867    3.8195 O.2       1 RES1    0.0000
@<TRIPOS>BOND
     1    1    2 1
     2    3    1 1
     3    4    1 1
     4    5    4 1
     5    6    1 1
     6    7    4 1
     7    8    7 1
     8    9    7 1
     9   10    9 1
    10   11    9 1
    11   12    9 1
    12   13   12 1
    13   14   12 1
    14   15   12 1
    15   16   15 1
    16   17   15 1
    17   18   15 1
    18   19   14 1
    19   20   19 1
    20   21   20 1
    21   22   20 1
    22   23   20 1
    23   24   19 1
    24   25   24 1
    25   26   24 1
    26   27   24 1
    27   28    7 1
    28   29   28 1
    29   30   28 1
    30   31   28 1
    31   32   33 1
    32   34   32 1
    33   35   34 ar
    34   36   35 1
    35   37   35 ar
    36   38   37 ar
    37   39   38 1
    38   40   38 ar
    39   41   40 1
    40   42   34 ar
    41   43   42 1
    42   44   37 1
    43   45   44 2
    44   46   44 2
    45   47    3 1
    46   48   47 2
    47   49   47 1
    48   50   49 1
    49   51   50 1
    50   52   50 1
    51   53   52 1
    52   54   52 1
    53   55   52 1
    54   56   50 1
    55   57   56 1
    56   58   56 1
    57   59   56 1
    58   60   49 1
    59   61   60 1
    60   62   60 1
    61   63   62 1
    62   64   62 1
    63   65   62 1
    64   66   60 1
    65   67   66 1
    66   68   66 1
    67   69   66 1
    68   70   11 1
    69   71   70 2
    70    4    6 1
    71   18   19 1
    72   32   70 1
    73   40   42 ar
@<TRIPOS>SUBSTRUCTURE
     1 RES1 1

@<TRIPOS>CRYSIN
   7.1888    9.1608   40.0831  90.0000  90.0000  90.0000  19 1

