# MOL2 file generated by ConQuest
# Please check atom types

@<TRIPOS>MOLECULE
HURQUI
   108   112     2
SMALL
NO_CHARGES
****
Generated from CSD

@<TRIPOS>ATOM
      1 C1        11.2667   14.7064   12.9297 C.3       1 RES1    0.0000
      2 H1        10.8325   13.8691   12.7042 H         1 RES1    0.0000
      3 H2        10.5873   15.3891   13.0450 H         1 RES1    0.0000
      4 C2        12.0965   14.5550   14.1959 C.3       1 RES1    0.0000
      5 H3        11.6512   14.9737   14.9495 H         1 RES1    0.0000
      6 H4        12.2420   13.6179   14.4002 H         1 RES1    0.0000
      7 C3        13.4032   15.2442   13.9006 C.3       1 RES1    0.0000
      8 H5        14.1317   14.8127   14.3741 H         1 RES1    0.0000
      9 H6        13.3665   16.1760   14.1676 H         1 RES1    0.0000
     10 C4        13.5978   15.1246   12.3852 C.3       1 RES1    0.0000
     11 H7        14.0472   15.9280   12.0486 H         1 RES1    0.0000
     12 C5        14.3912   13.8809   11.9680 C.3       1 RES1    0.0000
     13 H8        15.2758   13.8992   12.3894 H         1 RES1    0.0000
     14 C6        14.5446   13.7038   10.4731 C.3       1 RES1    0.0000
     15 H9        14.4558   14.5518   10.0098 H         1 RES1    0.0000
     16 H10       15.4045   13.3131   10.2543 H         1 RES1    0.0000
     17 C7        13.4326   12.7820   10.1178 C.2       1 RES1    0.0000
     18 C8        14.3315   11.6534   13.0843 C.2       1 RES1    0.0000
     19 C9        14.2347    9.3702   13.7007 C.3       1 RES1    0.0000
     20 H11       14.8238    9.6987   14.3982 H         1 RES1    0.0000
     21 H12       14.7405    8.7691   13.1332 H         1 RES1    0.0000
     22 C10       13.0803    8.6466   14.3078 C.ar      1 RES1    0.0000
     23 C11       13.0579    8.3644   15.6465 C.ar      1 RES1    0.0000
     24 H13       13.7577    8.6478   16.1904 H         1 RES1    0.0000
     25 C12       11.9884    7.6505   16.2053 C.ar      1 RES1    0.0000
     26 H14       11.9831    7.4412   17.1106 H         1 RES1    0.0000
     27 C13       10.9668    7.2727   15.4066 C.ar      1 RES1    0.0000
     28 H15       10.2443    6.8143   15.7714 H         1 RES1    0.0000
     29 C14       10.9801    7.5475   14.1195 C.ar      1 RES1    0.0000
     30 H16       10.2618    7.2877   13.5903 H         1 RES1    0.0000
     31 C15       12.0355    8.2087   13.5506 C.ar      1 RES1    0.0000
     32 H17       12.0383    8.3601   12.6340 H         1 RES1    0.0000
     33 C16       11.8566   15.6502   10.7194 C.2       1 RES1    0.0000
     34 C17        9.9049   15.8668    9.2552 C.3       1 RES1    0.0000
     35 C18        8.4332   15.6435    9.5402 C.3       1 RES1    0.0000
     36 H18        8.1471   16.2425   10.2343 H         1 RES1    0.0000
     37 H19        8.2961   14.7365    9.8233 H         1 RES1    0.0000
     38 H20        7.9236   15.8110    8.7428 H         1 RES1    0.0000
     39 C19       10.1513   17.2891    8.7965 C.3       1 RES1    0.0000
     40 H21       11.0743   17.3922    8.5523 H         1 RES1    0.0000
     41 H22        9.9387   17.8967    9.5086 H         1 RES1    0.0000
     42 H23        9.5966   17.4813    8.0371 H         1 RES1    0.0000
     43 C20       10.4235   14.8588    8.2692 C.3       1 RES1    0.0000
     44 H24       10.4055   13.9850    8.6666 H         1 RES1    0.0000
     45 H25       11.3253   15.0821    8.0271 H         1 RES1    0.0000
     46 H26        9.8704   14.8653    7.4838 H         1 RES1    0.0000
     47 N1        12.2100   15.0934   11.8890 N.am      1 RES1    0.0000
     48 N2        13.6778   12.6488   12.3674 N.am      1 RES1    0.0000
     49 O1        12.6365   16.1057    9.9077 O.2       1 RES1    0.0000
     50 O2        10.5177   15.6048   10.5665 O.3       1 RES1    0.0000
     51 O3        12.9410   12.1840   11.2407 O.3       1 RES1    0.0000
     52 O4        12.9442   12.5326    9.0625 O.2       1 RES1    0.0000
     53 O5        15.2408   11.8958   13.8106 O.2       1 RES1    0.0000
     54 O6        13.7271   10.4858   12.9149 O.3       1 RES1    0.0000
     55 C21       10.4726   11.1339   16.1171 C.3       2 RES2    0.0000
     56 H27       11.0088   10.3288   16.1904 H         2 RES2    0.0000
     57 H28       10.9617   11.7909   15.5990 H         2 RES2    0.0000
     58 C22        9.1336   10.8323   15.4775 C.3       2 RES2    0.0000
     59 H29        9.1160   11.1672   14.5666 H         2 RES2    0.0000
     60 H30        8.9833    9.8737   15.4547 H         2 RES2    0.0000
     61 C23        8.0837   11.4892   16.2778 C.3       2 RES2    0.0000
     62 H31        7.2862   10.9375   16.3167 H         2 RES2    0.0000
     63 H32        7.8505   12.3502   15.8977 H         2 RES2    0.0000
     64 C24        8.6929   11.6610   17.6766 C.3       2 RES2    0.0000
     65 H33        8.4271   12.5337   18.0328 H         2 RES2    0.0000
     66 C25        8.2233   10.5701   18.6364 C.3       2 RES2    0.0000
     67 H34        7.2671   10.6884   18.8167 H         2 RES2    0.0000
     68 C26        8.9738   10.4851   19.9494 C.3       2 RES2    0.0000
     69 H35        9.4564   11.3078   20.1238 H         2 RES2    0.0000
     70 H36        8.3628   10.3192   20.6851 H         2 RES2    0.0000
     71 C27        9.9132    9.3488   19.7774 C.2       2 RES2    0.0000
     72 C28        7.3803    8.3861   17.8307 C.2       2 RES2    0.0000
     73 C29        6.7405    6.1607   17.3853 C.3       2 RES2    0.0000
     74 H37        5.8635    6.5749   17.3773 H         2 RES2    0.0000
     75 H38        6.7115    5.3952   17.9807 H         2 RES2    0.0000
     76 C30        7.1054    5.7185   16.0082 C.ar      2 RES2    0.0000
     77 C31        7.6559    4.5064   15.7720 C.ar      2 RES2    0.0000
     78 H39        7.8140    3.9364   16.4891 H         2 RES2    0.0000
     79 C32        7.9877    4.0910   14.5068 C.ar      2 RES2    0.0000
     80 H40        8.3600    3.2494   14.3781 H         2 RES2    0.0000
     81 C33        7.7750    4.9003   13.4501 C.ar      2 RES2    0.0000
     82 H41        7.9924    4.6159   12.5919 H         2 RES2    0.0000
     83 C34        7.2395    6.1359   13.6456 C.ar      2 RES2    0.0000
     84 H42        7.1114    6.7059   12.9227 H         2 RES2    0.0000
     85 C35        6.8874    6.5481   14.9176 C.ar      2 RES2    0.0000
     86 H43        6.5027    7.3854   15.0437 H         2 RES2    0.0000
     87 C36       10.9560   12.4891   18.1407 C.2       2 RES2    0.0000
     88 C37       13.3286   13.1188   18.2736 C.3       2 RES2    0.0000
     89 C38       13.1168   14.5937   18.3275 C.3       2 RES2    0.0000
     90 H44       13.9105   15.0199   18.6583 H         2 RES2    0.0000
     91 H45       12.3810   14.7901   18.9129 H         2 RES2    0.0000
     92 H46       12.9207   14.9222   17.4474 H         2 RES2    0.0000
     93 C39       13.5310   12.5112   19.6134 C.3       2 RES2    0.0000
     94 H47       13.4521   11.5569   19.5464 H         2 RES2    0.0000
     95 H48       12.8667   12.8461   20.2200 H         2 RES2    0.0000
     96 H49       14.4055   12.7377   19.9393 H         2 RES2    0.0000
     97 C40       14.4692   12.7699   17.3480 C.3       2 RES2    0.0000
     98 H50       14.4548   11.8285   17.1627 H         2 RES2    0.0000
     99 H51       15.3029   13.0007   17.7662 H         2 RES2    0.0000
    100 H52       14.3772   13.2594   16.5272 H         2 RES2    0.0000
    101 N3        10.1390   11.6614   17.4496 N.am      2 RES2    0.0000
    102 N4         8.4463    9.2335   18.0617 N.am      2 RES2    0.0000
    103 O7        10.6128   13.1401   19.0985 O.2       2 RES2    0.0000
    104 O8        12.1823   12.4807   17.6070 O.3       2 RES2    0.0000
    105 O9         9.5870    8.6358   18.6623 O.3       2 RES2    0.0000
    106 O10       10.8498    9.0119   20.4301 O.2       2 RES2    0.0000
    107 O11        6.3021    8.8245   17.5477 O.2       2 RES2    0.0000
    108 O12        7.7414    7.1195   17.8548 O.3       2 RES2    0.0000
@<TRIPOS>BOND
     1    1    2 1
     2    3    1 1
     3    4    1 1
     4    5    4 1
     5    6    4 1
     6    7    4 1
     7    8    7 1
     8    9    7 1
     9   10    7 1
    10   11   10 1
    11   12   10 1
    12   13   12 1
    13   14   12 1
    14   15   14 1
    15   16   14 1
    16   17   14 1
    17   18   48 1
    18   19   20 1
    19   21   19 1
    20   22   19 1
    21   23   22 ar
    22   24   23 1
    23   25   23 ar
    24   26   25 1
    25   27   25 ar
    26   28   27 1
    27   29   27 ar
    28   30   29 1
    29   31   22 ar
    30   32   31 1
    31   33   47 1
    32   34   35 1
    33   35   36 1
    34   37   35 1
    35   38   35 1
    36   39   34 1
    37   40   39 1
    38   41   39 1
    39   42   39 1
    40   43   34 1
    41   44   43 1
    42   45   43 1
    43   46   43 1
    44   47    1 1
    45   48   12 1
    46   49   33 2
    47   50   33 1
    48   51   17 1
    49   52   17 2
    50   53   18 2
    51   54   18 1
    52   55   56 1
    53   57   55 1
    54   58   55 1
    55   59   58 1
    56   60   58 1
    57   61   58 1
    58   62   61 1
    59   63   61 1
    60   64   61 1
    61   65   64 1
    62   66   64 1
    63   67   66 1
    64   68   66 1
    65   69   68 1
    66   70   68 1
    67   71   68 1
    68   72  102 1
    69   73   74 1
    70   75   73 1
    71   76   73 1
    72   77   76 ar
    73   78   77 1
    74   79   77 ar
    75   80   79 1
    76   81   79 ar
    77   82   81 1
    78   83   81 ar
    79   84   83 1
    80   85   76 ar
    81   86   85 1
    82   87  101 1
    83   88   89 1
    84   89   90 1
    85   91   89 1
    86   92   89 1
    87   93   88 1
    88   94   93 1
    89   95   93 1
    90   96   93 1
    91   97   88 1
    92   98   97 1
    93   99   97 1
    94  100   97 1
    95  101   55 1
    96  102   66 1
    97  103   87 2
    98  104   87 1
    99  105   71 1
   100  106   71 2
   101  107   72 2
   102  108   72 1
   103   10   47 1
   104   19   54 1
   105   29   31 ar
   106   34   50 1
   107   48   51 1
   108   64  101 1
   109   73  108 1
   110   83   85 ar
   111   88  104 1
   112  102  105 1
@<TRIPOS>SUBSTRUCTURE
     1 RES1 1
     2 RES2 55

@<TRIPOS>CRYSIN
   9.6081   10.7346   20.0544  90.0000  91.4930  90.0000   4 1

