# MOL2 file generated by ConQuest
# Please check atom types

@<TRIPOS>MOLECULE
HURQOC
    41    42     1
SMALL
NO_CHARGES
****
Generated from CSD

@<TRIPOS>ATOM
      1 C1         2.5291   -2.1714    2.5515 C.3       1 RES1    0.0000
      2 H1         2.2427   -2.0175    3.4554 H         1 RES1    0.0000
      3 H2         2.6058   -3.1161    2.3964 H         1 RES1    0.0000
      4 H3         1.8852   -1.7992    1.9440 H         1 RES1    0.0000
      5 C2         4.2881   -1.5898    0.8815 C.3       1 RES1    0.0000
      6 H4         3.6668   -1.0936    0.3431 H         1 RES1    0.0000
      7 H5         4.2937   -2.5078    0.5991 H         1 RES1    0.0000
      8 H6         5.1676   -1.2187    0.7806 H         1 RES1    0.0000
      9 C3         3.8729   -1.5124    2.3285 C.3       1 RES1    0.0000
     10 C4         4.9219   -2.0046    3.2806 C.3       1 RES1    0.0000
     11 H7         5.7210   -1.4846    3.1745 H         1 RES1    0.0000
     12 H8         5.1135   -2.9276    3.0974 H         1 RES1    0.0000
     13 H9         4.6022   -1.9183    4.1813 H         1 RES1    0.0000
     14 C5         4.4200    0.8743    2.4625 C.2       1 RES1    0.0000
     15 C6         4.1285    3.8634    1.3938 C.2       1 RES1    0.0000
     16 C7         2.8081    3.3206    1.0580 C.3       1 RES1    0.0000
     17 H10        2.8420    2.8204    0.2262 H         1 RES1    0.0000
     18 H11        2.1547    4.0321    0.9695 H         1 RES1    0.0000
     19 C8         2.4638    2.4165    2.2137 C.3       1 RES1    0.0000
     20 H12        2.0203    1.6057    1.8868 H         1 RES1    0.0000
     21 C9         1.6138    3.0874    3.2426 C.3       1 RES1    0.0000
     22 H13        0.7576    3.3345    2.8339 H         1 RES1    0.0000
     23 C10        1.3462    2.2974    4.4920 C.3       1 RES1    0.0000
     24 H14        0.3933    2.1495    4.5989 H         1 RES1    0.0000
     25 H15        1.7885    1.4350    4.4473 H         1 RES1    0.0000
     26 C11        2.2037    4.2991    5.1398 C.3       1 RES1    0.0000
     27 C12        1.2306    5.2994    5.5833 C.3       1 RES1    0.0000
     28 H16        0.3612    5.0722    5.2452 H         1 RES1    0.0000
     29 H17        1.4869    6.1638    5.2552 H         1 RES1    0.0000
     30 H18        1.2061    5.3173    6.5429 H         1 RES1    0.0000
     31 C13        3.5726    4.5293    5.6505 C.3       1 RES1    0.0000
     32 H19        3.5983    4.3447    6.5901 H         1 RES1    0.0000
     33 H20        3.8213    5.4443    5.4963 H         1 RES1    0.0000
     34 H21        4.1857    3.9498    5.1930 H         1 RES1    0.0000
     35 N1         3.7836    2.0840    2.7633 N.am      1 RES1    0.0000
     36 O1         5.5734    0.7790    2.1861 O.2       1 RES1    0.0000
     37 O2         3.5380   -0.0853    2.6433 O.3       1 RES1    0.0000
     38 O3         4.6732    3.1538    2.4173 O.3       1 RES1    0.0000
     39 O4         4.7448    4.7784    0.9238 O.2       1 RES1    0.0000
     40 O5         2.2571    4.2683    3.7110 O.3       1 RES1    0.0000
     41 O6         1.8224    3.0090    5.5175 O.3       1 RES1    0.0000
@<TRIPOS>BOND
     1    1    2 1
     2    3    1 1
     3    4    1 1
     4    5    6 1
     5    7    5 1
     6    8    5 1
     7    9    1 1
     8   10    9 1
     9   11   10 1
    10   12   10 1
    11   13   10 1
    12   14   35 1
    13   15   16 1
    14   16   17 1
    15   18   16 1
    16   19   16 1
    17   20   19 1
    18   21   19 1
    19   22   21 1
    20   23   21 1
    21   24   23 1
    22   25   23 1
    23   26   27 1
    24   27   28 1
    25   29   27 1
    26   30   27 1
    27   31   26 1
    28   32   31 1
    29   33   31 1
    30   34   31 1
    31   35   19 1
    32   36   14 2
    33   37    9 1
    34   38   15 1
    35   39   15 2
    36   40   21 1
    37   41   23 1
    38    5    9 1
    39   14   37 1
    40   26   40 1
    41   26   41 1
    42   35   38 1
@<TRIPOS>SUBSTRUCTURE
     1 RES1 1

@<TRIPOS>CRYSIN
   6.2820    9.9240   24.8590  90.0000  90.0000  90.0000  19 1

