# MOL2 file generated by ConQuest
# Please check atom types

@<TRIPOS>MOLECULE
HURQIW
   106   108     2
SMALL
NO_CHARGES
****
Generated from CSD

@<TRIPOS>ATOM
      1 C1         1.0024    2.0068    8.1994 C.3       1 RES1    0.0000
      2 H1         1.4361    2.2630    9.0399 H         1 RES1    0.0000
      3 C2        -0.4062    2.5886    8.1271 C.3       1 RES1    0.0000
      4 H2        -1.0559    1.9768    8.5078 H         1 RES1    0.0000
      5 H3        -0.4566    3.4374    8.5943 H         1 RES1    0.0000
      6 C3        -0.6361    2.7717    6.6356 C.3       1 RES1    0.0000
      7 H4        -0.9014    1.9364    6.2191 H         1 RES1    0.0000
      8 H5        -1.3186    3.4410    6.4679 H         1 RES1    0.0000
      9 C4         0.7150    3.2306    6.1240 C.3       1 RES1    0.0000
     10 H6         0.8750    2.9037    5.2252 H         1 RES1    0.0000
     11 H7         0.7752    4.1994    6.1240 H         1 RES1    0.0000
     12 C5         2.9727    2.9447    6.9677 C.2       1 RES1    0.0000
     13 C6         5.1537    2.3716    7.9183 C.3       1 RES1    0.0000
     14 C7         5.7939    3.7203    7.8556 C.3       1 RES1    0.0000
     15 H8         5.5080    4.1748    7.0595 H         1 RES1    0.0000
     16 H9         6.7486    3.6200    7.8415 H         1 RES1    0.0000
     17 H10        5.5373    4.2327    8.6268 H         1 RES1    0.0000
     18 C8         5.5035    1.5365    6.7329 C.3       1 RES1    0.0000
     19 H11        5.0021    0.7180    6.7599 H         1 RES1    0.0000
     20 H12        6.4422    1.3378    6.7480 H         1 RES1    0.0000
     21 H13        5.2909    2.0172    5.9293 H         1 RES1    0.0000
     22 C9         5.4872    1.6661    9.1968 C.3       1 RES1    0.0000
     23 H14        5.2080    2.2033    9.9420 H         1 RES1    0.0000
     24 H15        6.4355    1.5203    9.2444 H         1 RES1    0.0000
     25 H16        5.0325    0.8216    9.2238 H         1 RES1    0.0000
     26 C10        0.9318    0.4830    8.0759 C.3       1 RES1    0.0000
     27 H17        0.2519    0.2352    7.4154 H         1 RES1    0.0000
     28 C11        0.6032   -0.1552    9.4152 C.3       1 RES1    0.0000
     29 H18        0.2692    0.5074   10.0393 H         1 RES1    0.0000
     30 H19       -0.0640   -0.8515    9.3092 H         1 RES1    0.0000
     31 C12        1.8832   -0.7238    9.8901 C.2       1 RES1    0.0000
     32 C13        2.4051   -0.9275    6.6070 C.2       1 RES1    0.0000
     33 C14        1.8792   -0.8718    4.2225 C.3       1 RES1    0.0000
     34 C15        1.0098    0.0776    3.4546 C.3       1 RES1    0.0000
     35 H20        0.1366    0.1053    3.8526 H         1 RES1    0.0000
     36 H21        0.9362   -0.2194    2.5450 H         1 RES1    0.0000
     37 H22        1.3993    0.9550    3.4741 H         1 RES1    0.0000
     38 C16        3.3266   -0.7988    3.8083 C.3       1 RES1    0.0000
     39 H23        3.6388    0.1053    3.8916 H         1 RES1    0.0000
     40 H24        3.4141   -1.0850    2.8954 H         1 RES1    0.0000
     41 H25        3.8506   -1.3711    4.3740 H         1 RES1    0.0000
     42 C17        1.3138   -2.2754    4.1511 C.3       1 RES1    0.0000
     43 H26        1.8439   -2.8616    4.6952 H         1 RES1    0.0000
     44 H27        1.3295   -2.5807    3.2404 H         1 RES1    0.0000
     45 H28        0.4080   -2.2735    4.4713 H         1 RES1    0.0000
     46 N1         1.6638    2.6464    7.0691 N.am      1 RES1    0.0000
     47 N2         2.2162   -0.1289    7.7175 N.am      1 RES1    0.0000
     48 O1         3.4264    3.5796    6.0463 O.2       1 RES1    0.0000
     49 O2         3.6824    2.4929    8.0074 O.3       1 RES1    0.0000
     50 O3         2.1989   -1.1543   10.9492 O.2       1 RES1    0.0000
     51 O4         2.8140   -0.6994    8.8813 O.3       1 RES1    0.0000
     52 O5         3.1282   -1.8769    6.5789 O.2       1 RES1    0.0000
     53 O6         1.7286   -0.3894    5.6078 O.3       1 RES1    0.0000
     54 C18        3.1354    4.3080    2.9352 C.3       2 RES2    0.0000
     55 H29        2.5355    4.0712    3.6731 H         2 RES2    0.0000
     56 C19        4.5127    3.6925    3.1561 C.3       2 RES2    0.0000
     57 H30        5.0953    4.3030    3.6341 H         2 RES2    0.0000
     58 H31        4.4485    2.8616    3.6514 H         2 RES2    0.0000
     59 C20        5.0156    3.4501    1.7435 C.3       2 RES2    0.0000
     60 H32        5.3782    4.2643    1.3596 H         2 RES2    0.0000
     61 H33        5.7013    2.7633    1.7327 H         2 RES2    0.0000
     62 C21        3.7889    2.9991    0.9907 C.3       2 RES2    0.0000
     63 H34        3.8228    3.2830    0.0638 H         2 RES2    0.0000
     64 H35        3.6928    2.0347    1.0232 H         2 RES2    0.0000
     65 C22        1.4197    3.3874    1.3693 C.2       2 RES2    0.0000
     66 C23       -0.8851    3.9187    1.9469 C.3       2 RES2    0.0000
     67 C24       -1.4484    4.7317    3.0815 C.3       2 RES2    0.0000
     68 H36       -1.2220    4.3152    3.9164 H         2 RES2    0.0000
     69 H37       -2.4038    4.7805    2.9971 H         2 RES2    0.0000
     70 H38       -1.0798    5.6179    3.0544 H         2 RES2    0.0000
     71 C25       -1.1293    4.6365    0.6435 C.3       2 RES2    0.0000
     72 H39       -0.6411    5.4634    0.6371 H         2 RES2    0.0000
     73 H40       -2.0673    4.8173    0.5494 H         2 RES2    0.0000
     74 H41       -0.8349    4.0853   -0.0854 H         2 RES2    0.0000
     75 C26       -1.4100    2.5179    1.9479 C.3       2 RES2    0.0000
     76 H42       -1.0766    2.0505    1.1768 H         2 RES2    0.0000
     77 H43       -2.3694    2.5351    1.9209 H         2 RES2    0.0000
     78 H44       -1.1199    2.0681    2.7440 H         2 RES2    0.0000
     79 C27        3.2574    5.8345    2.8189 C.3       2 RES2    0.0000
     80 H45        4.0945    6.0691    2.3665 H         2 RES2    0.0000
     81 C28        3.2093    6.4841    4.1868 C.3       2 RES2    0.0000
     82 H46        3.3366    5.8250    4.8866 H         2 RES2    0.0000
     83 H47        3.8940    7.1663    4.2701 H         2 RES2    0.0000
     84 C29        1.8525    7.0847    4.2669 C.2       2 RES2    0.0000
     85 C30        2.1857    7.1505    0.9464 C.2       2 RES2    0.0000
     86 C31        3.1849    6.9126   -1.2601 C.3       2 RES2    0.0000
     87 C32        4.2841    6.0011   -1.7381 C.3       2 RES2    0.0000
     88 H48        5.1039    6.2271   -1.2914 H         2 RES2    0.0000
     89 H49        4.3975    6.1059   -2.6856 H         2 RES2    0.0000
     90 H50        4.0531    5.0912   -1.5413 H         2 RES2    0.0000
     91 C33        1.8794    6.5940   -1.8820 C.3       2 RES2    0.0000
     92 H51        1.6012    5.7162   -1.6094 H         2 RES2    0.0000
     93 H52        1.9665    6.6186   -2.8381 H         2 RES2    0.0000
     94 H53        1.2261    7.2383   -1.6029 H         2 RES2    0.0000
     95 C34        3.6246    8.3399   -1.4591 C.3       2 RES2    0.0000
     96 H54        2.9512    8.9324   -1.1162 H         2 RES2    0.0000
     97 H55        3.7526    8.5076   -2.3957 H         2 RES2    0.0000
     98 H56        4.4499    8.4883   -0.9918 H         2 RES2    0.0000
     99 N3         2.1201    6.4458    2.1193 N.am      2 RES2    0.0000
    100 N4         2.7005    3.6616    1.7065 N.am      2 RES2    0.0000
    101 O7         1.1328    2.7331    0.3962 O.2       2 RES2    0.0000
    102 O8         0.5515    3.9104    2.2421 O.3       2 RES2    0.0000
    103 O9         1.2658    7.5427    5.2046 O.2       2 RES2    0.0000
    104 O10        1.2459    7.0596    3.0580 O.3       2 RES2    0.0000
    105 O11        1.4574    8.0629    0.6798 O.2       2 RES2    0.0000
    106 O12        3.1357    6.6240    0.1818 O.3       2 RES2    0.0000
@<TRIPOS>BOND
     1    1    2 1
     2    3    1 1
     3    4    3 1
     4    5    3 1
     5    6    3 1
     6    7    6 1
     7    8    6 1
     8    9    6 1
     9   10    9 1
    10   11    9 1
    11   12   46 1
    12   13   14 1
    13   14   15 1
    14   16   14 1
    15   17   14 1
    16   18   13 1
    17   19   18 1
    18   20   18 1
    19   21   18 1
    20   22   13 1
    21   23   22 1
    22   24   22 1
    23   25   22 1
    24   26    1 1
    25   27   26 1
    26   28   26 1
    27   29   28 1
    28   30   28 1
    29   31   28 1
    30   32   47 1
    31   33   34 1
    32   34   35 1
    33   36   34 1
    34   37   34 1
    35   38   33 1
    36   39   38 1
    37   40   38 1
    38   41   38 1
    39   42   33 1
    40   43   42 1
    41   44   42 1
    42   45   42 1
    43   46    1 1
    44   47   26 1
    45   48   12 2
    46   49   12 1
    47   50   31 2
    48   51   31 1
    49   52   32 2
    50   53   32 1
    51   54   55 1
    52   56   54 1
    53   57   56 1
    54   58   56 1
    55   59   56 1
    56   60   59 1
    57   61   59 1
    58   62   59 1
    59   63   62 1
    60   64   62 1
    61   65  100 1
    62   66   67 1
    63   67   68 1
    64   69   67 1
    65   70   67 1
    66   71   66 1
    67   72   71 1
    68   73   71 1
    69   74   71 1
    70   75   66 1
    71   76   75 1
    72   77   75 1
    73   78   75 1
    74   79   54 1
    75   80   79 1
    76   81   79 1
    77   82   81 1
    78   83   81 1
    79   84   81 1
    80   85   99 1
    81   86   87 1
    82   87   88 1
    83   89   87 1
    84   90   87 1
    85   91   86 1
    86   92   91 1
    87   93   91 1
    88   94   91 1
    89   95   86 1
    90   96   95 1
    91   97   95 1
    92   98   95 1
    93   99   79 1
    94  100   54 1
    95  101   65 2
    96  102   65 1
    97  103   84 2
    98  104   84 1
    99  105   85 2
   100  106   85 1
   101    9   46 1
   102   13   49 1
   103   33   53 1
   104   47   51 1
   105   62  100 1
   106   66  102 1
   107   86  106 1
   108   99  104 1
@<TRIPOS>SUBSTRUCTURE
     1 RES1 1
     2 RES2 54

@<TRIPOS>CRYSIN
  10.3750   17.5559   10.8576  90.0000  95.0230  90.0000   4 1

