# MOL2 file generated by ConQuest
# Please check atom types

@<TRIPOS>MOLECULE
HURRIX
    52    53     1
SMALL
NO_CHARGES
****
Generated from CSD

@<TRIPOS>ATOM
      1 C1         1.1714    7.7828   10.7370 C.3       1 RES1    0.0000
      2 C2         2.0397    7.7551   12.0057 C.3       1 RES1    0.0000
      3 C3         0.5245    9.2253   13.0590 C.3       1 RES1    0.0000
      4 H1         0.4656   10.0507   13.5651 H         1 RES1    0.0000
      5 H2         0.1657    8.5089   13.6063 H         1 RES1    0.0000
      6 C4        -0.2685    9.3467   11.8056 C.3       1 RES1    0.0000
      7 H3         0.1037   10.0746   11.2643 H         1 RES1    0.0000
      8 C5        -1.7560    9.6055   12.0234 C.3       1 RES1    0.0000
      9 H4        -1.8821   10.3784   12.6130 H         1 RES1    0.0000
     10 C6        -2.5134    9.8023   10.7405 C.3       1 RES1    0.0000
     11 H5        -3.1908   10.4882   10.8453 H         1 RES1    0.0000
     12 H6        -1.9114   10.0641   10.0261 H         1 RES1    0.0000
     13 C7        -3.1380    8.4907   10.4428 C.2       1 RES1    0.0000
     14 C8        -2.9509    8.2528   13.8158 C.2       1 RES1    0.0000
     15 C9        -2.4403    8.9301   16.0861 C.3       1 RES1    0.0000
     16 C10       -1.6279   10.1214   16.5851 C.3       1 RES1    0.0000
     17 H7        -2.0832   10.9363   16.3591 H         1 RES1    0.0000
     18 H8        -0.7619   10.1138   16.1732 H         1 RES1    0.0000
     19 H9        -1.5288   10.0650   17.5384 H         1 RES1    0.0000
     20 C11       -1.7656    7.5841   16.4274 C.3       1 RES1    0.0000
     21 H10       -0.9332    7.5134   15.9531 H         1 RES1    0.0000
     22 H11       -2.3426    6.8619   16.1696 H         1 RES1    0.0000
     23 H12       -1.5995    7.5392   17.3724 H         1 RES1    0.0000
     24 C12       -3.8361    9.0027   16.6263 C.3       1 RES1    0.0000
     25 H13       -4.3495    8.2643   16.2885 H         1 RES1    0.0000
     26 H14       -4.2433    9.8272   16.3521 H         1 RES1    0.0000
     27 H15       -3.8117    8.9617   17.5855 H         1 RES1    0.0000
     28 C13        3.5293    7.6338   11.7079 C.3       1 RES1    0.0000
     29 H16        4.0198    7.6109   12.5330 H         1 RES1    0.0000
     30 H17        3.8139    8.3894   11.1878 H         1 RES1    0.0000
     31 H18        3.6926    6.8266   11.2148 H         1 RES1    0.0000
     32 C14        1.1008    6.4397   10.0485 C.3       1 RES1    0.0000
     33 H19        1.9638    6.2171    9.6919 H         1 RES1    0.0000
     34 H20        0.4595    6.4788    9.3353 H         1 RES1    0.0000
     35 H21        0.8330    5.7691   10.6829 H         1 RES1    0.0000
     36 C15        1.0690    9.0515    8.7103 C.3       1 RES1    0.0000
     37 H22        0.1200    8.9970    8.8457 H         1 RES1    0.0000
     38 H23        1.3365    8.4047    8.0536 H         1 RES1    0.0000
     39 H24        1.2984    9.9323    8.4043 H         1 RES1    0.0000
     40 C16        2.1268    6.4101   13.9829 C.3       1 RES1    0.0000
     41 H25        2.2846    7.2412   14.4372 H         1 RES1    0.0000
     42 H26        2.9600    5.9525   13.8535 H         1 RES1    0.0000
     43 H27        1.5405    5.8636   14.5114 H         1 RES1    0.0000
     44 N1        -2.4269    8.4162   12.5899 N.am      1 RES1    0.0000
     45 O1        -0.1699    8.1228   11.0642 O.3       1 RES1    0.0000
     46 O2         1.8813    8.9524   12.7433 O.3       1 RES1    0.0000
     47 O3        -3.1389    7.7256   11.5778 O.3       1 RES1    0.0000
     48 O4        -3.6209    8.0599    9.4683 O.2       1 RES1    0.0000
     49 O5        -3.7529    7.4007   14.0959 O.2       1 RES1    0.0000
     50 O6        -2.3817    9.1202   14.6513 O.3       1 RES1    0.0000
     51 O7         1.5307    6.6642   12.7345 O.3       1 RES1    0.0000
     52 O8         1.7357    8.7878    9.9327 O.3       1 RES1    0.0000
@<TRIPOS>BOND
     1    1    2 1
     2    2   28 1
     3    3    4 1
     4    5    3 1
     5    6    3 1
     6    7    6 1
     7    8    6 1
     8    9    8 1
     9   10    8 1
    10   11   10 1
    11   12   10 1
    12   13   10 1
    13   14   44 1
    14   15   16 1
    15   16   17 1
    16   18   16 1
    17   19   16 1
    18   20   15 1
    19   21   20 1
    20   22   20 1
    21   23   20 1
    22   24   15 1
    23   25   24 1
    24   26   24 1
    25   27   24 1
    26   28   29 1
    27   30   28 1
    28   31   28 1
    29   32    1 1
    30   33   32 1
    31   34   32 1
    32   35   32 1
    33   36   37 1
    34   38   36 1
    35   39   36 1
    36   40   41 1
    37   42   40 1
    38   43   40 1
    39   44    8 1
    40   45    1 1
    41   46    2 1
    42   47   13 1
    43   48   13 2
    44   49   14 2
    45   50   14 1
    46   51    2 1
    47   52    1 1
    48    3   46 1
    49    6   45 1
    50   15   50 1
    51   36   52 1
    52   40   51 1
    53   44   47 1
@<TRIPOS>SUBSTRUCTURE
     1 RES1 1

@<TRIPOS>CRYSIN
  10.2480    9.5530   11.9320  90.0000  99.4770  90.0000   4 1

