# MOL2 file generated by ConQuest
# Please check atom types

@<TRIPOS>MOLECULE
HURVAT
    67    62     2
SMALL
NO_CHARGES
****
Generated from CSD

@<TRIPOS>ATOM
      1 C1         0.0189   -3.3969    3.2176 C.ar      1 RES1    0.0000
      2 H1        -0.0965   -2.6133    3.7043 H         1 RES1    0.0000
      3 C2        -1.0163   -4.2834    3.0816 C.ar      1 RES1    0.0000
      4 H2        -1.8336   -4.0978    3.4847 H         1 RES1    0.0000
      5 C3        -0.8671   -5.4399    2.3580 C.ar      1 RES1    0.0000
      6 H3        -1.5778   -6.0329    2.2663 H         1 RES1    0.0000
      7 C4         0.3213   -5.7066    1.7836 C.ar      1 RES1    0.0000
      8 H4         0.4232   -6.4844    1.2848 H         1 RES1    0.0000
      9 C5         1.3896   -4.8453    1.9227 C.ar      1 RES1    0.0000
     10 H5         2.2116   -5.0552    1.5408 H         1 RES1    0.0000
     11 C6         1.2339   -3.6735    2.6301 C.ar      1 RES1    0.0000
     12 C7         2.4125   -2.7234    2.7752 C.3       1 RES1    0.0000
     13 C8         2.2398   -1.4827    1.8784 C.3       1 RES1    0.0000
     14 C9         3.2685   -0.3941    2.1494 C.3       1 RES1    0.0000
     15 C10        3.1591    0.8044    1.2082 C.ar      1 RES1    0.0000
     16 C11        4.3011    1.4243    0.7608 C.ar      1 RES1    0.0000
     17 H6         5.1305    1.0728    0.9946 H         1 RES1    0.0000
     18 C12        4.2454    2.5536   -0.0262 C.ar      1 RES1    0.0000
     19 H7         5.0288    2.9448   -0.3376 H         1 RES1    0.0000
     20 C13        3.0143    3.1043   -0.3507 C.ar      1 RES1    0.0000
     21 H8         2.9673    3.8875   -0.8505 H         1 RES1    0.0000
     22 C14        1.8746    2.4858    0.0715 C.ar      1 RES1    0.0000
     23 H9         1.0474    2.8376   -0.1673 H         1 RES1    0.0000
     24 C15        1.9290    1.3551    0.8414 C.ar      1 RES1    0.0000
     25 H10        1.1408    0.9494    1.1226 H         1 RES1    0.0000
     26 C16        3.0467    0.0837    3.6247 C.3       1 RES1    0.0000
     27 C17        3.0145   -1.0806    4.5911 C.2       1 RES1    0.0000
     28 C18        3.3865   -0.8018    5.9918 C.2       1 RES1    0.0000
     29 C19        3.6711    0.9667    7.5477 C.3       1 RES1    0.0000
     30 H11        3.1393    0.5403    8.2239 H         1 RES1    0.0000
     31 H12        3.5514    1.9179    7.5991 H         1 RES1    0.0000
     32 H13        4.5967    0.7527    7.6848 H         1 RES1    0.0000
     33 C20        2.6657   -2.3043    4.2092 C.2       1 RES1    0.0000
     34 C21        2.5812   -3.4519    5.1766 C.2       1 RES1    0.0000
     35 C22        1.3874   -4.3645    7.0046 C.3       1 RES1    0.0000
     36 H14        0.7865   -5.0264    6.6539 H         1 RES1    0.0000
     37 H15        1.0194   -3.9943    7.8107 H         1 RES1    0.0000
     38 H16        2.2345   -4.7720    7.1981 H         1 RES1    0.0000
     39 C23        1.7692    0.8962    3.7910 C.2       1 RES1    0.0000
     40 O1         2.0305    2.1975    3.9079 O.3       1 RES1    0.0000
     41 C24        0.7714    3.0225    3.8767 C.3       1 RES1    0.0000
     42 H17        0.0464    2.5560    3.4323 H         1 RES1    0.0000
     43 H18        0.9147    3.8812    3.4484 H         1 RES1    0.0000
     44 C25        0.5083    3.1766    5.3993 C.3       1 RES1    0.0000
     45 H19        0.0017    2.4232    5.7147 H         1 RES1    0.0000
     46 H20        0.0145    3.9839    5.5585 H         1 RES1    0.0000
     47 H21        1.3462    3.2167    5.8669 H         1 RES1    0.0000
     48 N1         2.3115   -1.9247    0.4404 N.pl3     1 RES1    0.0000
     49 O2         3.2289   -2.6525    0.1058 O.2       1 RES1    0.0000
     50 O3         1.4586   -1.5414   -0.3205 O.2       1 RES1    0.0000
     51 O4         4.5800   -0.8953    2.0285 O.3       1 RES1    0.0000
     52 H22        4.6645   -1.4895    2.6100 H         1 RES1    0.0000
     53 O5         0.6879    0.3978    3.7870 O.2       1 RES1    0.0000
     54 O6         3.2604    0.5042    6.2548 O.3       1 RES1    0.0000
     55 O7         3.7641   -1.6056    6.7970 O.2       1 RES1    0.0000
     56 O8         1.5706   -3.3060    6.0251 O.3       1 RES1    0.0000
     57 O9         3.3144   -4.4048    5.1242 O.2       1 RES1    0.0000
     58 H23        3.8598    0.6275    3.8293 H         1 RES1    0.0000
     59 H24        1.4040   -1.1353    1.9449 H         1 RES1    0.0000
     60 H25        3.2389   -3.2063    2.5697 H         1 RES1    0.0000
     61 C26        1.2737    3.3046    4.4037 Du        2 SUP2    0.0000
     62 H26        1.7768    3.7073    5.1272 Du        2 SUP2    0.0000
     63 H27        1.2178    3.9649    3.6922 Du        2 SUP2    0.0000
     64 C27       -0.1414    3.0392    4.9075 Du        2 SUP2    0.0000
     65 H28       -0.3891    2.1346    4.6909 Du        2 SUP2    0.0000
     66 H29       -0.7492    3.6462    4.4823 Du        2 SUP2    0.0000
     67 H30       -0.1691    3.1606    5.8558 Du        2 SUP2    0.0000
@<TRIPOS>BOND
     1    1    2 1
     2    3    1 ar
     3    4    3 1
     4    5    3 ar
     5    6    5 1
     6    7    5 ar
     7    8    7 1
     8    9    7 ar
     9   10    9 1
    10   11    1 ar
    11   12   11 1
    12   13   12 1
    13   14   13 1
    14   15   14 1
    15   16   15 ar
    16   17   16 1
    17   18   16 ar
    18   19   18 1
    19   20   18 ar
    20   21   20 1
    21   22   20 ar
    22   23   22 1
    23   24   15 ar
    24   25   24 1
    25   26   14 1
    26   27   26 1
    27   28   27 1
    28   29   30 1
    29   31   29 1
    30   32   29 1
    31   33   12 1
    32   34   33 1
    33   35   36 1
    34   37   35 1
    35   38   35 1
    36   39   26 1
    37   40   39 1
    38   41   40 1
    39   42   41 1
    40   43   41 1
    41   44   41 1
    42   45   44 1
    43   46   44 1
    44   47   44 1
    45   48   13 1
    46   49   48 2
    47   50   48 2
    48   51   14 1
    49   52   51 1
    50   53   39 2
    51   54   28 1
    52   55   28 2
    53   56   34 1
    54   57   34 2
    55   58   26 1
    56   59   13 1
    57   60   12 1
    58    9   11 ar
    59   22   24 ar
    60   27   33 2
    61   29   54 1
    62   35   56 1
@<TRIPOS>SUBSTRUCTURE
     1 RES1 1
     2 SUP2 61

@<TRIPOS>CRYSIN
  10.9250   10.9390   11.2950 113.7930  97.6320  99.6290   2 1

