# MOL2 file generated by ConQuest
# Please check atom types

@<TRIPOS>MOLECULE
HURZUQ
    48    51     1
SMALL
NO_CHARGES
****
Generated from CSD

@<TRIPOS>ATOM
      1 C1         6.8843    2.8947    4.0342 C.ar      1 RES1    0.0000
      2 C2         7.4444    1.6441    4.1847 C.ar      1 RES1    0.0000
      3 C3         7.4817    0.8407    3.0675 C.ar      1 RES1    0.0000
      4 H1         7.8779   -0.0219    3.1187 H         1 RES1    0.0000
      5 C4         6.9462    1.2816    1.8708 C.ar      1 RES1    0.0000
      6 H2         6.9699    0.7415    1.0907 H         1 RES1    0.0000
      7 C5         6.3797    2.5299    1.8557 C.ar      1 RES1    0.0000
      8 H3         5.9954    2.8309    1.0409 H         1 RES1    0.0000
      9 C6         7.7704    3.5929    6.1057 C.3       1 RES1    0.0000
     10 H4         7.5928    4.2208    6.8512 H         1 RES1    0.0000
     11 H5         8.6693    3.7953    5.7439 H         1 RES1    0.0000
     12 C7         7.7486    2.1751    6.6310 C.3       1 RES1    0.0000
     13 H6         8.4526    2.0711    7.3343 H         1 RES1    0.0000
     14 C8         7.9899    1.1543    5.5191 C.3       1 RES1    0.0000
     15 H7         8.9681    0.9643    5.4391 H         1 RES1    0.0000
     16 C9         6.4034    1.7280    7.1925 C.3       1 RES1    0.0000
     17 H8         5.7085    2.3908    6.9113 H         1 RES1    0.0000
     18 C10        6.4007    1.6452    8.7124 C.2       1 RES1    0.0000
     19 C11        6.3879    3.0090   10.6560 C.3       1 RES1    0.0000
     20 H9         6.8078    3.8701   10.9030 H         1 RES1    0.0000
     21 H10        6.9371    2.2793   11.0398 H         1 RES1    0.0000
     22 C12        5.0191    2.9465   11.2205 C.3       1 RES1    0.0000
     23 H11        5.0601    3.0811   12.1907 H         1 RES1    0.0000
     24 H12        4.6266    2.0693   11.0274 H         1 RES1    0.0000
     25 H13        4.4672    3.6473   10.8159 H         1 RES1    0.0000
     26 C13        8.0446   -0.9318    6.8487 C.3       1 RES1    0.0000
     27 H14        8.4635   -0.3744    7.5666 H         1 RES1    0.0000
     28 C14        7.1156   -1.9692    7.4656 C.3       1 RES1    0.0000
     29 H15        6.6648   -2.4821    6.7475 H         1 RES1    0.0000
     30 H16        6.4207   -1.5159    8.0041 H         1 RES1    0.0000
     31 C15        7.9143   -2.9241    8.3554 C.3       1 RES1    0.0000
     32 H17        7.3041   -3.6053    8.7361 H         1 RES1    0.0000
     33 H18        8.3132   -2.4163    9.1052 H         1 RES1    0.0000
     34 C16        9.0245   -3.6225    7.5668 C.3       1 RES1    0.0000
     35 H19        9.5591   -4.1898    8.1783 H         1 RES1    0.0000
     36 H20        8.6229   -4.2080    6.8761 H         1 RES1    0.0000
     37 C17        9.9334   -2.5949    6.8980 C.3       1 RES1    0.0000
     38 H21       10.4180   -2.0821    7.5914 H         1 RES1    0.0000
     39 H22       10.6028   -3.0610    6.3369 H         1 RES1    0.0000
     40 C18        9.1256   -1.6372    6.0311 C.3       1 RES1    0.0000
     41 H23        8.7021   -2.1405    5.2918 H         1 RES1    0.0000
     42 H24        9.7313   -0.9625    5.6340 H         1 RES1    0.0000
     43 O1         6.4617    0.6559    9.3625 O.2       1 RES1    0.0000
     44 O2         6.3589    2.8822    9.2080 O.3       1 RES1    0.0000
     45 O3         6.7837    3.7894    5.0702 O.3       1 RES1    0.0000
     46 O4         6.0897    0.4624    6.5967 O.3       1 RES1    0.0000
     47 N1         6.3287    3.3591    2.9122 N.ar      1 RES1    0.0000
     48 N2         7.2723   -0.0676    5.9100 N.3       1 RES1    0.0000
@<TRIPOS>BOND
     1    1    2 ar
     2    2    3 ar
     3    3    4 1
     4    5    3 ar
     5    6    5 1
     6    7    5 ar
     7    8    7 1
     8    9   10 1
     9   11    9 1
    10   12    9 1
    11   13   12 1
    12   14    2 1
    13   15   14 1
    14   16   12 1
    15   17   16 1
    16   18   16 1
    17   19   20 1
    18   21   19 1
    19   22   19 1
    20   23   22 1
    21   24   22 1
    22   25   22 1
    23   26   27 1
    24   28   26 1
    25   29   28 1
    26   30   28 1
    27   31   28 1
    28   32   31 1
    29   33   31 1
    30   34   31 1
    31   35   34 1
    32   36   34 1
    33   37   34 1
    34   38   37 1
    35   39   37 1
    36   40   26 1
    37   41   40 1
    38   42   40 1
    39   43   18 2
    40   44   18 1
    41   45    1 1
    42   46   16 1
    43   47    1 ar
    44   48   14 1
    45    7   47 ar
    46    9   45 1
    47   12   14 1
    48   19   44 1
    49   26   48 1
    50   37   40 1
    51   46   48 1
@<TRIPOS>SUBSTRUCTURE
     1 RES1 1

@<TRIPOS>CRYSIN
   9.1074   18.2640   20.7360  90.0000  90.0000  90.0000  61 1

