# MOL2 file generated by ConQuest
# Please check atom types

@<TRIPOS>MOLECULE
HUSSAQ
    47    35     2
SMALL
NO_CHARGES
****
Generated from CSD

@<TRIPOS>ATOM
      1 O1         4.2511    1.1516    1.8624 O.2       1 RES1    0.0000
      2 O2         2.7375    3.2049    2.9308 O.3       1 RES1    0.0000
      3 O3         3.2885    2.0004    4.7907 O.3       1 RES1    0.0000
      4 O4         6.5697    3.7656    1.8849 O.3       1 RES1    0.0000
      5 N1         5.9338    2.5749    1.5141 N.am      1 RES1    0.0000
      6 C1         4.7770    2.2293    2.1021 C.2       1 RES1    0.0000
      7 C2         4.1502    3.2457    3.0575 C.3       1 RES1    0.0000
      8 C3         4.3793    2.8874    4.5349 C.3       1 RES1    0.0000
      9 C4         2.1722    2.5078    4.0644 C.3       1 RES1    0.0000
     10 C5         1.3810    3.4979    4.8844 C.3       1 RES1    0.0000
     11 C6         1.3503    1.3421    3.5805 C.3       1 RES1    0.0000
     12 C7         6.6899    1.7224    0.6250 C.3       1 RES1    0.0000
     13 C8         6.3693    4.7601    0.8604 C.3       1 RES1    0.0000
     14 C9         5.7346    2.2843    4.8109 C.3       1 RES1    0.0000
     15 C10        5.9751    2.2891    6.2889 C.2       1 RES1    0.0000
     16 C11        6.3693    1.2601    6.9716 C.2       1 RES1    0.0000
     17 H1         4.4920    4.1647    2.8643 H         1 RES1    0.0000
     18 H2         4.2840    3.7085    5.0991 H         1 RES1    0.0000
     19 H3         0.9819    3.0328    5.6739 H         1 RES1    0.0000
     20 H4         1.9866    4.2288    5.1989 H         1 RES1    0.0000
     21 H5         0.6517    3.8881    4.3230 H         1 RES1    0.0000
     22 H6         0.9601    0.8611    4.3649 H         1 RES1    0.0000
     23 H7         1.9331    0.7165    3.0623 H         1 RES1    0.0000
     24 H8         0.6128    1.6756    2.9931 H         1 RES1    0.0000
     25 H9         7.5107    2.2047    0.3188 H         1 RES1    0.0000
     26 H10        6.9546    0.8873    1.1077 H         1 RES1    0.0000
     27 H11        6.1281    1.4853   -0.1674 H         1 RES1    0.0000
     28 H12        6.8234    5.6103    1.1270 H         1 RES1    0.0000
     29 H13        6.7546    4.4327   -0.0016 H         1 RES1    0.0000
     30 H14        5.3898    4.9278    0.7455 H         1 RES1    0.0000
     31 H15        6.4414    2.8241    4.3536 H         1 RES1    0.0000
     32 H16        5.6132    1.2455    4.4518 H         1 RES1    0.0000
     33 H17        5.8204    3.1444    6.7832 H         1 RES1    0.0000
     34 H18        6.5094    1.3378    7.9585 H         1 RES1    0.0000
     35 H19        6.5344    0.3883    6.5111 H         1 RES1    0.0000
     36 C12        5.5978    2.0824    4.9992 Du        2 SUP2    0.0000
     37 C13        5.7338    1.6620    6.4274 Du        2 SUP2    0.0000
     38 C14        6.5798    2.0911    7.3145 Du        2 SUP2    0.0000
     39 H20        4.2686    3.7104    5.0910 Du        2 SUP2    0.0000
     40 H21        6.1580    0.9019    0.4186 Du        2 SUP2    0.0000
     41 H22        7.5496    1.4611    1.0642 Du        2 SUP2    0.0000
     42 H23        6.8858    2.2154   -0.2222 Du        2 SUP2    0.0000
     43 H24        5.7597    1.3446    4.4695 Du        2 SUP2    0.0000
     44 H25        6.4033    2.6348    4.7867 Du        2 SUP2    0.0000
     45 H26        5.0911    0.9621    6.7381 Du        2 SUP2    0.0000
     46 H27        6.5620    1.7203    8.2435 Du        2 SUP2    0.0000
     47 H28        7.2501    2.7911    7.0682 Du        2 SUP2    0.0000
@<TRIPOS>BOND
     1    1    6 2
     2    2    7 1
     3    3    8 1
     4    4    5 1
     5    5    6 1
     6    6    7 1
     7    7    8 1
     8    8   14 1
     9    9    2 1
    10   10    9 1
    11   11    9 1
    12   12    5 1
    13   13    4 1
    14   14   15 1
    15   15   16 2
    16   16   34 1
    17   17    7 1
    18   18    8 1
    19   19   10 1
    20   20   10 1
    21   21   10 1
    22   22   11 1
    23   23   11 1
    24   24   11 1
    25   25   12 1
    26   26   12 1
    27   27   12 1
    28   28   13 1
    29   29   13 1
    30   30   13 1
    31   31   14 1
    32   32   14 1
    33   33   15 1
    34   35   16 1
    35    3    9 1
@<TRIPOS>SUBSTRUCTURE
     1 RES1 1
     2 SUP2 36

@<TRIPOS>CRYSIN
   8.0952    9.7080   16.1006  90.0000  90.0000  90.0000  19 1

