# MOL2 file generated by ConQuest
# Please check atom types

@<TRIPOS>MOLECULE
HUSXAW
    21    20     1
SMALL
NO_CHARGES
****
Generated from CSD

@<TRIPOS>ATOM
      1 C1         4.2730    1.6242    2.4707 C.2       1 RES1    0.0000
      2 C2         5.6918    1.6242    2.1804 C.1       1 RES1    0.0000
      3 C3         3.3557    1.6242    1.2778 C.2       1 RES1    0.0000
      4 C4         1.8457    1.6242    1.4143 C.3       1 RES1    0.0000
      5 C5         1.2306    1.6242    0.0124 C.3       1 RES1    0.0000
      6 C6         1.4020    0.3573    2.1611 C.3       1 RES1    0.0000
      7 H1         4.3931    1.6242    5.3993 H         1 RES1    0.0000
      8 H2         1.5114    0.8251   -0.5103 H         1 RES1    0.0000
      9 H3         1.7441   -0.4678    1.6963 H         1 RES1    0.0000
     10 H4         0.2473    1.6242    0.0827 H         1 RES1    0.0000
     11 H5         0.4415    0.3313    2.1790 H         1 RES1    0.0000
     12 H6         1.7184    0.3573    3.0823 H         1 RES1    0.0000
     13 N1         3.8131    1.6242    3.6703 N.2       1 RES1    0.0000
     14 N2         6.8136    1.6242    1.9508 N.1       1 RES1    0.0000
     15 O1         4.8138    1.6242    4.6004 O.3       1 RES1    0.0000
     16 O2         3.9298    1.6242    0.2003 O.2       1 RES1    0.0000
     17 C6F        1.4020    2.8910    2.1611 C.3       1 RES1    0.0000
     18 H2F        1.5114    2.4233   -0.5103 H         1 RES1    0.0000
     19 H3F        1.7441    3.7161    1.6963 H         1 RES1    0.0000
     20 H5F        0.4415    2.9170    2.1790 H         1 RES1    0.0000
     21 H6F        1.7184    2.8910    3.0823 H         1 RES1    0.0000
@<TRIPOS>BOND
     1    1    2 1
     2    2   14 3
     3    3    1 1
     4    4    3 1
     5    5    4 1
     6    6    4 1
     7    7   15 1
     8    8    5 1
     9    9    6 1
    10   10    5 1
    11   11    6 1
    12   12    6 1
    13   13    1 2
    14   15   13 1
    15   16    3 2
    16   17    4 1
    17   18    5 1
    18   19   17 1
    19   20   17 1
    20   21   17 1
@<TRIPOS>SUBSTRUCTURE
     1 RES1 1

@<TRIPOS>CRYSIN
  18.3200    6.4967    6.8956  90.0000  90.0000  90.0000  62 1

