# MOL2 file generated by ConQuest
# Please check atom types

@<TRIPOS>MOLECULE
HUTKIR
    30    31     1
SMALL
NO_CHARGES
****
Generated from CSD

@<TRIPOS>ATOM
      1 O1         1.2894    2.3569    2.6174 O.2       1 RES1    0.0000
      2 O2         7.0737    1.4129    2.3919 O.3       1 RES1    0.0000
      3 O3         1.1471   -0.5950    2.3905 O.2       1 RES1    0.0000
      4 O4         1.4548   -0.2763    4.5100 O.2       1 RES1    0.0000
      5 N1         2.5588    1.4428    0.9911 N.am      1 RES1    0.0000
      6 N2         1.8289   -0.2260    3.3390 N.pl3     1 RES1    0.0000
      7 C1         2.9623    1.3275   -0.4133 C.3       1 RES1    0.0000
      8 C2         4.3473    1.8619   -0.6024 C.2       1 RES1    0.0000
      9 C3         5.2160    1.8853    0.4070 C.2       1 RES1    0.0000
     10 C4         5.8184    0.9867    2.6760 C.ar      1 RES1    0.0000
     11 C5         5.4668    0.2931    3.8247 C.ar      1 RES1    0.0000
     12 C6         4.1506   -0.0704    4.0194 C.ar      1 RES1    0.0000
     13 C7         3.1833    0.2585    3.0860 C.ar      1 RES1    0.0000
     14 C8         3.5103    0.9747    1.9342 C.ar      1 RES1    0.0000
     15 C9         4.8496    1.2971    1.6968 C.ar      1 RES1    0.0000
     16 C10        8.1105    1.0897    3.3380 C.3       1 RES1    0.0000
     17 C11        1.4701    2.1505    1.4268 C.2       1 RES1    0.0000
     18 C12        0.4983    2.6456    0.3840 C.3       1 RES1    0.0000
     19 H1         2.2878    1.8211   -1.0166 H         1 RES1    0.0000
     20 H2         2.9102    0.3755   -0.6677 H         1 RES1    0.0000
     21 H3         4.5511    2.1734   -1.4935 H         1 RES1    0.0000
     22 H4         6.1529    2.2246    0.2675 H         1 RES1    0.0000
     23 H5         6.1084    0.0743    4.4712 H         1 RES1    0.0000
     24 H6         3.8632   -0.6184    4.8120 H         1 RES1    0.0000
     25 H7         0.9415    3.2948   -0.2152 H         1 RES1    0.0000
     26 H8         0.1708    1.8492   -0.1221 H         1 RES1    0.0000
     27 H9        -0.2594    3.0438    0.8666 H         1 RES1    0.0000
     28 H10        7.8459    1.4376    4.2199 H         1 RES1    0.0000
     29 H11        8.2592    0.1024    3.3592 H         1 RES1    0.0000
     30 H12        8.8971    1.4978    2.9870 H         1 RES1    0.0000
@<TRIPOS>BOND
     1    1   17 2
     2    2   10 1
     3    3    6 2
     4    4    6 2
     5    5    7 1
     6    6   13 1
     7    7    8 1
     8    8    9 2
     9    9   15 1
    10   10   11 ar
    11   11   12 ar
    12   12   13 ar
    13   13   14 ar
    14   14    5 1
    15   15   10 ar
    16   16    2 1
    17   17    5 1
    18   18   17 1
    19   19    7 1
    20   20    7 1
    21   21    8 1
    22   22    9 1
    23   23   11 1
    24   24   12 1
    25   25   18 1
    26   26   18 1
    27   27   18 1
    28   28   16 1
    29   29   16 1
    30   30   16 1
    31   14   15 ar
@<TRIPOS>SUBSTRUCTURE
     1 RES1 1

@<TRIPOS>CRYSIN
   9.9780   10.0390   11.7330  90.0000  97.5400  90.0000  14 1

