# MOL2 file generated by ConQuest
# Please check atom types

@<TRIPOS>MOLECULE
HUTPIX
    74    76     2
SMALL
NO_CHARGES
****
Generated from CSD

@<TRIPOS>ATOM
      1 O1         7.7563   12.0012    6.3653 O.2       1 RES1    0.0000
      2 O2         7.1398   12.6609    4.3982 O.2       1 RES1    0.0000
      3 O3         7.6629    8.6917    3.4275 O.3       1 RES1    0.0000
      4 O4         7.0494   12.2691    0.5778 O.2       1 RES1    0.0000
      5 N1         7.5360   11.8010    5.1712 N.pl3     1 RES1    0.0000
      6 N2         8.1715    8.2899    4.6936 N.2       1 RES1    0.0000
      7 N3         4.8198    9.2347    1.9206 N.3       1 RES1    0.0000
      8 C1         8.7301    9.3144    6.8308 C.3       1 RES1    0.0000
      9 H1         9.0699    8.4151    7.0203 H         1 RES1    0.0000
     10 H2         7.9974    9.5227    7.4471 H         1 RES1    0.0000
     11 H3         9.4511    9.9674    6.9471 H         1 RES1    0.0000
     12 C2         8.2296    9.3702    5.4267 C.2       1 RES1    0.0000
     13 C3         7.4055   10.0217    3.4378 C.2       1 RES1    0.0000
     14 C4         7.7590   10.4852    4.6746 C.2       1 RES1    0.0000
     15 C5         8.9555   12.0664    1.9546 C.3       1 RES1    0.0000
     16 H4         9.4773   12.3191    1.1642 H         1 RES1    0.0000
     17 H5         9.3815   11.3023    2.3965 H         1 RES1    0.0000
     18 H6         8.9175   12.8232    2.5758 H         1 RES1    0.0000
     19 C6         7.5535   11.6885    1.5341 C.2       1 RES1    0.0000
     20 C7         6.8575   10.6006    2.2277 C.2       1 RES1    0.0000
     21 C8         5.7475   10.1011    1.5609 C.2       1 RES1    0.0000
     22 H7         5.6340   10.4471    0.6831 H         1 RES1    0.0000
     23 C9         4.6649    8.6686    3.2619 C.3       1 RES1    0.0000
     24 H8         5.2492    9.1524    3.8978 H         1 RES1    0.0000
     25 H9         4.9347    7.7167    3.2564 H         1 RES1    0.0000
     26 C10        3.2193    8.7882    3.7033 C.3       1 RES1    0.0000
     27 H10        2.9884    9.7458    3.8069 H         1 RES1    0.0000
     28 H11        3.1114    8.3528    4.5859 H         1 RES1    0.0000
     29 C11        3.9034    8.6804    0.9019 C.3       1 RES1    0.0000
     30 H12        4.1331    7.7318    0.7361 H         1 RES1    0.0000
     31 H13        4.0201    9.1751    0.0530 H         1 RES1    0.0000
     32 C12        2.4564    8.7744    1.3409 C.3       1 RES1    0.0000
     33 H14        1.8808    8.3116    0.6818 H         1 RES1    0.0000
     34 H15        2.1827    9.7252    1.3725 H         1 RES1    0.0000
     35 C13        2.2619    8.1473    2.7096 C.3       1 RES1    0.0000
     36 H16        2.4338    7.1734    2.6591 H         1 RES1    0.0000
     37 H17        1.3279    8.2811    3.0089 H         1 RES1    0.0000
     38 O5         5.6717    4.6369    6.7838 O.2       2 RES2    0.0000
     39 O6         4.8873    5.4609    4.9328 O.2       2 RES2    0.0000
     40 O7         8.1739    3.6233    3.2633 O.3       2 RES2    0.0000
     41 O8         6.5188    6.3026    0.5311 O.2       2 RES2    0.0000
     42 N4         5.7205    4.8098    5.5636 N.pl3     2 RES2    0.0000
     43 N5         8.7505    3.1842    4.4897 N.2       2 RES2    0.0000
     44 N6         4.0576    3.8698    2.5292 N.pl3     2 RES2    0.0000
     45 C14        2.6299    4.0659    2.2143 C.3       2 RES2    0.0000
     46 H18        2.5269    4.8647    1.6389 H         2 RES2    0.0000
     47 H19        2.1275    4.2249    3.0518 H         2 RES2    0.0000
     48 C15        4.3449    2.6617    3.3238 C.3       2 RES2    0.0000
     49 H20        3.9663    2.7655    4.2324 H         2 RES2    0.0000
     50 H21        5.3250    2.5480    3.4104 H         2 RES2    0.0000
     51 C16        3.7465    1.4323    2.6609 C.3       2 RES2    0.0000
     52 H22        3.8534    0.6558    3.2652 H         2 RES2    0.0000
     53 H23        4.2454    1.2390    1.8283 H         2 RES2    0.0000
     54 C17        2.2688    1.6029    2.3274 C.3       2 RES2    0.0000
     55 H24        1.9496    0.8163    1.8182 H         2 RES2    0.0000
     56 H25        1.7434    1.6619    3.1655 H         2 RES2    0.0000
     57 C18        2.0562    2.8593    1.5058 C.3       2 RES2    0.0000
     58 H26        2.4943    2.7548    0.6237 H         2 RES2    0.0000
     59 H27        1.0875    2.9956    1.3536 H         2 RES2    0.0000
     60 C19        7.0031    4.2540    3.4983 C.2       2 RES2    0.0000
     61 C20        6.8026    4.2093    4.8546 C.2       2 RES2    0.0000
     62 C21        7.9152    3.5285    5.4291 C.2       2 RES2    0.0000
     63 C22        6.3280    4.8494    2.3670 C.2       2 RES2    0.0000
     64 C23        4.9607    4.7244    2.0969 C.2       2 RES2    0.0000
     65 H28        4.6219    5.3734    1.4912 H         2 RES2    0.0000
     66 C24        7.0584    5.7677    1.5009 C.2       2 RES2    0.0000
     67 C25        8.5089    6.0928    1.7917 C.3       2 RES2    0.0000
     68 H29        9.0756    5.3515    1.4937 H         2 RES2    0.0000
     69 H30        8.6263    6.2269    2.7551 H         2 RES2    0.0000
     70 H31        8.7621    6.9102    1.3144 H         2 RES2    0.0000
     71 C26        8.2223    3.2187    6.8504 C.3       2 RES2    0.0000
     72 H32        9.0575    2.7080    6.9004 H         2 RES2    0.0000
     73 H33        7.4931    2.6898    7.2350 H         2 RES2    0.0000
     74 H34        8.3201    4.0548    7.3536 H         2 RES2    0.0000
@<TRIPOS>BOND
     1    1    5 2
     2    2    5 2
     3    3    6 1
     4    4   19 2
     5    5   14 1
     6    6   12 2
     7    7   21 1
     8    8    9 1
     9   10    8 1
    10   11    8 1
    11   12    8 1
    12   13    3 1
    13   14   12 1
    14   15   16 1
    15   17   15 1
    16   18   15 1
    17   19   15 1
    18   20   13 1
    19   21   20 2
    20   22   21 1
    21   23    7 1
    22   24   23 1
    23   25   23 1
    24   26   23 1
    25   27   26 1
    26   28   26 1
    27   29    7 1
    28   30   29 1
    29   31   29 1
    30   32   29 1
    31   33   32 1
    32   34   32 1
    33   35   26 1
    34   36   35 1
    35   37   35 1
    36   38   42 2
    37   39   42 2
    38   40   43 1
    39   41   66 2
    40   42   61 1
    41   43   62 2
    42   44   45 1
    43   45   46 1
    44   47   45 1
    45   48   44 1
    46   49   48 1
    47   50   48 1
    48   51   48 1
    49   52   51 1
    50   53   51 1
    51   54   51 1
    52   55   54 1
    53   56   54 1
    54   57   45 1
    55   58   57 1
    56   59   57 1
    57   60   40 1
    58   61   60 2
    59   62   61 1
    60   63   60 1
    61   64   44 1
    62   65   64 1
    63   66   63 1
    64   67   66 1
    65   68   67 1
    66   69   67 1
    67   70   67 1
    68   71   62 1
    69   72   71 1
    70   73   71 1
    71   74   71 1
    72   13   14 2
    73   19   20 1
    74   32   35 1
    75   54   57 1
    76   63   64 2
@<TRIPOS>SUBSTRUCTURE
     1 RES1 1
     2 RES2 38

@<TRIPOS>CRYSIN
   9.1775   11.9130   13.1110  74.4580  87.5890  86.8640   2 1

