# MOL2 file generated by ConQuest
# Please check atom types

@<TRIPOS>MOLECULE
HUVCEG
    35    41     1
SMALL
NO_CHARGES
****
Generated from CSD

@<TRIPOS>ATOM
      1 N1        11.4383    0.6891   -0.1611 N.3       1 RES1    0.0000
      2 C1        12.5386    1.4035    0.4511 C.3       1 RES1    0.0000
      3 C2        13.1200    2.5545   -0.4272 C.3       1 RES1    0.0000
      4 C3        11.9708    3.4512   -0.8426 C.2       1 RES1    0.0000
      5 C4        10.7528    2.9638   -0.9991 C.2       1 RES1    0.0000
      6 C5        10.4168    1.5131   -0.7799 C.3       1 RES1    0.0000
      7 C6         9.0470    1.5599   -0.0403 C.3       1 RES1    0.0000
      8 C7         8.4515    2.8071   -0.6584 C.ar      1 RES1    0.0000
      9 C8         9.4553    3.6291   -1.1796 C.ar      1 RES1    0.0000
     10 C9         9.1464    4.8591   -1.7500 C.ar      1 RES1    0.0000
     11 C10        7.8180    5.2436   -1.8082 C.ar      1 RES1    0.0000
     12 C11        6.8245    4.4318   -1.3108 C.ar      1 RES1    0.0000
     13 C12        7.1177    3.2090   -0.7255 C.ar      1 RES1    0.0000
     14 O1        11.9339   -0.2905   -1.0901 O.3       1 RES1    0.0000
     15 C13       11.3133   -1.5379   -0.8053 C.3       1 RES1    0.0000
     16 C14       13.7555    1.9283   -1.6956 C.3       1 RES1    0.0000
     17 C15       14.2108    3.3651    0.2796 C.3       1 RES1    0.0000
     18 C16       12.0649    1.7362    1.9588 C.3       1 RES1    0.0000
     19 C17       11.2679    0.5154    2.4211 C.ar      1 RES1    0.0000
     20 C18       11.9023   -0.5892    2.9624 C.ar      1 RES1    0.0000
     21 C19       11.1953   -1.7537    3.2360 C.ar      1 RES1    0.0000
     22 C20        9.8406   -1.8032    2.9833 C.ar      1 RES1    0.0000
     23 C21        9.1919   -0.6959    2.4628 C.ar      1 RES1    0.0000
     24 C22        9.8904    0.4677    2.1608 C.ar      1 RES1    0.0000
     25 C23        9.1769    1.6696    1.5345 C.3       1 RES1    0.0000
     26 C24        9.8508    2.9680    1.9729 C.ar      1 RES1    0.0000
     27 C25       11.2321    3.0024    2.1780 C.ar      1 RES1    0.0000
     28 C26       11.8055    4.1793    2.6522 C.ar      1 RES1    0.0000
     29 C27       11.0483    5.3131    2.8655 C.ar      1 RES1    0.0000
     30 C28        9.6908    5.2800    2.6261 C.ar      1 RES1    0.0000
     31 C29        9.0982    4.1145    2.1951 C.ar      1 RES1    0.0000
     32 C30       13.2882    1.8212    2.7812 C.1       1 RES1    0.0000
     33 N2        14.2353    1.8615    3.4142 N.1       1 RES1    0.0000
     34 C31        7.7830    1.6714    2.0236 C.1       1 RES1    0.0000
     35 N3         6.6858    1.6353    2.3450 N.1       1 RES1    0.0000
@<TRIPOS>BOND
     1    1    2 1
     2    2    3 1
     3    3    4 1
     4    4    5 2
     5    5    6 1
     6    6    1 1
     7    7    6 1
     8    8    7 1
     9    9    5 1
    10   10    9 ar
    11   11   10 ar
    12   12   11 ar
    13   13    8 ar
    14   14    1 1
    15   15   14 1
    16   16    3 1
    17   17    3 1
    18   18    2 1
    19   19   18 1
    20   20   19 ar
    21   21   20 ar
    22   22   21 ar
    23   23   22 ar
    24   24   19 ar
    25   25    7 1
    26   26   25 1
    27   27   18 1
    28   28   27 ar
    29   29   28 ar
    30   30   29 ar
    31   31   26 ar
    32   32   18 1
    33   33   32 3
    34   34   25 1
    35   35   34 3
    36    8    9 ar
    37   12   13 ar
    38   23   24 ar
    39   24   25 1
    40   26   27 ar
    41   30   31 ar
@<TRIPOS>SUBSTRUCTURE
     1 RES1 1

@<TRIPOS>CRYSIN
  14.5160   10.9320    8.0860 112.0400  81.0400  99.6500   2 1

