# MOL2 file generated by ConQuest
# Please check atom types

@<TRIPOS>MOLECULE
HUVDEI
    86    90     2
SMALL
NO_CHARGES
****
Generated from CSD

@<TRIPOS>ATOM
      1 O1         7.9233    1.8337    8.9108 O.3       1 RES1    0.0000
      2 O2         9.2284   -0.7724   11.3146 O.3       1 RES1    0.0000
      3 O3         6.4950    2.7574   10.9708 O.2       1 RES1    0.0000
      4 O4         8.2207    2.2373   12.3681 O.3       1 RES1    0.0000
      5 N1         8.4813    1.9432   10.1987 N.am      1 RES1    0.0000
      6 C1         9.8086    1.3831   10.2783 C.3       1 RES1    0.0000
      7 C2        10.6795    2.0037    9.2339 C.2       1 RES1    0.0000
      8 C3        10.1175    2.6438    8.2143 C.2       1 RES1    0.0000
      9 C4         8.6288    2.7162    8.0046 C.3       1 RES1    0.0000
     10 C5         9.7981   -0.1253   10.1859 C.3       1 RES1    0.0000
     11 C6         7.6339    2.3461   11.1657 C.2       1 RES1    0.0000
     12 C7         7.3687    2.5815   13.4896 C.3       1 RES1    0.0000
     13 C8         8.0633    2.1608   14.7572 C.ar      1 RES1    0.0000
     14 C9         8.6951    0.9283   14.8431 C.ar      1 RES1    0.0000
     15 C10        9.3182    0.5654   16.0264 C.ar      1 RES1    0.0000
     16 C11        9.3199    1.4025   17.1341 C.ar      1 RES1    0.0000
     17 C12        8.6515    2.6203   17.0388 C.ar      1 RES1    0.0000
     18 C13        8.0406    2.9939   15.8505 C.ar      1 RES1    0.0000
     19 C14        8.1750    2.2767    6.6414 C.ar      1 RES1    0.0000
     20 C15        8.6061    1.0531    6.1370 C.ar      1 RES1    0.0000
     21 C16        8.1610    0.6148    4.9196 C.ar      1 RES1    0.0000
     22 C17        7.3041    1.3813    4.2391 C.ar      1 RES1    0.0000
     23 C18        6.8328    2.5691    4.6638 C.ar      1 RES1    0.0000
     24 C19        7.2779    3.0309    5.8957 C.ar      1 RES1    0.0000
     25 O5         5.1359    4.7093   14.1429 O.3       2 RES2    0.0000
     26 O6         3.8611    2.1185   11.7500 O.3       2 RES2    0.0000
     27 O7         6.5827    5.6900   12.1039 O.2       2 RES2    0.0000
     28 O8         4.8760    5.1629   10.6968 O.3       2 RES2    0.0000
     29 N2         4.6247    4.8070   12.8499 N.am      2 RES2    0.0000
     30 C20        3.2550    4.2916   12.7051 C.3       2 RES2    0.0000
     31 C21        2.4155    4.9147   13.7902 C.2       2 RES2    0.0000
     32 C22        2.9478    5.5553   14.8105 C.2       2 RES2    0.0000
     33 C23        4.4366    5.6630   15.0215 C.3       2 RES2    0.0000
     34 C24        3.2847    2.7585   12.8703 C.3       2 RES2    0.0000
     35 C25        5.4576    5.2612   11.9001 C.2       2 RES2    0.0000
     36 C26        5.7368    5.5100    9.5909 C.3       2 RES2    0.0000
     37 C27        5.0439    5.0847    8.3318 C.ar      2 RES2    0.0000
     38 C28        4.4383    3.8528    8.2127 C.ar      2 RES2    0.0000
     39 C29        3.8344    3.4827    7.0175 C.ar      2 RES2    0.0000
     40 C30        3.8990    4.3328    5.9164 C.ar      2 RES2    0.0000
     41 C31        4.5151    5.5371    6.0113 C.ar      2 RES2    0.0000
     42 C32        5.0998    5.9254    7.2147 C.ar      2 RES2    0.0000
     43 C33        4.8938    5.2659   16.3981 C.ar      2 RES2    0.0000
     44 C34        4.4697    4.0757   16.9448 C.ar      2 RES2    0.0000
     45 C35        4.9828    3.6463   18.1807 C.ar      2 RES2    0.0000
     46 C36        5.9078    4.4281   18.9314 C.ar      2 RES2    0.0000
     47 C37        6.2866    5.6506   18.3296 C.ar      2 RES2    0.0000
     48 C38        5.7944    6.0507   17.0959 C.ar      2 RES2    0.0000
     49 H1        10.1873    1.6278   11.1714 H         1 RES1    0.0000
     50 H2         8.4315   -0.5212   11.4096 H         1 RES1    0.0000
     51 H3        10.6847    3.0768    7.5855 H         1 RES1    0.0000
     52 H4         8.3233    3.6557    8.1622 H         1 RES1    0.0000
     53 H5        11.6254    1.9408    9.3001 H         1 RES1    0.0000
     54 H6         9.2920   -0.3912    9.3784 H         1 RES1    0.0000
     55 H7        10.7301   -0.4430   10.0743 H         1 RES1    0.0000
     56 H8         6.4978    2.1167   13.4094 H         1 RES1    0.0000
     57 H9         7.2011    3.5569   13.5034 H         1 RES1    0.0000
     58 H10        8.7003    0.3389   14.0990 H         1 RES1    0.0000
     59 H11        9.7545   -0.2765   16.0800 H         1 RES1    0.0000
     60 H12        9.7650    1.1513   17.9356 H         1 RES1    0.0000
     61 H13        8.6148    3.1992   17.7914 H         1 RES1    0.0000
     62 H14        7.6008    3.8340   15.7916 H         1 RES1    0.0000
     63 H15        9.2117    0.5206    6.6389 H         1 RES1    0.0000
     64 H16        8.4542   -0.2165    4.5670 H         1 RES1    0.0000
     65 H17        7.0074    1.0660    3.3947 H         1 RES1    0.0000
     66 H18        6.2202    3.0721    4.1407 H         1 RES1    0.0000
     67 H19        6.9672    3.8645    6.2283 H         1 RES1    0.0000
     68 H20        2.8902    4.5340   11.8077 H         2 RES2    0.0000
     69 H21        3.8030    2.5279   13.6821 H         2 RES2    0.0000
     70 H22        4.6530    2.3803   11.6541 H         2 RES2    0.0000
     71 H23        2.3596    2.4267   12.9956 H         2 RES2    0.0000
     72 H24        2.3684    5.9671   15.4405 H         2 RES2    0.0000
     73 H25        6.6077    5.0458    9.6762 H         2 RES2    0.0000
     74 H26        4.7402    6.5943   14.8199 H         2 RES2    0.0000
     75 H27        5.9009    6.4860    9.5790 H         2 RES2    0.0000
     76 H28        1.4713    4.8423   13.7354 H         2 RES2    0.0000
     77 H29        4.4348    3.2545    8.9490 H         2 RES2    0.0000
     78 H30        3.3772    2.6526    6.9523 H         2 RES2    0.0000
     79 H31        3.5098    4.0669    5.0904 H         2 RES2    0.0000
     80 H32        4.5465    6.1160    5.2597 H         2 RES2    0.0000
     81 H33        5.5378    6.7655    7.2783 H         2 RES2    0.0000
     82 H34        3.8292    3.5445   16.4875 H         2 RES2    0.0000
     83 H35        4.7053    2.8068   18.5280 H         2 RES2    0.0000
     84 H36        6.2447    4.1493   19.7756 H         2 RES2    0.0000
     85 H37        6.8974    6.2166   18.7851 H         2 RES2    0.0000
     86 H38        6.0824    6.8761   16.7226 H         2 RES2    0.0000
@<TRIPOS>BOND
     1    1    5 1
     2    2   10 1
     3    3   11 2
     4    4   11 1
     5    5    6 1
     6    6    7 1
     7    7    8 2
     8    8    9 1
     9    9    1 1
    10   10    6 1
    11   11    5 1
    12   12    4 1
    13   13   12 1
    14   14   13 ar
    15   15   14 ar
    16   16   15 ar
    17   17   16 ar
    18   18   13 ar
    19   19    9 1
    20   20   19 ar
    21   21   20 ar
    22   22   21 ar
    23   23   22 ar
    24   24   19 ar
    25   25   29 1
    26   26   34 1
    27   27   35 2
    28   28   35 1
    29   29   30 1
    30   30   31 1
    31   31   32 2
    32   32   33 1
    33   33   25 1
    34   34   30 1
    35   35   29 1
    36   36   28 1
    37   37   36 1
    38   38   37 ar
    39   39   38 ar
    40   40   39 ar
    41   41   40 ar
    42   42   37 ar
    43   43   33 1
    44   44   43 ar
    45   45   44 ar
    46   46   45 ar
    47   47   46 ar
    48   48   43 ar
    49   49    6 1
    50   50    2 1
    51   51    8 1
    52   52    9 1
    53   53    7 1
    54   54   10 1
    55   55   10 1
    56   56   12 1
    57   57   12 1
    58   58   14 1
    59   59   15 1
    60   60   16 1
    61   61   17 1
    62   62   18 1
    63   63   20 1
    64   64   21 1
    65   65   22 1
    66   66   23 1
    67   67   24 1
    68   68   30 1
    69   69   34 1
    70   70   26 1
    71   71   34 1
    72   72   32 1
    73   73   36 1
    74   74   33 1
    75   75   36 1
    76   76   31 1
    77   77   38 1
    78   78   39 1
    79   79   40 1
    80   80   41 1
    81   81   42 1
    82   82   44 1
    83   83   45 1
    84   84   46 1
    85   85   47 1
    86   86   48 1
    87   17   18 ar
    88   23   24 ar
    89   41   42 ar
    90   47   48 ar
@<TRIPOS>SUBSTRUCTURE
     1 RES1 1
     2 RES2 25

@<TRIPOS>CRYSIN
  17.4530    5.8830   31.3450  90.0000  90.0000  90.0000  33 1

