# MOL2 file generated by ConQuest
# Please check atom types

@<TRIPOS>MOLECULE
HUWSIC
    46    49     1
SMALL
NO_CHARGES
****
Generated from CSD

@<TRIPOS>ATOM
      1 O1        14.8119    1.5409    8.4910 O.3       1 RES1    0.0000
      2 N1        12.3131    2.5772    8.3976 N.2       1 RES1    0.0000
      3 C1        15.9643    0.8439    8.7619 C.2       1 RES1    0.0000
      4 C2        17.0461    1.0202    7.8180 C.ar      1 RES1    0.0000
      5 C3        10.8305    3.9354    7.1768 C.ar      1 RES1    0.0000
      6 N2        11.0736    3.1174    8.2930 N.pl3     1 RES1    0.0000
      7 N3        20.2239    1.5243    5.0675 N.pl3     1 RES1    0.0000
      8 C4        12.6118    1.8331    9.4038 C.2       1 RES1    0.0000
      9 H1        11.9861    1.6834   10.0760 H         1 RES1    0.0000
     10 C5        19.1142    1.3359    6.0183 C.ar      1 RES1    0.0000
     11 C6         9.6215    4.5926    7.0373 C.ar      1 RES1    0.0000
     12 H2         8.9663    4.4988    7.6905 H         1 RES1    0.0000
     13 C7        10.0813    2.9333    9.3183 C.ar      1 RES1    0.0000
     14 C8        13.9113    1.2361    9.4853 C.2       1 RES1    0.0000
     15 C9        11.7999    4.0997    6.1861 C.ar      1 RES1    0.0000
     16 H3        12.6189    3.6645    6.2567 H         1 RES1    0.0000
     17 O2        20.0773    2.3449    4.1648 O.2       1 RES1    0.0000
     18 C10       18.1965    0.2469    7.9056 C.ar      1 RES1    0.0000
     19 H4        18.2708   -0.3845    8.5852 H         1 RES1    0.0000
     20 C11       10.3396    5.5440    4.9589 C.ar      1 RES1    0.0000
     21 H5        10.1758    6.0730    4.2123 H         1 RES1    0.0000
     22 O3        21.2299    0.8611    5.2227 O.2       1 RES1    0.0000
     23 C12       15.7911    0.1239    9.8946 C.2       1 RES1    0.0000
     24 H6        16.4189   -0.4353   10.2938 H         1 RES1    0.0000
     25 C13       11.5392    4.9040    5.1086 C.ar      1 RES1    0.0000
     26 H7        12.1960    5.0193    4.4605 H         1 RES1    0.0000
     27 C14        9.3810    5.3900    5.9312 C.ar      1 RES1    0.0000
     28 H8         8.5634    5.8261    5.8452 H         1 RES1    0.0000
     29 C15       16.9628    1.9449    6.7898 C.ar      1 RES1    0.0000
     30 H9        16.1981    2.4662    6.7067 H         1 RES1    0.0000
     31 C16       17.9939    2.1066    5.8876 C.ar      1 RES1    0.0000
     32 H10       17.9274    2.7311    5.2013 H         1 RES1    0.0000
     33 C17       14.4840    0.3776   10.3566 C.2       1 RES1    0.0000
     34 H11       14.0892    0.0198   11.1195 H         1 RES1    0.0000
     35 C18        9.2282    1.8632    9.2702 C.ar      1 RES1    0.0000
     36 H12        9.2831    1.2550    8.5693 H         1 RES1    0.0000
     37 C19        8.2860    1.6877   10.2632 C.ar      1 RES1    0.0000
     38 H13        7.7048    0.9617   10.2314 H         1 RES1    0.0000
     39 C20        9.0741    3.6490   11.3545 C.ar      1 RES1    0.0000
     40 H14        9.0288    4.2494   12.0634 H         1 RES1    0.0000
     41 C21       19.2342    0.3957    7.0041 C.ar      1 RES1    0.0000
     42 H15       19.9964   -0.1325    7.0665 H         1 RES1    0.0000
     43 C22       10.0106    3.8253   10.3609 C.ar      1 RES1    0.0000
     44 H16       10.5942    4.5479   10.3960 H         1 RES1    0.0000
     45 C23        8.2058    2.5858   11.2987 C.ar      1 RES1    0.0000
     46 H17        7.5641    2.4739   11.9625 H         1 RES1    0.0000
@<TRIPOS>BOND
     1    1    3 1
     2    2    6 1
     3    3    4 1
     4    4   18 ar
     5    5    6 1
     6    6   13 1
     7    7   10 1
     8    8    2 2
     9    9    8 1
    10   10   31 ar
    11   11    5 ar
    12   12   11 1
    13   13   35 ar
    14   14    1 1
    15   15    5 ar
    16   16   15 1
    17   17    7 2
    18   18   19 1
    19   20   21 1
    20   22    7 2
    21   23    3 2
    22   24   23 1
    23   25   15 ar
    24   26   25 1
    25   27   11 ar
    26   28   27 1
    27   29    4 ar
    28   30   29 1
    29   31   29 ar
    30   32   31 1
    31   33   14 2
    32   34   33 1
    33   35   36 1
    34   37   35 ar
    35   38   37 1
    36   39   40 1
    37   41   10 ar
    38   42   41 1
    39   43   13 ar
    40   44   43 1
    41   45   37 ar
    42   46   45 1
    43    8   14 1
    44   18   41 ar
    45   20   25 ar
    46   20   27 ar
    47   23   33 1
    48   39   43 ar
    49   39   45 ar
@<TRIPOS>SUBSTRUCTURE
     1 RES1 1

@<TRIPOS>CRYSIN
  16.8150    8.6020   13.3400  90.0000  95.6400  90.0000  14 1

