# MOL2 file generated by ConQuest
# Please check atom types

@<TRIPOS>MOLECULE
HUXFAH
    38    40     1
SMALL
NO_CHARGES
****
Generated from CSD

@<TRIPOS>ATOM
      1 O1         3.2953   -1.0667    1.3959 O.2       1 RES1    0.0000
      2 O2         4.1250    2.6013    4.1125 O.2       1 RES1    0.0000
      3 N1         3.3593    0.1353    1.8578 N.pl3     1 RES1    0.0000
      4 N2         3.7753    1.8701    3.1199 N.3       1 RES1    0.0000
      5 N3         6.2700   -2.7624    6.8463 N.pl3     1 RES1    0.0000
      6 H1         6.2717   -3.6488    6.9944 H         1 RES1    0.0000
      7 C1         3.8192    0.5157    3.0631 C.2       1 RES1    0.0000
      8 C2         2.7875    1.2714    1.0600 C.3       1 RES1    0.0000
      9 C3         3.2059    1.1280   -0.4015 C.3       1 RES1    0.0000
     10 H2         2.8782    1.9271   -0.8938 H         1 RES1    0.0000
     11 H3         4.2217    1.0880   -0.5106 H         1 RES1    0.0000
     12 H4         2.7510    0.3161   -0.7538 H         1 RES1    0.0000
     13 C4         1.2673    1.1655    1.1889 C.3       1 RES1    0.0000
     14 H5         0.9925    1.2092    2.1279 H         1 RES1    0.0000
     15 H6         1.0086    0.2911    0.8113 H         1 RES1    0.0000
     16 H7         0.8198    1.8889    0.6881 H         1 RES1    0.0000
     17 C5         3.4074    2.4930    1.8053 C.3       1 RES1    0.0000
     18 C6         4.7157    3.0000    1.1926 C.3       1 RES1    0.0000
     19 H8         5.3475    2.2354    1.0076 H         1 RES1    0.0000
     20 H9         5.1216    3.6527    1.8032 H         1 RES1    0.0000
     21 H10        4.5290    3.4789    0.3299 H         1 RES1    0.0000
     22 C7         2.4580    3.6551    2.0539 C.3       1 RES1    0.0000
     23 H11        2.9106    4.3733    2.5278 H         1 RES1    0.0000
     24 H12        2.1481    4.0018    1.1725 H         1 RES1    0.0000
     25 H13        1.6962    3.3880    2.6009 H         1 RES1    0.0000
     26 C8         4.3595   -0.3596    4.1020 C.ar      1 RES1    0.0000
     27 C9         3.8644   -1.6836    4.2518 C.ar      1 RES1    0.0000
     28 H14        3.0731   -1.9601    3.7274 H         1 RES1    0.0000
     29 C10        4.4395   -2.5667    5.1374 C.ar      1 RES1    0.0000
     30 H15        4.1031   -3.4973    5.2268 H         1 RES1    0.0000
     31 C11        5.5137   -2.1130    5.9064 C.ar      1 RES1    0.0000
     32 C12        7.1888   -1.8784    7.3658 C.2       1 RES1    0.0000
     33 H16        7.8115   -2.2117    8.0646 H         1 RES1    0.0000
     34 C13        7.0361   -0.6541    6.7886 C.2       1 RES1    0.0000
     35 H17        7.5909    0.1396    7.0090 H         1 RES1    0.0000
     36 C14        5.9749   -0.7751    5.8364 C.ar      1 RES1    0.0000
     37 C15        5.3920    0.0975    4.9120 C.ar      1 RES1    0.0000
     38 H18        5.7356    1.0024    4.8227 H         1 RES1    0.0000
@<TRIPOS>BOND
     1    1    3 1
     2    2    4 1
     3    3    7 2
     4    4    7 1
     5    5    6 1
     6    7   26 1
     7    8    3 1
     8    9    8 1
     9   10    9 1
    10   11    9 1
    11   12    9 1
    12   13    8 1
    13   14   13 1
    14   15   13 1
    15   16   13 1
    16   17    4 1
    17   18   17 1
    18   19   18 1
    19   20   18 1
    20   21   18 1
    21   22   17 1
    22   23   22 1
    23   24   22 1
    24   25   22 1
    25   26   27 ar
    26   27   28 1
    27   29   27 ar
    28   30   29 1
    29   31    5 1
    30   32    5 1
    31   33   32 1
    32   34   32 2
    33   35   34 1
    34   36   31 ar
    35   37   26 ar
    36   38   37 1
    37    8   17 1
    38   29   31 ar
    39   34   36 1
    40   36   37 ar
@<TRIPOS>SUBSTRUCTURE
     1 RES1 1

@<TRIPOS>CRYSIN
  10.1447   13.1725   11.4922  90.0000 114.6970  90.0000 231 1

