# MOL2 file generated by ConQuest
# Please check atom types

@<TRIPOS>MOLECULE
HUXKUH
    46    49     1
SMALL
NO_CHARGES
****
Generated from CSD

@<TRIPOS>ATOM
      1 O1         1.8926   14.3862   11.1736 O.3       1 RES1    0.0000
      2 O2         0.4295   13.7282    8.7230 O.3       1 RES1    0.0000
      3 O3         4.7806   11.9231    8.8893 O.3       1 RES1    0.0000
      4 O4         2.9817   13.3529    7.9136 O.3       1 RES1    0.0000
      5 H1         2.5553   13.9932    7.6303 H         1 RES1    0.0000
      6 O5        -1.4074   14.9608    8.9430 O.2       1 RES1    0.0000
      7 O6         8.2297   11.0791    2.6273 O.2       1 RES1    0.0000
      8 O7         3.6440   10.3392    7.7589 O.2       1 RES1    0.0000
      9 C1         5.5875   11.2972    6.7699 C.ar      1 RES1    0.0000
     10 C2         2.7049   13.1723    9.2774 C.3       1 RES1    0.0000
     11 C3         4.5545   11.1196    7.8349 C.2       1 RES1    0.0000
     12 C4         7.4217   11.5427    4.7485 C.ar      1 RES1    0.0000
     13 C5         0.9710   13.3105   10.9573 C.3       1 RES1    0.0000
     14 H2         1.0639   12.5995   11.6262 H         1 RES1    0.0000
     15 N1         8.4397   11.6526    3.6914 N.pl3     1 RES1    0.0000
     16 C6        -0.5766   14.2781    9.4560 C.2       1 RES1    0.0000
     17 C7         2.9703   14.4221   10.1937 C.3       1 RES1    0.0000
     18 C8         3.6855   12.0743    9.8224 C.3       1 RES1    0.0000
     19 H3         3.2228   11.2237    9.9721 H         1 RES1    0.0000
     20 C9         6.6092   12.2112    6.8707 C.ar      1 RES1    0.0000
     21 H4         6.6617   12.7630    7.6163 H         1 RES1    0.0000
     22 C10        1.2379   12.8144    9.5499 C.3       1 RES1    0.0000
     23 O8         9.4550   12.2796    3.9250 O.2       1 RES1    0.0000
     24 C11        5.4929   10.5184    5.6319 C.ar      1 RES1    0.0000
     25 H5         4.8091    9.8917    5.5600 H         1 RES1    0.0000
     26 C12        6.3979   10.6600    4.6047 C.ar      1 RES1    0.0000
     27 H6         6.3106   10.1609    3.8251 H         1 RES1    0.0000
     28 C13        2.9404   15.7723    9.5189 C.3       1 RES1    0.0000
     29 H7         2.0987   15.8874    9.0707 H         1 RES1    0.0000
     30 H8         3.6538   15.8256    8.8791 H         1 RES1    0.0000
     31 H9         3.0485   16.4616   10.1777 H         1 RES1    0.0000
     32 C14        7.5598   12.3167    5.8735 C.ar      1 RES1    0.0000
     33 H10        8.2786   12.9005    5.9623 H         1 RES1    0.0000
     34 C15        4.2809   14.1214   10.8985 C.3       1 RES1    0.0000
     35 H11        5.0374   14.3800   10.3494 H         1 RES1    0.0000
     36 H12        4.3340   14.5894   11.7469 H         1 RES1    0.0000
     37 C16        4.2534   12.6254   11.1091 C.3       1 RES1    0.0000
     38 H13        5.1475   12.2824   11.2668 H         1 RES1    0.0000
     39 H14        3.6901   12.3921   11.8627 H         1 RES1    0.0000
     40 C17       -0.4267   13.8536   10.8925 C.3       1 RES1    0.0000
     41 H15       -0.5345   14.6093   11.4914 H         1 RES1    0.0000
     42 H16       -1.0766   13.1717   11.1231 H         1 RES1    0.0000
     43 C18        0.7745   11.4081    9.2374 C.3       1 RES1    0.0000
     44 H17       -0.1776   11.3533    9.3492 H         1 RES1    0.0000
     45 H18        1.2028   10.7890    9.8344 H         1 RES1    0.0000
     46 H19        1.0035   11.1898    8.3311 H         1 RES1    0.0000
@<TRIPOS>BOND
     1    1   13 1
     2    2   16 1
     3    3   11 1
     4    4    5 1
     5    6   16 2
     6    7   15 2
     7    8   11 2
     8    9   11 1
     9   10    4 1
    10   12   15 1
    11   13   14 1
    12   15   23 2
    13   16   40 1
    14   17    1 1
    15   18    3 1
    16   19   18 1
    17   20    9 ar
    18   21   20 1
    19   22    2 1
    20   24    9 ar
    21   25   24 1
    22   26   12 ar
    23   27   26 1
    24   28   17 1
    25   29   28 1
    26   30   28 1
    27   31   28 1
    28   32   12 ar
    29   33   32 1
    30   34   17 1
    31   35   34 1
    32   36   34 1
    33   37   18 1
    34   38   37 1
    35   39   37 1
    36   40   13 1
    37   41   40 1
    38   42   40 1
    39   43   22 1
    40   44   43 1
    41   45   43 1
    42   46   43 1
    43   10   17 1
    44   10   18 1
    45   10   22 1
    46   13   22 1
    47   20   32 ar
    48   24   26 ar
    49   34   37 1
@<TRIPOS>SUBSTRUCTURE
     1 RES1 1

@<TRIPOS>CRYSIN
   8.7710   19.9390   10.0470  90.0000  96.5160  90.0000  14 1

