# MOL2 file generated by ConQuest
# Please check atom types

@<TRIPOS>MOLECULE
HUXXEE
    73    77     1
SMALL
NO_CHARGES
****
Generated from CSD

@<TRIPOS>ATOM
      1 N1         7.4082    8.4353    8.2289 N.pl3     1 RES1    0.0000
      2 N2         2.0429    7.2383   20.4500 N.pl3     1 RES1    0.0000
      3 O1         7.4694    7.2395    7.9374 O.2       1 RES1    0.0000
      4 O2         7.4884    9.3215    7.3861 O.2       1 RES1    0.0000
      5 O3         0.8718    7.5052   20.4953 O.2       1 RES1    0.0000
      6 O4         2.5353    6.2797   21.0067 O.2       1 RES1    0.0000
      7 O5         8.4414   12.6733   15.3422 O.3       1 RES1    0.0000
      8 O6         7.6740   12.1802   17.3868 O.2       1 RES1    0.0000
      9 C1         7.1857    8.8160    9.6068 C.ar      1 RES1    0.0000
     10 C2         6.5986    9.5576   12.2333 C.ar      1 RES1    0.0000
     11 N3         6.2562    9.9231   13.5117 N.3       1 RES1    0.0000
     12 C3         6.4596   11.3116   13.9659 C.3       1 RES1    0.0000
     13 H1         7.3403   11.5918   13.6391 H         1 RES1    0.0000
     14 C4         6.8306    7.8562   10.5244 C.ar      1 RES1    0.0000
     15 H2         6.7899    6.9627   10.2689 H         1 RES1    0.0000
     16 C5         6.5353    8.2123   11.8162 C.ar      1 RES1    0.0000
     17 H3         6.2893    7.5554   12.4276 H         1 RES1    0.0000
     18 C6         5.5455    8.9785   14.3918 C.3       1 RES1    0.0000
     19 H4         4.9466    8.4433   13.8313 H         1 RES1    0.0000
     20 C7         7.3001   10.1370    9.9849 C.ar      1 RES1    0.0000
     21 H5         7.5633   10.7789    9.3657 H         1 RES1    0.0000
     22 C8         6.5119   11.3741   15.4838 C.2       1 RES1    0.0000
     23 N4         5.5012   10.6301   17.5364 N.3       1 RES1    0.0000
     24 C9         5.5809   10.6652   16.1773 C.2       1 RES1    0.0000
     25 C10        7.0237   10.5006   11.2765 C.ar      1 RES1    0.0000
     26 H6         7.1189   11.3910   11.5285 H         1 RES1    0.0000
     27 C11        6.4598    8.0170   15.1368 C.ar      1 RES1    0.0000
     28 C12        4.6115    9.8014   18.2929 C.ar      1 RES1    0.0000
     29 C13        5.4339   12.2878   13.3774 C.ar      1 RES1    0.0000
     30 C14        7.5599   12.0919   16.1683 C.2       1 RES1    0.0000
     31 C15        4.6688    9.7882   15.3713 C.3       1 RES1    0.0000
     32 H7         4.0311   10.3295   14.8807 H         1 RES1    0.0000
     33 H8         4.1779    9.1893   15.9560 H         1 RES1    0.0000
     34 C16        2.9507    8.1403   19.7051 C.ar      1 RES1    0.0000
     35 C17        5.9276    7.0663   16.0021 C.ar      1 RES1    0.0000
     36 H9         5.0056    7.0274   16.1182 H         1 RES1    0.0000
     37 C18        8.6004    7.0830   15.6678 C.ar      1 RES1    0.0000
     38 H10        9.5184    7.0871   15.5215 H         1 RES1    0.0000
     39 C19        4.3214   11.8757   12.6751 C.ar      1 RES1    0.0000
     40 H11        4.1820   10.9676   12.5297 H         1 RES1    0.0000
     41 C20        5.1101    8.8123   19.1019 C.ar      1 RES1    0.0000
     42 H12        6.0307    8.7025   19.1700 H         1 RES1    0.0000
     43 C21        8.0792    6.1638   16.5377 C.ar      1 RES1    0.0000
     44 C22        7.8190    8.0057   14.9982 C.ar      1 RES1    0.0000
     45 H13        8.2262    8.6305   14.4421 H         1 RES1    0.0000
     46 C23        5.6070   13.6700   13.5418 C.ar      1 RES1    0.0000
     47 H14        6.3538   13.9909   13.9935 H         1 RES1    0.0000
     48 C24        4.2830    7.9804   19.8088 C.ar      1 RES1    0.0000
     49 H15        4.6368    7.3148   20.3535 H         1 RES1    0.0000
     50 C25        3.4110   12.7908   12.1837 C.ar      1 RES1    0.0000
     51 H16        2.6699   12.4740   11.7187 H         1 RES1    0.0000
     52 C26        4.6716   14.5615   13.0343 C.ar      1 RES1    0.0000
     53 H17        4.8036   15.4743   13.1605 H         1 RES1    0.0000
     54 C27        2.4250    9.1174   18.9618 C.ar      1 RES1    0.0000
     55 H18        1.5022    9.2227   18.9137 H         1 RES1    0.0000
     56 C28        3.5504   14.1344   12.3495 C.ar      1 RES1    0.0000
     57 C29        3.2611    9.9741   18.2589 C.ar      1 RES1    0.0000
     58 H19        2.8967   10.6722   17.7643 H         1 RES1    0.0000
     59 C30        8.9338    5.1488   17.2636 C.3       1 RES1    0.0000
     60 H20        9.0629    4.3790   16.7029 H         1 RES1    0.0000
     61 H21        8.4950    4.8823   18.0747 H         1 RES1    0.0000
     62 H22        9.7858    5.5387   17.4739 H         1 RES1    0.0000
     63 C31        6.7250    6.1811   16.6909 C.ar      1 RES1    0.0000
     64 H23        6.3287    5.5783   17.2777 H         1 RES1    0.0000
     65 C32        9.5243   13.4257   15.9522 C.3       1 RES1    0.0000
     66 H24        9.1626   14.1751   16.4306 H         1 RES1    0.0000
     67 H25       10.1207   13.7396   15.2691 H         1 RES1    0.0000
     68 H26       10.0040   12.8589   16.5608 H         1 RES1    0.0000
     69 C33        2.5134   15.1208   11.8288 C.3       1 RES1    0.0000
     70 H27        1.7034   14.6515   11.6166 H         1 RES1    0.0000
     71 H28        2.8503   15.5503   11.0378 H         1 RES1    0.0000
     72 H29        2.3336   15.7815   12.5017 H         1 RES1    0.0000
     73 H30        6.1510   11.0752   17.9044 H         1 RES1    0.0000
@<TRIPOS>BOND
     1    1    3 2
     2    2    5 2
     3    4    1 2
     4    6    2 2
     5    7   30 1
     6    8   30 2
     7    9    1 1
     8   10   11 1
     9   11   12 1
    10   12   13 1
    11   14    9 ar
    12   15   14 1
    13   16   10 ar
    14   17   16 1
    15   18   11 1
    16   19   18 1
    17   20    9 ar
    18   21   20 1
    19   22   12 1
    20   23   24 1
    21   24   22 2
    22   25   10 ar
    23   26   25 1
    24   27   18 1
    25   28   23 1
    26   29   12 1
    27   30   22 1
    28   31   18 1
    29   32   31 1
    30   33   31 1
    31   34    2 1
    32   35   27 ar
    33   36   35 1
    34   37   38 1
    35   39   29 ar
    36   40   39 1
    37   41   28 ar
    38   42   41 1
    39   43   37 ar
    40   44   27 ar
    41   45   44 1
    42   46   29 ar
    43   47   46 1
    44   48   34 ar
    45   49   48 1
    46   50   39 ar
    47   51   50 1
    48   52   46 ar
    49   53   52 1
    50   54   34 ar
    51   55   54 1
    52   56   50 ar
    53   57   28 ar
    54   58   57 1
    55   59   43 1
    56   60   59 1
    57   61   59 1
    58   62   59 1
    59   63   35 ar
    60   64   63 1
    61   65    7 1
    62   66   65 1
    63   67   65 1
    64   68   65 1
    65   69   56 1
    66   70   69 1
    67   71   69 1
    68   72   69 1
    69   73   23 1
    70   14   16 ar
    71   20   25 ar
    72   24   31 1
    73   37   44 ar
    74   41   48 ar
    75   43   63 ar
    76   52   56 ar
    77   54   57 ar
@<TRIPOS>SUBSTRUCTURE
     1 RES1 1

@<TRIPOS>CRYSIN
   6.9024   11.3349   20.6948  75.9010  89.3980  72.4910   2 1

