# MOL2 file generated by ConQuest
# Please check atom types

@<TRIPOS>MOLECULE
HUYGIT
    37    38     1
SMALL
NO_CHARGES
****
Generated from CSD

@<TRIPOS>ATOM
      1 O1         2.9585    5.4201   13.8800 O.2       1 RES1    0.0000
      2 O2         4.9104    4.9348   14.6375 O.2       1 RES1    0.0000
      3 O3         3.9902   -3.4290    1.8817 O.3       1 RES1    0.0000
      4 N1         3.9960    4.7814   13.8414 N.pl3     1 RES1    0.0000
      5 N2         0.6581    0.2884    7.0188 N.1       1 RES1    0.0000
      6 C1         3.2508    2.5991   10.9453 C.ar      1 RES1    0.0000
      7 H1         2.5117    2.3443   10.4409 H         1 RES1    0.0000
      8 C2         3.0709    3.4400   12.0179 C.ar      1 RES1    0.0000
      9 H2         2.2255    3.7608   12.2351 H         1 RES1    0.0000
     10 C3         4.1747    3.7969   12.7637 C.ar      1 RES1    0.0000
     11 C4         5.4197    3.3035   12.5011 C.ar      1 RES1    0.0000
     12 H3         6.1417    3.5236   13.0444 H         1 RES1    0.0000
     13 C5         5.5834    2.4699   11.4099 C.ar      1 RES1    0.0000
     14 H4         6.4286    2.1354   11.2160 H         1 RES1    0.0000
     15 C6         4.5066    2.1190   10.5942 C.ar      1 RES1    0.0000
     16 C7         4.7311    1.3012    9.4031 C.2       1 RES1    0.0000
     17 H5         5.6091    1.0580    9.2165 H         1 RES1    0.0000
     18 C8         3.7899    0.8710    8.5577 C.2       1 RES1    0.0000
     19 H6         2.9064    1.0913    8.7449 H         1 RES1    0.0000
     20 C9         4.0493    0.0949    7.3845 C.2       1 RES1    0.0000
     21 H7         4.9339   -0.1276    7.2036 H         1 RES1    0.0000
     22 C10        3.1040   -0.3402    6.5172 C.2       1 RES1    0.0000
     23 C11        3.3281   -1.1555    5.3115 C.ar      1 RES1    0.0000
     24 C12        2.2790   -1.4414    4.4445 C.ar      1 RES1    0.0000
     25 H8         1.4303   -1.1219    4.6477 H         1 RES1    0.0000
     26 C13        2.4539   -2.1853    3.2870 C.ar      1 RES1    0.0000
     27 H9         1.7344   -2.3469    2.7211 H         1 RES1    0.0000
     28 C14        3.6967   -2.6803    2.9848 C.ar      1 RES1    0.0000
     29 C15        4.7603   -2.4223    3.8403 C.ar      1 RES1    0.0000
     30 H10        5.6029   -2.7600    3.6405 H         1 RES1    0.0000
     31 C16        4.5804   -1.6705    4.9802 C.ar      1 RES1    0.0000
     32 H11        5.3057   -1.5031    5.5373 H         1 RES1    0.0000
     33 C17        1.7396    0.0068    6.8001 C.1       1 RES1    0.0000
     34 C18        2.9558   -3.6022    0.9045 C.3       1 RES1    0.0000
     35 H12        3.3011   -4.0975    0.1577 H         1 RES1    0.0000
     36 H13        2.6517   -2.7428    0.6055 H         1 RES1    0.0000
     37 H14        2.2233   -4.0827    1.2958 H         1 RES1    0.0000
@<TRIPOS>BOND
     1    1    4 2
     2    2    4 2
     3    3   28 1
     4    4   10 1
     5    5   33 3
     6    6    7 1
     7    8    6 ar
     8    9    8 1
     9   10    8 ar
    10   11   10 ar
    11   12   11 1
    12   13   11 ar
    13   14   13 1
    14   15    6 ar
    15   16   15 1
    16   17   16 1
    17   18   16 2
    18   19   18 1
    19   20   18 1
    20   21   20 1
    21   22   20 2
    22   23   22 1
    23   24   23 ar
    24   25   24 1
    25   26   24 ar
    26   27   26 1
    27   28   26 ar
    28   29   28 ar
    29   30   29 1
    30   31   23 ar
    31   32   31 1
    32   33   22 1
    33   34    3 1
    34   35   34 1
    35   36   34 1
    36   37   34 1
    37   13   15 ar
    38   29   31 ar
@<TRIPOS>SUBSTRUCTURE
     1 RES1 1

@<TRIPOS>CRYSIN
   6.7908    8.0131   15.3250 100.4000  95.4070 108.0800   2 1

