# MOL2 file generated by ConQuest
# Please check atom types

@<TRIPOS>MOLECULE
HUYMUK
    54    58     1
SMALL
NO_CHARGES
****
Generated from CSD

@<TRIPOS>ATOM
      1 O1         0.0480    8.2714   -5.3096 O.2       1 RES1    0.0000
      2 O2        -0.4059   10.1492   -4.3414 O.2       1 RES1    0.0000
      3 N1         0.1406    9.0516   -4.3632 N.pl3     1 RES1    0.0000
      4 C1         3.2632    7.4671    0.1504 C.ar      1 RES1    0.0000
      5 C2         2.6189    6.9116    1.2765 C.ar      1 RES1    0.0000
      6 C3         3.3605    6.5275    2.3912 C.ar      1 RES1    0.0000
      7 H1         2.9202    6.1187    3.1271 H         1 RES1    0.0000
      8 C4         4.7374    6.7341    2.4437 C.ar      1 RES1    0.0000
      9 C5         5.3622    7.3123    1.3439 C.ar      1 RES1    0.0000
     10 H2         6.2955    7.4845    1.3853 H         1 RES1    0.0000
     11 C6         4.6661    7.6487    0.1811 C.ar      1 RES1    0.0000
     12 C7         2.4547    7.8828   -1.0309 C.ar      1 RES1    0.0000
     13 C8         1.1436    6.6936    1.3308 C.ar      1 RES1    0.0000
     14 C9         5.5298    6.3257    3.6388 C.ar      1 RES1    0.0000
     15 C10        5.4581    8.1736   -0.9739 C.ar      1 RES1    0.0000
     16 C11        2.5935    7.2268   -2.2549 C.ar      1 RES1    0.0000
     17 H3         3.2179    6.5157   -2.3386 H         1 RES1    0.0000
     18 C12        0.4514    5.9933    0.3336 C.ar      1 RES1    0.0000
     19 H4         0.9162    5.6950   -0.4394 H         1 RES1    0.0000
     20 C13        5.3725    5.0512    4.1856 C.ar      1 RES1    0.0000
     21 H5         4.7247    4.4594    3.8208 H         1 RES1    0.0000
     22 C14        6.6813    7.5609   -1.2923 C.ar      1 RES1    0.0000
     23 H6         6.9632    6.7977   -0.8022 H         1 RES1    0.0000
     24 C15        1.8328    7.5980   -3.3466 C.ar      1 RES1    0.0000
     25 H7         1.9168    7.1420   -4.1751 H         1 RES1    0.0000
     26 C16       -0.9005    5.7315    0.4608 C.ar      1 RES1    0.0000
     27 H8        -1.3574    5.2596   -0.2266 H         1 RES1    0.0000
     28 C17        6.1558    4.6400    5.2606 C.ar      1 RES1    0.0000
     29 H9         6.0548    3.7643    5.6147 H         1 RES1    0.0000
     30 C18        7.4836    8.0522   -2.3110 C.ar      1 RES1    0.0000
     31 H10        8.3077    7.6253   -2.5110 H         1 RES1    0.0000
     32 C19        0.9499    8.6436   -3.2061 C.ar      1 RES1    0.0000
     33 C20       -1.5946    6.1530    1.5875 C.ar      1 RES1    0.0000
     34 H11       -2.5189    5.9531    1.6843 H         1 RES1    0.0000
     35 C21        7.0867    5.5101    5.8165 C.ar      1 RES1    0.0000
     36 H12        7.6228    5.2287    6.5478 H         1 RES1    0.0000
     37 C22        7.0887    9.1603   -3.0371 C.ar      1 RES1    0.0000
     38 H13        7.6407    9.4998   -3.7325 H         1 RES1    0.0000
     39 C23        0.7930    9.3385   -2.0092 C.ar      1 RES1    0.0000
     40 H14        0.1895   10.0682   -1.9428 H         1 RES1    0.0000
     41 C24       -0.9262    6.8688    2.5716 C.ar      1 RES1    0.0000
     42 H15       -1.3994    7.1744    3.3367 H         1 RES1    0.0000
     43 C25        7.2297    6.7821    5.3041 C.ar      1 RES1    0.0000
     44 H16        7.8527    7.3829    5.6945 H         1 RES1    0.0000
     45 C26        5.8858    9.7709   -2.7400 C.ar      1 RES1    0.0000
     46 H17        5.6054   10.5286   -3.2398 H         1 RES1    0.0000
     47 C27        1.5422    8.9318   -0.9218 C.ar      1 RES1    0.0000
     48 H18        1.4346    9.3746   -0.0883 H         1 RES1    0.0000
     49 C28        0.4259    7.1405    2.4450 C.ar      1 RES1    0.0000
     50 H19        0.8717    7.6357    3.1228 H         1 RES1    0.0000
     51 C29        6.4611    7.1890    4.2148 C.ar      1 RES1    0.0000
     52 H20        6.5734    8.0637    3.8612 H         1 RES1    0.0000
     53 C30        5.0753    9.2842   -1.7111 C.ar      1 RES1    0.0000
     54 H21        4.2536    9.7181   -1.5141 H         1 RES1    0.0000
@<TRIPOS>BOND
     1    1    3 2
     2    2    3 2
     3    3   32 1
     4    4    5 ar
     5    5    6 ar
     6    6    7 1
     7    8    6 ar
     8    9    8 ar
     9   10    9 1
    10   11    4 ar
    11   12    4 1
    12   13    5 1
    13   14    8 1
    14   15   11 1
    15   16   12 ar
    16   17   16 1
    17   18   13 ar
    18   19   18 1
    19   20   14 ar
    20   21   20 1
    21   22   15 ar
    22   23   22 1
    23   24   16 ar
    24   25   24 1
    25   26   18 ar
    26   27   26 1
    27   28   20 ar
    28   29   28 1
    29   30   22 ar
    30   31   30 1
    31   32   24 ar
    32   33   26 ar
    33   34   33 1
    34   35   28 ar
    35   36   35 1
    36   37   30 ar
    37   38   37 1
    38   39   32 ar
    39   40   39 1
    40   41   33 ar
    41   42   41 1
    42   43   35 ar
    43   44   43 1
    44   45   37 ar
    45   46   45 1
    46   47   12 ar
    47   48   47 1
    48   49   13 ar
    49   50   49 1
    50   51   14 ar
    51   52   51 1
    52   53   15 ar
    53   54   53 1
    54    9   11 ar
    55   39   47 ar
    56   41   49 ar
    57   43   51 ar
    58   45   53 ar
@<TRIPOS>SUBSTRUCTURE
     1 RES1 1

@<TRIPOS>CRYSIN
  10.5880   10.8670   10.9200  87.0320  77.2180  66.1550   2 1

