# MOL2 file generated by ConQuest
# Please check atom types

@<TRIPOS>MOLECULE
HUYWEF
    43    46     1
SMALL
NO_CHARGES
****
Generated from CSD

@<TRIPOS>ATOM
      1 O1         0.2418    6.3264    9.7539 O.2       1 RES1    0.0000
      2 O2         0.7802    7.3096    7.9024 O.2       1 RES1    0.0000
      3 O3         1.2319    4.3737    4.1095 O.2       1 RES1    0.0000
      4 O4         1.6411    2.2715    4.4119 O.2       1 RES1    0.0000
      5 N1         1.7646    3.4302   11.2422 N.2       1 RES1    0.0000
      6 N2         2.1824    4.3655   10.3301 N.pl3     1 RES1    0.0000
      7 N3         0.7506    6.3374    8.6397 N.pl3     1 RES1    0.0000
      8 N4         1.4744    3.4089    4.8196 N.pl3     1 RES1    0.0000
      9 C1         2.7295    5.4719   10.9261 C.2       1 RES1    0.0000
     10 C2         2.6270    5.2531   12.2758 C.2       1 RES1    0.0000
     11 H1         2.9020    5.8403   12.9700 H         1 RES1    0.0000
     12 C3         2.0309    3.9811   12.4292 C.2       1 RES1    0.0000
     13 C4         3.3458    6.5627   10.1583 C.ar      1 RES1    0.0000
     14 C5         4.1115    6.2948    9.0211 C.ar      1 RES1    0.0000
     15 H2         4.2703    5.3949    8.7605 H         1 RES1    0.0000
     16 C6         4.6405    7.3331    8.2717 C.ar      1 RES1    0.0000
     17 H3         5.1407    7.1453    7.4867 H         1 RES1    0.0000
     18 C7         4.4399    8.6432    8.6665 C.ar      1 RES1    0.0000
     19 H4         4.7914    9.3553    8.1449 H         1 RES1    0.0000
     20 C8         3.7290    8.9182    9.8194 C.ar      1 RES1    0.0000
     21 H5         3.6157    9.8175   10.1039 H         1 RES1    0.0000
     22 C9         3.1798    7.8834   10.5613 C.ar      1 RES1    0.0000
     23 H6         2.6869    8.0774   11.3507 H         1 RES1    0.0000
     24 C10        1.7205    3.2311   13.6561 C.ar      1 RES1    0.0000
     25 C11        1.8093    3.8217   14.9120 C.ar      1 RES1    0.0000
     26 H7         2.0684    4.7333   14.9850 H         1 RES1    0.0000
     27 C12        1.5250    3.0994   16.0542 C.ar      1 RES1    0.0000
     28 H8         1.6022    3.5150   16.9054 H         1 RES1    0.0000
     29 C13        1.1323    1.7892   15.9711 C.ar      1 RES1    0.0000
     30 H9         0.9346    1.2998   16.7606 H         1 RES1    0.0000
     31 C14        1.0255    1.1872   14.7414 C.ar      1 RES1    0.0000
     32 H10        0.7491    0.2809   14.6781 H         1 RES1    0.0000
     33 C15        1.3207    1.9015   13.5932 C.ar      1 RES1    0.0000
     34 H11        1.2493    1.4746   12.7480 H         1 RES1    0.0000
     35 C16        1.8894    4.1217    8.9673 C.ar      1 RES1    0.0000
     36 C17        1.3135    5.0781    8.1288 C.ar      1 RES1    0.0000
     37 C18        1.1886    4.8570    6.7699 C.ar      1 RES1    0.0000
     38 H12        0.8429    5.5295    6.1955 H         1 RES1    0.0000
     39 C19        1.5791    3.6378    6.2725 C.ar      1 RES1    0.0000
     40 C20        2.0706    2.6318    7.0837 C.ar      1 RES1    0.0000
     41 H13        2.2885    1.7815    6.7205 H         1 RES1    0.0000
     42 C21        2.2402    2.8845    8.4320 C.ar      1 RES1    0.0000
     43 H14        2.5981    2.2100    8.9979 H         1 RES1    0.0000
@<TRIPOS>BOND
     1    1    7 2
     2    2    7 2
     3    3    8 2
     4    4    8 2
     5    5    6 1
     6    6    9 1
     7    7   36 1
     8    8   39 1
     9    9   10 2
    10   10   11 1
    11   12    5 2
    12   13    9 1
    13   14   13 ar
    14   15   14 1
    15   16   14 ar
    16   17   16 1
    17   18   16 ar
    18   19   18 1
    19   20   18 ar
    20   21   20 1
    21   22   13 ar
    22   23   22 1
    23   24   12 1
    24   25   24 ar
    25   26   25 1
    26   27   25 ar
    27   28   27 1
    28   29   27 ar
    29   30   29 1
    30   31   29 ar
    31   32   31 1
    32   33   24 ar
    33   34   33 1
    34   35    6 1
    35   36   35 ar
    36   37   36 ar
    37   38   37 1
    38   39   37 ar
    39   40   39 ar
    40   41   40 1
    41   42   35 ar
    42   43   42 1
    43   10   12 1
    44   20   22 ar
    45   31   33 ar
    46   40   42 ar
@<TRIPOS>SUBSTRUCTURE
     1 RES1 1

@<TRIPOS>CRYSIN
   7.2170   12.9467   19.3006  90.0000  90.0000  90.0000  19 1

