# MOL2 file generated by ConQuest
# Please check atom types

@<TRIPOS>MOLECULE
HXTHQO
    23    24     1
SMALL
NO_CHARGES
****
Generated from CSD

@<TRIPOS>ATOM
      1 C1         4.9953    3.4710   -3.7318 C.ar      1 RES1    0.0000
      2 C2         5.7678    2.5388   -3.0937 C.ar      1 RES1    0.0000
      3 C3         5.4621    1.1899   -3.2280 C.ar      1 RES1    0.0000
      4 C4         4.3676    0.8004   -3.9973 C.ar      1 RES1    0.0000
      5 C5         3.6278    1.7657   -4.6706 C.ar      1 RES1    0.0000
      6 C6         2.4278    1.4708   -5.5360 C.3       1 RES1    0.0000
      7 C7         2.2960   -0.0240   -5.8296 C.3       1 RES1    0.0000
      8 C8         2.5318   -0.8452   -4.5558 C.3       1 RES1    0.0000
      9 C9         3.9793   -0.6761   -4.1012 C.3       1 RES1    0.0000
     10 H1         5.1189    4.4496   -3.6631 H         1 RES1    0.0000
     11 H2         3.6145   -0.9115   -2.3041 H         1 RES1    0.0000
     12 H3         6.5691    2.7841   -2.5384 H         1 RES1    0.0000
     13 H4         5.9969    0.4972   -2.7961 H         1 RES1    0.0000
     14 H5         1.6037    1.8146   -5.0142 H         1 RES1    0.0000
     15 H6         2.4928    2.0301   -6.3811 H         1 RES1    0.0000
     16 H7         1.3923   -0.2154   -6.1702 H         1 RES1    0.0000
     17 H8         3.0102   -0.3563   -6.5763 H         1 RES1    0.0000
     18 H9         1.8769   -0.5054   -3.7255 H         1 RES1    0.0000
     19 H10        2.3828   -1.8478   -4.7643 H         1 RES1    0.0000
     20 H11        4.7206   -1.1518   -4.7877 H         1 RES1    0.0000
     21 N1         3.9582    3.0915   -4.5183 N.pl3     1 RES1    0.0000
     22 O1         3.2369    4.0079   -5.1306 O.2       1 RES1    0.0000
     23 O2         4.2138   -1.3241   -2.8477 O.3       1 RES1    0.0000
@<TRIPOS>BOND
     1    1    2 ar
     2    2    3 ar
     3    3    4 ar
     4    4    5 ar
     5    5    6 1
     6    6    7 1
     7    7    8 1
     8    8    9 1
     9    9    4 1
    10   10    1 1
    11   11   23 1
    12   12    2 1
    13   13    3 1
    14   14    6 1
    15   15    6 1
    16   16    7 1
    17   17    7 1
    18   18    8 1
    19   19    8 1
    20   20    9 1
    21   21    1 ar
    22   22   21 1
    23   23    9 1
    24    5   21 ar
@<TRIPOS>SUBSTRUCTURE
     1 RES1 1

@<TRIPOS>CRYSIN
  12.0920    8.2860    7.9260  90.0000  99.8000  90.0000  14 1

