# MOL2 file generated by ConQuest
# Please check atom types

@<TRIPOS>MOLECULE
HYAZCD
    42    42     1
SMALL
NO_CHARGES
****
Generated from CSD

@<TRIPOS>ATOM
      1 C1         0.6295    1.6479    2.1999 C.3       1 RES1    0.0000
      2 C2         2.0958    1.7093    1.8151 C.3       1 RES1    0.0000
      3 C3         2.4197    1.1330    0.4451 C.3       1 RES1    0.0000
      4 C4         1.9729   -0.3131    0.2107 C.3       1 RES1    0.0000
      5 C5         2.1367   -0.7092   -1.2336 C.3       1 RES1    0.0000
      6 C6         1.6733   -2.1195   -1.5849 C.3       1 RES1    0.0000
      7 H1         0.5120    2.0926    3.1778 H         1 RES1    0.0000
      8 H2         1.5727   -0.0135   -1.8358 H         1 RES1    0.0000
      9 H3         2.2760   -2.8267   -1.0345 H         1 RES1    0.0000
     10 H4         1.8139   -2.2741   -2.6444 H         1 RES1    0.0000
     11 H5         0.0815    4.0103    0.4853 H         1 RES1    0.0000
     12 H6         0.3284    0.6114    2.2377 H         1 RES1    0.0000
     13 H7         2.6599    1.1593    2.5531 H         1 RES1    0.0000
     14 H8         2.4031    2.7451    1.8248 H         1 RES1    0.0000
     15 H9         3.4908    1.1748    0.3124 H         1 RES1    0.0000
     16 H10        1.9398    1.7531   -0.2977 H         1 RES1    0.0000
     17 H11        0.9334   -0.4089    0.4859 H         1 RES1    0.0000
     18 H12        2.5691   -0.9697    0.8263 H         1 RES1    0.0000
     19 H13        3.1859   -0.6323   -1.4827 H         1 RES1    0.0000
     20 N1        -0.2521    2.3544    1.2598 N.3       1 RES1    0.0000
     21 O1        -0.0226    3.7789    1.5356 O.3       1 RES1    0.0000
     22 N1B        0.2521   -2.3544   -1.2598 N.3       1 RES1    0.0000
     23 C6B       -1.6733    2.1195    1.5849 C.3       1 RES1    0.0000
     24 C1B       -0.6295   -1.6479   -2.1999 C.3       1 RES1    0.0000
     25 O1B        0.0226   -3.7789   -1.5356 O.3       1 RES1    0.0000
     26 C5B       -2.1367    0.7092    1.2336 C.3       1 RES1    0.0000
     27 H3B       -2.2760    2.8267    1.0345 H         1 RES1    0.0000
     28 H4B       -1.8139    2.2741    2.6444 H         1 RES1    0.0000
     29 C2B       -2.0958   -1.7093   -1.8151 C.3       1 RES1    0.0000
     30 H1B       -0.5120   -2.0926   -3.1778 H         1 RES1    0.0000
     31 H6B       -0.3284   -0.6114   -2.2377 H         1 RES1    0.0000
     32 H5B       -0.0815   -4.0103   -0.4853 H         1 RES1    0.0000
     33 C4B       -1.9729    0.3131   -0.2107 C.3       1 RES1    0.0000
     34 H2B       -1.5727    0.0135    1.8358 H         1 RES1    0.0000
     35 H13B      -3.1859    0.6323    1.4827 H         1 RES1    0.0000
     36 C3B       -2.4197   -1.1330   -0.4451 C.3       1 RES1    0.0000
     37 H7B       -2.6599   -1.1593   -2.5531 H         1 RES1    0.0000
     38 H8B       -2.4031   -2.7451   -1.8248 H         1 RES1    0.0000
     39 H11B      -0.9334    0.4089   -0.4859 H         1 RES1    0.0000
     40 H12B      -2.5691    0.9697   -0.8263 H         1 RES1    0.0000
     41 H9B       -3.4908   -1.1748   -0.3124 H         1 RES1    0.0000
     42 H10B      -1.9398   -1.7531    0.2977 H         1 RES1    0.0000
@<TRIPOS>BOND
     1    1    2 1
     2    2    3 1
     3    3    4 1
     4    4    5 1
     5    5    6 1
     6    6    9 1
     7    7    1 1
     8    8    5 1
     9   10    6 1
    10   11   21 1
    11   12    1 1
    12   13    2 1
    13   14    2 1
    14   15    3 1
    15   16    3 1
    16   17    4 1
    17   18    4 1
    18   19    5 1
    19   20    1 1
    20   21   20 1
    21   22    6 1
    22   23   20 1
    23   24   22 1
    24   25   22 1
    25   26   23 1
    26   27   23 1
    27   28   23 1
    28   29   24 1
    29   30   24 1
    30   31   24 1
    31   32   25 1
    32   33   26 1
    33   34   26 1
    34   35   26 1
    35   36   29 1
    36   37   29 1
    37   38   29 1
    38   39   33 1
    39   40   33 1
    40   41   36 1
    41   42   36 1
    42   33   36 1
@<TRIPOS>SUBSTRUCTURE
     1 RES1 1

@<TRIPOS>CRYSIN
  16.2330    6.7480    7.1690  90.0000 121.8600  90.0000  14 2

