# MOL2 file generated by ConQuest
# Please check atom types

@<TRIPOS>MOLECULE
HYXBUR10
    26    24     2
SMALL
NO_CHARGES
****
Generated from CSD

@<TRIPOS>ATOM
      1 N1        -3.2569    0.1501    4.6565 N.am      1 RES1    0.0000
      2 C1        -4.4400    0.2745    5.2107 C.2       1 RES1    0.0000
      3 O1        -4.6018    0.3670    6.4482 O.2       1 RES1    0.0000
      4 N2        -5.5656    0.2913    4.4053 N.am      1 RES1    0.0000
      5 C2        -5.5774    0.4686    3.0416 C.2       1 RES1    0.0000
      6 O2        -4.5529    0.3889    2.3355 O.2       1 RES1    0.0000
      7 N3        -6.7465    0.7261    2.4771 N.am      1 RES1    0.0000
      8 O3        -7.9056    0.7881    3.2256 O.3       1 RES1    0.0000
      9 H1        -3.2051    0.1741    3.7943 H         1 RES1    0.0000
     10 H2        -2.5553    0.1934    5.1279 H         1 RES1    0.0000
     11 H3        -6.2354    0.3441    4.7971 H         1 RES1    0.0000
     12 H4        -6.7887    0.8669    1.6232 H         1 RES1    0.0000
     13 H5        -8.0337    1.7857    3.4634 H         1 RES1    0.0000
     14 N4        -0.9676    2.7995   -2.2393 N.am      2 RES2    0.0000
     15 C3         0.1926    2.7991   -2.8679 C.2       2 RES2    0.0000
     16 O4         0.3469    3.1544   -4.0403 O.2       2 RES2    0.0000
     17 N5         1.3106    2.3816   -2.1463 N.am      2 RES2    0.0000
     18 C4         1.3207    1.8363   -0.8912 C.2       2 RES2    0.0000
     19 O5         0.3147    1.6878   -0.1975 O.2       2 RES2    0.0000
     20 N6         2.5197    1.4083   -0.4477 N.am      2 RES2    0.0000
     21 O6         3.6678    1.8729   -1.0804 O.3       2 RES2    0.0000
     22 H6        -1.0365    2.4869   -1.3544 H         2 RES2    0.0000
     23 H7        -1.6403    3.0542   -2.6674 H         2 RES2    0.0000
     24 H8         2.0026    2.4342   -2.5433 H         2 RES2    0.0000
     25 H9         2.5828    1.2554    0.3619 H         2 RES2    0.0000
     26 H10        3.9935    1.1254   -1.4991 H         2 RES2    0.0000
@<TRIPOS>BOND
     1    1    2 1
     2    2    3 2
     3    4    2 1
     4    5    4 1
     5    6    5 2
     6    7    5 1
     7    8    7 1
     8    9    1 1
     9   10    1 1
    10   11    4 1
    11   12    7 1
    12   13    8 1
    13   14   15 1
    14   15   16 2
    15   17   15 1
    16   18   17 1
    17   19   18 2
    18   20   18 1
    19   21   20 1
    20   22   14 1
    21   23   14 1
    22   24   17 1
    23   25   20 1
    24   26   21 1
@<TRIPOS>SUBSTRUCTURE
     1 RES1 1
     2 RES2 14

@<TRIPOS>CRYSIN
   7.0540    6.9580   10.7930 106.6500  96.3400  71.0300   2 1

