# MOL2 file generated by ConQuest
# Please check atom types

@<TRIPOS>MOLECULE
IBABUJ
    45    47     1
SMALL
NO_CHARGES
****
Generated from CSD

@<TRIPOS>ATOM
      1 O1         1.7246    5.6458   14.4485 O.3       1 RES1    0.0000
      2 O2         3.6058    6.0669   18.4770 O.3       1 RES1    0.0000
      3 O3         5.5076    7.0286   15.6946 O.2       1 RES1    0.0000
      4 O4         2.3820    7.5103   17.2509 O.2       1 RES1    0.0000
      5 O5         5.5701    8.2097   13.7855 O.3       1 RES1    0.0000
      6 N1         1.0498    4.8947   15.5744 N.3       1 RES1    0.0000
      7 C1         2.9271    6.0772   14.8900 C.2       1 RES1    0.0000
      8 C2         2.6486    3.0354   15.5655 C.3       1 RES1    0.0000
      9 C3         0.3995    3.7009   14.9332 C.3       1 RES1    0.0000
     10 C4        -0.4193    3.0969   16.0868 C.ar      1 RES1    0.0000
     11 C5         3.0173    6.4945   17.3488 C.2       1 RES1    0.0000
     12 C6        -1.3536    3.9028   16.7393 C.ar      1 RES1    0.0000
     13 C7         4.9808    7.3520   14.6519 C.2       1 RES1    0.0000
     14 C8        -0.2721    1.7819   16.5131 C.ar      1 RES1    0.0000
     15 C9         3.2332    5.4782   16.2371 C.3       1 RES1    0.0000
     16 C10        3.6770    6.9131   14.1636 C.2       1 RES1    0.0000
     17 C11        1.5775    2.8276   14.4829 C.3       1 RES1    0.0000
     18 C12       -1.0443    1.2896   17.5614 C.ar      1 RES1    0.0000
     19 C13        2.2198    4.3352   16.3008 C.3       1 RES1    0.0000
     20 C14       -2.1130    3.4128   17.7931 C.ar      1 RES1    0.0000
     21 C15        3.3195    6.8690   19.6622 C.3       1 RES1    0.0000
     22 C16       -1.9580    2.0965   18.2068 C.ar      1 RES1    0.0000
     23 C17        6.8493    8.7245   14.2233 C.3       1 RES1    0.0000
     24 C18       -0.5269    4.1291   13.7984 C.3       1 RES1    0.0000
     25 H1         4.1280    5.1406   16.2641 H         1 RES1    0.0000
     26 H2         1.9524    4.1511   17.2054 H         1 RES1    0.0000
     27 H3         3.5457    3.1347   15.1812 H         1 RES1    0.0000
     28 H4         2.7127    2.2860   16.2110 H         1 RES1    0.0000
     29 H5         1.9042    3.1716   13.6201 H         1 RES1    0.0000
     30 H6         1.3203    1.9070   14.3589 H         1 RES1    0.0000
     31 H7         0.3726    1.1958   16.1224 H         1 RES1    0.0000
     32 H8        -0.9208    0.3925   17.8303 H         1 RES1    0.0000
     33 H9        -2.4611    1.7711   18.9183 H         1 RES1    0.0000
     34 H10       -2.7348    4.0068   18.2326 H         1 RES1    0.0000
     35 H11       -1.4714    4.8270   16.4463 H         1 RES1    0.0000
     36 H12       -1.0427    3.3544   13.4607 H         1 RES1    0.0000
     37 H13       -1.1938    4.8119   14.0704 H         1 RES1    0.0000
     38 H14       -0.0166    4.5251   13.0482 H         1 RES1    0.0000
     39 H15        3.3835    7.2640   13.3316 H         1 RES1    0.0000
     40 H16        7.4854    8.0019   14.3133 H         1 RES1    0.0000
     41 H17        7.1254    9.3118   13.5163 H         1 RES1    0.0000
     42 H18        6.7386    9.2196   15.0598 H         1 RES1    0.0000
     43 H19        3.5940    7.8141   19.5357 H         1 RES1    0.0000
     44 H20        3.8226    6.4522   20.3605 H         1 RES1    0.0000
     45 H21        2.3472    6.8212   19.8621 H         1 RES1    0.0000
@<TRIPOS>BOND
     1    1    6 1
     2    2   11 1
     3    3   13 2
     4    4   11 2
     5    5   13 1
     6    6    9 1
     7    7    1 1
     8    8   17 1
     9    9   10 1
    10   10   12 ar
    11   11   15 1
    12   12   20 ar
    13   13   16 1
    14   14   10 ar
    15   15    7 1
    16   16    7 2
    17   17    9 1
    18   18   14 ar
    19   19    6 1
    20   20   22 ar
    21   21    2 1
    22   22   18 ar
    23   23    5 1
    24   24    9 1
    25   25   15 1
    26   26   19 1
    27   27    8 1
    28   28    8 1
    29   29   17 1
    30   30   17 1
    31   31   14 1
    32   32   18 1
    33   33   22 1
    34   34   20 1
    35   35   12 1
    36   36   24 1
    37   37   24 1
    38   38   24 1
    39   39   16 1
    40   40   23 1
    41   41   23 1
    42   42   23 1
    43   43   21 1
    44   44   21 1
    45   45   21 1
    46    8   19 1
    47   15   19 1
@<TRIPOS>SUBSTRUCTURE
     1 RES1 1

@<TRIPOS>CRYSIN
   7.9110   16.7720   25.3020  90.0000  90.0000  90.0000  61 1

