# MOL2 file generated by ConQuest
# Please check atom types

@<TRIPOS>MOLECULE
IBABIX
    45    46     1
SMALL
NO_CHARGES
****
Generated from CSD

@<TRIPOS>ATOM
      1 O1         4.3335    3.3579    7.8437 O.2       1 RES1    0.0000
      2 O2         1.5785    3.5852    8.9123 O.3       1 RES1    0.0000
      3 O3         6.2803    1.0867    7.9545 O.2       1 RES1    0.0000
      4 O4         8.2387    1.7933    8.8173 O.3       1 RES1    0.0000
      5 O5         4.6662    2.5251   11.6535 O.3       1 RES1    0.0000
      6 O6         3.2109    1.4581    7.3618 O.3       1 RES1    0.0000
      7 N1         3.2376    2.2058   11.8422 N.3       1 RES1    0.0000
      8 C1         2.7065    2.2882   10.4759 C.3       1 RES1    0.0000
      9 C2         6.9030    1.5960    8.8614 C.2       1 RES1    0.0000
     10 C3         3.8590    2.3044    8.1775 C.2       1 RES1    0.0000
     11 C4         1.4642    4.3810   11.2076 C.ar      1 RES1    0.0000
     12 C5         2.3051    3.7280   10.1336 C.3       1 RES1    0.0000
     13 C6         6.3702    2.0559   10.1410 C.2       1 RES1    0.0000
     14 C7         3.1917    0.8332   12.3713 C.3       1 RES1    0.0000
     15 C8         5.0644    2.0922   10.4151 C.2       1 RES1    0.0000
     16 C9         1.1000    6.1894   12.7641 C.ar      1 RES1    0.0000
     17 C10        1.4349    4.8201    8.2129 C.3       1 RES1    0.0000
     18 C11        1.8716    5.5785   11.7793 C.ar      1 RES1    0.0000
     19 C12        3.8602    1.7387    9.5870 C.3       1 RES1    0.0000
     20 C13        0.2583    3.8065   11.6166 C.ar      1 RES1    0.0000
     21 C14       -0.5086    4.4163   12.6011 C.ar      1 RES1    0.0000
     22 C15        3.0501    1.9319    6.0034 C.3       1 RES1    0.0000
     23 C16       -0.0884    5.6062   13.1781 C.ar      1 RES1    0.0000
     24 C17        8.8837    1.3898    7.5905 C.3       1 RES1    0.0000
     25 H1         3.7795    0.7861    9.5267 H         1 RES1    0.0000
     26 H2         1.9179    1.7188   10.4204 H         1 RES1    0.0000
     27 H3         2.2493    0.6559   12.5645 H         1 RES1    0.0000
     28 H4         3.6955    0.8199   13.2021 H         1 RES1    0.0000
     29 H5         3.5383    0.1599   11.7680 H         1 RES1    0.0000
     30 H6         3.1071    4.2708    9.9877 H         1 RES1    0.0000
     31 H7        -0.0445    2.9691   11.1781 H         1 RES1    0.0000
     32 H8        -1.3405    4.0145   12.8772 H         1 RES1    0.0000
     33 H9        -0.6493    6.0326   13.8503 H         1 RES1    0.0000
     34 H10        1.4003    7.0226   13.1527 H         1 RES1    0.0000
     35 H11        2.6859    5.9967   11.4783 H         1 RES1    0.0000
     36 H12        0.9467    5.4955    8.7584 H         1 RES1    0.0000
     37 H13        0.9096    4.6213    7.3808 H         1 RES1    0.0000
     38 H14        2.3253    5.1839    7.9442 H         1 RES1    0.0000
     39 H15        7.0032    2.3275   10.8143 H         1 RES1    0.0000
     40 H16        8.7296    0.4161    7.3897 H         1 RES1    0.0000
     41 H17        9.8059    1.5917    7.7129 H         1 RES1    0.0000
     42 H18        8.5368    1.9268    6.8280 H         1 RES1    0.0000
     43 H19        3.9210    2.0877    5.5811 H         1 RES1    0.0000
     44 H20        2.5763    1.2012    5.5405 H         1 RES1    0.0000
     45 H21        2.5444    2.7734    5.9785 H         1 RES1    0.0000
@<TRIPOS>BOND
     1    1   10 2
     2    2   12 1
     3    3    9 2
     4    4    9 1
     5    5    7 1
     6    6   10 1
     7    7    8 1
     8    8   12 1
     9    9   13 1
    10   10   19 1
    11   11   12 1
    12   12   30 1
    13   13   15 2
    14   14    7 1
    15   15    5 1
    16   16   18 ar
    17   17    2 1
    18   18   11 ar
    19   19    8 1
    20   20   11 ar
    21   21   20 ar
    22   22    6 1
    23   23   16 ar
    24   24    4 1
    25   25   19 1
    26   26    8 1
    27   27   14 1
    28   28   14 1
    29   29   14 1
    30   31   20 1
    31   32   21 1
    32   33   23 1
    33   34   16 1
    34   35   18 1
    35   36   17 1
    36   37   17 1
    37   38   17 1
    38   39   13 1
    39   40   24 1
    40   41   24 1
    41   42   24 1
    42   43   22 1
    43   44   22 1
    44   45   22 1
    45   15   19 1
    46   21   23 ar
@<TRIPOS>SUBSTRUCTURE
     1 RES1 1

@<TRIPOS>CRYSIN
   9.3500   10.2490   17.6780  90.0000  92.4600  90.0000  14 1

