# MOL2 file generated by ConQuest
# Please check atom types

@<TRIPOS>MOLECULE
IBABOD
    45    47     1
SMALL
NO_CHARGES
****
Generated from CSD

@<TRIPOS>ATOM
      1 O1         3.7949    2.3495    9.9454 O.3       1 RES1    0.0000
      2 O2         1.2604    3.8965   10.2611 O.2       1 RES1    0.0000
      3 O3         3.4384    2.3646   13.5273 O.3       1 RES1    0.0000
      4 O4         2.1561    0.9309    9.3360 O.2       1 RES1    0.0000
      5 O5         1.4033    5.8909   11.2974 O.3       1 RES1    0.0000
      6 N1         3.0317    0.9426   13.7775 N.3       1 RES1    0.0000
      7 C1         2.7022    1.6083   10.1704 C.2       1 RES1    0.0000
      8 C2         1.6772    4.5739   11.1774 C.2       1 RES1    0.0000
      9 C3         2.8669    0.4079   12.3978 C.3       1 RES1    0.0000
     10 C4         2.7278    2.7952   12.4596 C.2       1 RES1    0.0000
     11 C5         4.3035    2.2991    8.5885 C.3       1 RES1    0.0000
     12 C6         4.2632    0.2896   14.3271 C.3       1 RES1    0.0000
     13 C7         4.7982   -2.0918   14.9793 C.ar      1 RES1    0.0000
     14 C8         2.5153   -1.3791   15.1806 C.ar      1 RES1    0.0000
     15 C9         4.4482   -3.3475   15.4544 C.ar      1 RES1    0.0000
     16 C10        3.1306   -3.6296   15.7782 C.ar      1 RES1    0.0000
     17 C11        3.8343   -1.0963   14.8142 C.ar      1 RES1    0.0000
     18 C12        2.1717   -2.6374   15.6579 C.ar      1 RES1    0.0000
     19 C13        0.4761    6.4357   10.3220 C.3       1 RES1    0.0000
     20 C14        2.4853    4.0988   12.2970 C.2       1 RES1    0.0000
     21 C15        4.2510   -0.1544   11.9619 C.3       1 RES1    0.0000
     22 C16        5.1942    0.2107   13.1052 C.3       1 RES1    0.0000
     23 C17        4.8260    1.0770   15.5047 C.3       1 RES1    0.0000
     24 C18        2.2814    1.6184   11.6267 C.3       1 RES1    0.0000
     25 H1         1.3350    1.5579   11.6355 H         1 RES1    0.0000
     26 H2         2.2103   -0.2946   12.4510 H         1 RES1    0.0000
     27 H3         4.5418    0.2132   11.0844 H         1 RES1    0.0000
     28 H4         4.1822   -1.1315   11.8861 H         1 RES1    0.0000
     29 H5         5.6002    1.0845   12.9730 H         1 RES1    0.0000
     30 H6         5.9451   -0.4172   13.2356 H         1 RES1    0.0000
     31 H7         5.1440    1.9818   15.2376 H         1 RES1    0.0000
     32 H8         4.1401    1.1852   16.1990 H         1 RES1    0.0000
     33 H9         5.5403    0.5834   15.8968 H         1 RES1    0.0000
     34 H10        1.8727   -0.7085   15.1139 H         1 RES1    0.0000
     35 H11        1.2609   -2.8095   15.9157 H         1 RES1    0.0000
     36 H12        2.8540   -4.5000   16.0582 H         1 RES1    0.0000
     37 H13        5.1028   -3.9972   15.5586 H         1 RES1    0.0000
     38 H14        5.7245   -1.9038   14.7877 H         1 RES1    0.0000
     39 H15        2.7657    4.7141   12.9438 H         1 RES1    0.0000
     40 H16        0.6740    6.1503    9.4653 H         1 RES1    0.0000
     41 H17       -0.4742    6.1293   10.5332 H         1 RES1    0.0000
     42 H18        0.5634    7.4043   10.3547 H         1 RES1    0.0000
     43 H19        3.6311    2.5258    7.9836 H         1 RES1    0.0000
     44 H20        4.6600    1.4035    8.4146 H         1 RES1    0.0000
     45 H21        5.0165    2.9824    8.5639 H         1 RES1    0.0000
@<TRIPOS>BOND
     1    1    7 1
     2    2    8 2
     3    3    6 1
     4    4    7 2
     5    5    8 1
     6    6    9 1
     7    7   24 1
     8    8   20 1
     9    9   21 1
    10   10    3 1
    11   11    1 1
    12   12    6 1
    13   13   15 ar
    14   14   17 ar
    15   15   16 ar
    16   16   18 ar
    17   17   12 1
    18   18   14 ar
    19   19    5 1
    20   20   10 2
    21   21   22 1
    22   22   12 1
    23   23   12 1
    24   24    9 1
    25   25   24 1
    26   26    9 1
    27   27   21 1
    28   28   21 1
    29   29   22 1
    30   30   22 1
    31   31   23 1
    32   32   23 1
    33   33   23 1
    34   34   14 1
    35   35   18 1
    36   36   16 1
    37   37   15 1
    38   38   13 1
    39   39   20 1
    40   40   19 1
    41   41   19 1
    42   42   19 1
    43   43   11 1
    44   44   11 1
    45   45   11 1
    46   10   24 1
    47   13   17 ar
@<TRIPOS>SUBSTRUCTURE
     1 RES1 1

@<TRIPOS>CRYSIN
  11.2610    8.3940   17.4810  90.0000 100.8400  90.0000 231 1

