# MOL2 file generated by ConQuest
# Please check atom types

@<TRIPOS>MOLECULE
IBANIJ
   151   153     2
SMALL
NO_CHARGES
****
Generated from CSD

@<TRIPOS>ATOM
      1 O1        -1.0465    4.3913    2.4313 O.3       1 RES1    0.0000
      2 O2        11.2851    4.0223    8.9215 O.3       1 RES1    0.0000
      3 O3        12.4978    2.4168    8.2751 O.2       1 RES1    0.0000
      4 O4        16.8395    3.5672   12.7630 O.2       1 RES1    0.0000
      5 N1        15.7332    3.4920   11.9249 N.3       1 RES1    0.0000
      6 C1        -4.9142    4.3639    0.3547 C.ar      1 RES1    0.0000
      7 C2        -3.8622    3.5099   -0.0973 C.ar      1 RES1    0.0000
      8 C3        -4.5015    5.1325    1.4931 C.ar      1 RES1    0.0000
      9 C4        -2.5871    3.4843    0.5292 C.ar      1 RES1    0.0000
     10 C5        -3.1978    5.0642    2.1310 C.ar      1 RES1    0.0000
     11 C6        -2.2006    4.2017    1.5389 C.ar      1 RES1    0.0000
     12 C7        -0.0132    3.3477    2.2397 C.3       1 RES1    0.0000
     13 C8         1.1782    3.7661    3.1493 C.3       1 RES1    0.0000
     14 C9         1.8120    3.1171    3.6413 C.3       1 RES1    0.0000
     15 C10        3.0317    3.1342    4.6882 C.3       1 RES1    0.0000
     16 C11        3.9123    4.3725    4.5280 C.3       1 RES1    0.0000
     17 C12        5.0055    4.4323    5.7265 C.3       1 RES1    0.0000
     18 C13        5.9340    5.5852    5.5606 C.3       1 RES1    0.0000
     19 C14        7.0890    5.8243    6.7276 C.3       1 RES1    0.0000
     20 C15        8.1519    4.6714    6.6618 C.3       1 RES1    0.0000
     21 C16        9.2363    4.9020    7.8031 C.3       1 RES1    0.0000
     22 C17       10.2429    3.7832    7.7774 C.3       1 RES1    0.0000
     23 C18       12.3155    3.2794    9.0331 C.2       1 RES1    0.0000
     24 C19       13.2420    3.6893   10.2402 C.3       1 RES1    0.0000
     25 C20       13.7053    2.3741   10.9238 C.3       1 RES1    0.0000
     26 C21       14.5744    4.3383    9.8683 C.3       1 RES1    0.0000
     27 C22       14.6944    2.5449   12.2167 C.3       1 RES1    0.0000
     28 C23       15.4723    4.7235   11.0640 C.3       1 RES1    0.0000
     29 C24       14.0202    3.0317   13.4581 C.3       1 RES1    0.0000
     30 C25       15.4203    1.1785   12.6601 C.3       1 RES1    0.0000
     31 C26       16.8453    5.1582   10.5062 C.3       1 RES1    0.0000
     32 C27       15.0385    5.8755   11.9049 C.3       1 RES1    0.0000
     33 H1        -3.9741    2.9207   -0.8009 H         1 RES1    0.0000
     34 H2        -5.1908    5.6654    1.8535 H         1 RES1    0.0000
     35 H3        -1.9520    2.9711    0.2117 H         1 RES1    0.0000
     36 H4        -3.0905    5.6484    2.8976 H         1 RES1    0.0000
     37 H5        -0.5205    2.5526    2.3369 H         1 RES1    0.0000
     38 H6         0.2012    3.4792    1.3244 H         1 RES1    0.0000
     39 H7         1.3947    4.4280    2.8861 H         1 RES1    0.0000
     40 H8         0.5196    3.8131    4.0103 H         1 RES1    0.0000
     41 H9         1.4273    2.4313    3.8815 H         1 RES1    0.0000
     42 H10        2.3127    3.1735    2.8461 H         1 RES1    0.0000
     43 H11        2.7327    3.1427    5.5606 H         1 RES1    0.0000
     44 H12        3.5757    2.4194    4.4794 H         1 RES1    0.0000
     45 H13        4.4200    4.3212    3.7643 H         1 RES1    0.0000
     46 H14        3.4272    5.1445    4.6252 H         1 RES1    0.0000
     47 H15        4.6230    4.5535    6.6075 H         1 RES1    0.0000
     48 H16        5.5840    3.6585    5.7808 H         1 RES1    0.0000
     49 H17        6.4022    5.5160    4.7196 H         1 RES1    0.0000
     50 H18        5.4402    6.4118    5.5434 H         1 RES1    0.0000
     51 H19        7.5434    6.6245    6.6046 H         1 RES1    0.0000
     52 H20        6.6906    5.7602    7.5686 H         1 RES1    0.0000
     53 H21        7.7423    3.8345    6.7619 H         1 RES1    0.0000
     54 H22        8.6091    4.7098    5.8180 H         1 RES1    0.0000
     55 H23        9.6517    5.7090    7.6944 H         1 RES1    0.0000
     56 H24        8.7758    4.8490    8.6441 H         1 RES1    0.0000
     57 H25       10.6780    3.8225    6.9307 H         1 RES1    0.0000
     58 H26        9.8021    2.9625    7.8804 H         1 RES1    0.0000
     59 H27        1.2960    2.3630    4.0017 Du        2 SUP2    0.0000
     60 H28       12.7549    4.2273   10.8637 H         1 RES1    0.0000
     61 H29       12.9404    1.8984   11.1812 H         1 RES1    0.0000
     62 H30       14.1758    1.8805   10.2430 H         1 RES1    0.0000
     63 H31       15.0309    3.7123    9.3306 H         1 RES1    0.0000
     64 H32       14.3715    5.1163    9.3763 H         1 RES1    0.0000
     65 H33       14.4466    2.6628   14.2047 H         1 RES1    0.0000
     66 H34       14.1196    3.9950   13.4810 H         1 RES1    0.0000
     67 H35       13.1114    2.8173   13.4295 H         1 RES1    0.0000
     68 H36       15.3122    1.2503   13.6412 H         1 RES1    0.0000
     69 H37       14.8694    0.5192   12.3454 H         1 RES1    0.0000
     70 H38       16.2430    1.2383   12.3998 H         1 RES1    0.0000
     71 H39       17.3881    5.3247   11.2642 H         1 RES1    0.0000
     72 H40       17.1440    4.5108    9.9684 H         1 RES1    0.0000
     73 H41       16.6736    5.9865   10.0571 H         1 RES1    0.0000
     74 H42       15.1850    5.6876   12.8145 H         1 RES1    0.0000
     75 H43       15.5708    6.6638   11.6704 H         1 RES1    0.0000
     76 H44       14.1405    6.0651   11.7304 H         1 RES1    0.0000
     77 C1B       -6.1898    4.1761   -0.3547 C.ar      1 RES1    0.0000
     78 C2B       -7.2418    5.0301    0.0973 C.ar      1 RES1    0.0000
     79 C4B       -8.5169    5.0557   -0.5292 C.ar      1 RES1    0.0000
     80 C6B       -8.9034    4.3383   -1.5389 C.ar      1 RES1    0.0000
     81 O1B      -10.0575    4.1487   -2.4313 O.3       1 RES1    0.0000
     82 C7B      -11.0908    5.1923   -2.2397 C.3       1 RES1    0.0000
     83 C8B      -12.2822    4.7739   -3.1493 C.3       1 RES1    0.0000
     84 C9B      -12.9160    5.4229   -3.6413 C.3       1 RES1    0.0000
     85 C10B     -14.1357    5.4058   -4.6882 C.3       1 RES1    0.0000
     86 C11B     -15.0163    4.1675   -4.5280 C.3       1 RES1    0.0000
     87 C12B     -16.1095    4.1077   -5.7265 C.3       1 RES1    0.0000
     88 C13B     -17.0380    2.9548   -5.5606 C.3       1 RES1    0.0000
     89 C14B     -18.1930    2.7157   -6.7276 C.3       1 RES1    0.0000
     90 C15B     -19.2559    3.8686   -6.6618 C.3       1 RES1    0.0000
     91 C16B     -20.3403    3.6380   -7.8031 C.3       1 RES1    0.0000
     92 C17B     -21.3469    4.7568   -7.7774 C.3       1 RES1    0.0000
     93 O2B      -22.3891    4.5177   -8.9215 O.3       1 RES1    0.0000
     94 C18B     -23.4195    5.2606   -9.0331 C.2       1 RES1    0.0000
     95 O3B      -23.6018    6.1232   -8.2751 O.2       1 RES1    0.0000
     96 C19B     -24.3460    4.8507  -10.2402 C.3       1 RES1    0.0000
     97 C20B     -24.8093    6.1659  -10.9238 C.3       1 RES1    0.0000
     98 C22B     -25.7984    5.9951  -12.2167 C.3       1 RES1    0.0000
     99 N1B      -26.8372    5.0480  -11.9249 N.3       1 RES1    0.0000
    100 O4B      -27.9435    4.9728  -12.7630 O.2       1 RES1    0.0000
    101 C23B     -26.5763    3.8165  -11.0640 C.3       1 RES1    0.0000
    102 C21B     -25.6784    4.2017   -9.8683 C.3       1 RES1    0.0000
    103 H28B     -23.8589    4.3127  -10.8637 H         1 RES1    0.0000
    104 H31B     -26.1349    4.8277   -9.3306 H         1 RES1    0.0000
    105 H32B     -25.4755    3.4237   -9.3763 H         1 RES1    0.0000
    106 C26B     -27.9493    3.3818  -10.5062 C.3       1 RES1    0.0000
    107 H39B     -28.4921    3.2153  -11.2642 H         1 RES1    0.0000
    108 H40B     -28.2480    4.0292   -9.9684 H         1 RES1    0.0000
    109 H41B     -27.7776    2.5535  -10.0571 H         1 RES1    0.0000
    110 C27B     -26.1425    2.6645  -11.9049 C.3       1 RES1    0.0000
    111 H42B     -26.2890    2.8524  -12.8145 H         1 RES1    0.0000
    112 H43B     -26.6748    1.8762  -11.6704 H         1 RES1    0.0000
    113 H44B     -25.2445    2.4749  -11.7304 H         1 RES1    0.0000
    114 C24B     -25.1242    5.5083  -13.4581 C.3       1 RES1    0.0000
    115 H33B     -25.5506    5.8772  -14.2047 H         1 RES1    0.0000
    116 H34B     -25.2236    4.5450  -13.4810 H         1 RES1    0.0000
    117 H35B     -24.2154    5.7227  -13.4295 H         1 RES1    0.0000
    118 C25B     -26.5243    7.3615  -12.6601 C.3       1 RES1    0.0000
    119 H36B     -26.4162    7.2897  -13.6412 H         1 RES1    0.0000
    120 H37B     -25.9734    8.0208  -12.3454 H         1 RES1    0.0000
    121 H38B     -27.3470    7.3017  -12.3998 H         1 RES1    0.0000
    122 H29B     -24.0444    6.6416  -11.1812 H         1 RES1    0.0000
    123 H30B     -25.2798    6.6595  -10.2430 H         1 RES1    0.0000
    124 H25B     -21.7820    4.7175   -6.9307 H         1 RES1    0.0000
    125 H26B     -20.9061    5.5775   -7.8804 H         1 RES1    0.0000
    126 H23B     -20.7557    2.8310   -7.6944 H         1 RES1    0.0000
    127 H24B     -19.8798    3.6910   -8.6441 H         1 RES1    0.0000
    128 H21B     -18.8463    4.7055   -6.7619 H         1 RES1    0.0000
    129 H22B     -19.7131    3.8302   -5.8180 H         1 RES1    0.0000
    130 H19B     -18.6474    1.9155   -6.6046 H         1 RES1    0.0000
    131 H20B     -17.7946    2.7798   -7.5686 H         1 RES1    0.0000
    132 H17B     -17.5062    3.0240   -4.7196 H         1 RES1    0.0000
    133 H18B     -16.5442    2.1282   -5.5434 H         1 RES1    0.0000
    134 H15B     -15.7270    3.9865   -6.6075 H         1 RES1    0.0000
    135 H16B     -16.6880    4.8815   -5.7808 H         1 RES1    0.0000
    136 H13B     -15.5240    4.2188   -3.7643 H         1 RES1    0.0000
    137 H14B     -14.5312    3.3955   -4.6252 H         1 RES1    0.0000
    138 H11B     -13.8367    5.3973   -5.5606 H         1 RES1    0.0000
    139 H12B     -14.6797    6.1206   -4.4794 H         1 RES1    0.0000
    140 H9B      -12.5313    6.1087   -3.8815 H         1 RES1    0.0000
    141 H10B     -13.4167    5.3665   -2.8461 H         1 RES1    0.0000
    142 H7B      -12.4987    4.1120   -2.8861 H         1 RES1    0.0000
    143 H8B      -11.6236    4.7269   -4.0103 H         1 RES1    0.0000
    144 H5B      -10.5835    5.9874   -2.3369 H         1 RES1    0.0000
    145 H6B      -11.3052    5.0608   -1.3244 H         1 RES1    0.0000
    146 C5B       -7.9062    3.4758   -2.1310 C.ar      1 RES1    0.0000
    147 C3B       -6.6025    3.4075   -1.4931 C.ar      1 RES1    0.0000
    148 H2B       -5.9132    2.8746   -1.8535 H         1 RES1    0.0000
    149 H4B       -8.0135    2.8916   -2.8976 H         1 RES1    0.0000
    150 H3B       -9.1520    5.5689   -0.2117 H         1 RES1    0.0000
    151 H1B       -7.1299    5.6193    0.8009 H         1 RES1    0.0000
@<TRIPOS>BOND
     1    1   11 1
     2    2   22 1
     3    3   23 2
     4    4    5 1
     5    5   27 1
     6    6    7 ar
     7    7    9 ar
     8    8    6 ar
     9    9   11 ar
    10   10    8 ar
    11   11   10 ar
    12   12    1 1
    13   13   12 1
    14   14   13 1
    15   15   14 1
    16   16   15 1
    17   17   16 1
    18   18   17 1
    19   19   18 1
    20   20   19 1
    21   21   20 1
    22   22   21 1
    23   23    2 1
    24   24   23 1
    25   25   24 1
    26   26   24 1
    27   27   25 1
    28   28    5 1
    29   29   27 1
    30   30   27 1
    31   31   28 1
    32   32   28 1
    33   33    7 1
    34   34    8 1
    35   35    9 1
    36   36   10 1
    37   37   12 1
    38   38   12 1
    39   39   13 1
    40   40   13 1
    41   41   14 1
    42   42   14 1
    43   43   15 1
    44   44   15 1
    45   45   16 1
    46   46   16 1
    47   47   17 1
    48   48   17 1
    49   49   18 1
    50   50   18 1
    51   51   19 1
    52   52   19 1
    53   53   20 1
    54   54   20 1
    55   55   21 1
    56   56   21 1
    57   57   22 1
    58   58   22 1
    59   60   24 1
    60   61   25 1
    61   62   25 1
    62   63   26 1
    63   64   26 1
    64   65   29 1
    65   66   29 1
    66   67   29 1
    67   68   30 1
    68   69   30 1
    69   70   30 1
    70   71   31 1
    71   72   31 1
    72   73   31 1
    73   74   32 1
    74   75   32 1
    75   76   32 1
    76   77    6 1
    77   78   77 ar
    78   79   78 ar
    79   80   79 ar
    80   81   80 1
    81   82   81 1
    82   83   82 1
    83   84   83 1
    84   85   84 1
    85   86   85 1
    86   87   86 1
    87   88   87 1
    88   89   88 1
    89   90   89 1
    90   91   90 1
    91   92   91 1
    92   93   92 1
    93   94   93 1
    94   95   94 2
    95   96   94 1
    96   97   96 1
    97   98   97 1
    98   99   98 1
    99  100   99 1
   100  101   99 1
   101  102   96 1
   102  103   96 1
   103  104  102 1
   104  105  102 1
   105  106  101 1
   106  107  106 1
   107  108  106 1
   108  109  106 1
   109  110  101 1
   110  111  110 1
   111  112  110 1
   112  113  110 1
   113  114   98 1
   114  115  114 1
   115  116  114 1
   116  117  114 1
   117  118   98 1
   118  119  118 1
   119  120  118 1
   120  121  118 1
   121  122   97 1
   122  123   97 1
   123  124   92 1
   124  125   92 1
   125  126   91 1
   126  127   91 1
   127  128   90 1
   128  129   90 1
   129  130   89 1
   130  131   89 1
   131  132   88 1
   132  133   88 1
   133  134   87 1
   134  135   87 1
   135  136   86 1
   136  137   86 1
   137  138   85 1
   138  139   85 1
   139  140   84 1
   140  141   84 1
   141  142   83 1
   142  143   83 1
   143  144   82 1
   144  145   82 1
   145  146   80 ar
   146  147   77 ar
   147  148  147 1
   148  149  146 1
   149  150   79 1
   150  151   78 1
   151   26   28 1
   152  101  102 1
   153  146  147 ar
@<TRIPOS>SUBSTRUCTURE
     1 RES1 1
     2 SUP2 59

@<TRIPOS>CRYSIN
  11.1040    8.5400   28.6100  90.0000  91.1900  90.0000  14 2

