# MOL2 file generated by ConQuest
# Please check atom types

@<TRIPOS>MOLECULE
IBANOP
   149   149     2
SMALL
NO_CHARGES
****
Generated from CSD

@<TRIPOS>ATOM
      1 O1        -7.4229    0.0741    1.9843 O.3       1 RES1    0.0000
      2 O2         4.0215    0.2551    8.6850 O.3       1 RES1    0.0000
      3 O3         5.4058    1.7924    7.9939 O.2       1 RES1    0.0000
      4 O4         9.2579    0.6483   12.4731 O.2       1 RES1    0.0000
      5 N1         8.2885    0.7022   11.6430 N.3       1 RES1    0.0000
      6 C1       -10.3065    0.4774   -0.2943 C.ar      1 RES1    0.0000
      7 C2       -10.7823    1.1955   -1.4188 C.ar      1 RES1    0.0000
      8 C3        -9.0265    0.6794    0.2554 C.ar      1 RES1    0.0000
      9 C4        -9.5030   -0.9859    1.9157 C.ar      1 RES1    0.0000
     10 C5        -8.6278   -0.0303    1.3416 C.ar      1 RES1    0.0000
     11 C6        -6.6021    1.1863    1.6088 C.3       1 RES1    0.0000
     12 C7        -5.0981    0.8444    2.1936 Du        2 SUP2    0.0000
     13 C8        -5.7694    1.6005    2.9378 C.3       1 RES1    0.0000
     14 C9        -5.0118    0.8823    3.3911 C.3       1 RES1    0.0000
     15 C10       -3.8908    0.9825    4.3508 C.3       1 RES1    0.0000
     16 C11       -2.9481   -0.1659    4.3130 C.3       1 RES1    0.0000
     17 C12       -1.8903   -0.1760    5.4011 C.3       1 RES1    0.0000
     18 C13       -0.9724   -1.3614    5.2841 C.3       1 RES1    0.0000
     19 C14        0.0478   -1.4767    6.4232 C.3       1 RES1    0.0000
     20 C15        1.1203   -0.4075    6.3943 C.3       1 RES1    0.0000
     21 C16        2.0967   -0.5346    7.5530 C.3       1 RES1    0.0000
     22 C17        3.1706    0.4698    7.5219 C.3       1 RES1    0.0000
     23 C18        5.1282    0.9556    8.7812 C.2       1 RES1    0.0000
     24 C19        5.9299    0.6272   10.0140 C.3       1 RES1    0.0000
     25 C20        7.1906   -0.1355    9.6036 C.3       1 RES1    0.0000
     26 C21        6.3481    1.8851   10.7166 C.3       1 RES1    0.0000
     27 C22        8.1035   -0.4833   10.7689 C.3       1 RES1    0.0000
     28 C23        7.1859    1.6569   11.9742 C.3       1 RES1    0.0000
     29 C24        7.5391   -1.6518   11.6041 C.3       1 RES1    0.0000
     30 C25        9.4802   -0.8689   10.2230 C.3       1 RES1    0.0000
     31 C26        6.3384    1.1088   13.1281 C.3       1 RES1    0.0000
     32 C27        7.8384    2.9796   12.3967 C.3       1 RES1    0.0000
     33 H1       -10.1852    1.7975   -1.8158 H         1 RES1    0.0000
     34 H2        -8.2617    1.0398   -0.1987 H         1 RES1    0.0000
     35 H3        -9.1713   -1.5289    2.6356 H         1 RES1    0.0000
     36 H4        -5.9196    0.9261    1.0072 H         1 RES1    0.0000
     37 H5        -7.0755    1.9112    1.3206 H         1 RES1    0.0000
     38 H6        -3.4884    1.7874    3.9898 H         1 RES1    0.0000
     39 H7        -4.2368    1.1543    5.1929 H         1 RES1    0.0000
     40 H8        -3.5221   -0.8865    4.3675 H         1 RES1    0.0000
     41 H9        -2.5640   -0.0690    3.4610 H         1 RES1    0.0000
     42 H10       -1.3694    0.6213    5.3496 H         1 RES1    0.0000
     43 H11       -2.3264   -0.1962    6.2561 H         1 RES1    0.0000
     44 H12       -1.5199   -2.1309    5.3272 H         1 RES1    0.0000
     45 H13       -0.5300   -1.2932    4.4739 H         1 RES1    0.0000
     46 H14       -0.3777   -1.4212    7.2494 H         1 RES1    0.0000
     47 H15        0.4947   -2.3077    6.3261 H         1 RES1    0.0000
     48 H16        1.6166   -0.4597    5.5762 H         1 RES1    0.0000
     49 H17        0.7115    0.4580    6.4380 H         1 RES1    0.0000
     50 H18        1.6035   -0.4269    8.3574 H         1 RES1    0.0000
     51 H19        2.4651   -1.4094    7.5208 H         1 RES1    0.0000
     52 H20        2.8472    1.3462    7.5264 H         1 RES1    0.0000
     53 H21        3.7290    0.3427    6.7346 H         1 RES1    0.0000
     54 H22        5.3926    0.0623   10.5733 H         1 RES1    0.0000
     55 H23        6.9312   -0.9539    9.1855 H         1 RES1    0.0000
     56 H24        7.6712    0.3982    9.0065 H         1 RES1    0.0000
     57 H25        6.8420    2.3986   10.0949 H         1 RES1    0.0000
     58 H26        5.5539    2.3431   10.9566 H         1 RES1    0.0000
     59 H27        6.7018   -1.8707   11.2672 H         1 RES1    0.0000
     60 H28        8.1470   -2.4087   11.4379 H         1 RES1    0.0000
     61 H29        7.5553   -1.4279   12.4843 H         1 RES1    0.0000
     62 H30        9.7474   -1.6796   10.6824 H         1 RES1    0.0000
     63 H31        9.4040   -1.0372    9.3115 H         1 RES1    0.0000
     64 H32       10.0777   -0.1869   10.4222 H         1 RES1    0.0000
     65 H33        6.3626    1.7419   13.8105 H         1 RES1    0.0000
     66 H34        5.4908    0.9581   12.7949 H         1 RES1    0.0000
     67 H35        6.7580    0.2997   13.4020 H         1 RES1    0.0000
     68 H36        7.7749    3.0486   13.3209 H         1 RES1    0.0000
     69 H37        8.7559    2.9349   12.1234 H         1 RES1    0.0000
     70 H38        7.4009    3.6691   11.9471 H         1 RES1    0.0000
     71 H39       -4.5339   -0.0766    2.0537 Du        2 SUP2    0.0000
     72 H40       -4.2751    1.1745    1.9557 Du        2 SUP2    0.0000
     73 H41       -5.9049    0.8082    4.1577 H         1 RES1    0.0000
     74 H42       -5.2287    2.3456    2.6300 H         1 RES1    0.0000
     75 H43       -6.4844    2.0257    3.4834 H         1 RES1    0.0000
     76 H44       -5.1394    0.3107    2.9042 H         1 RES1    0.0000
     77 C1B      -11.2097   -0.4774    0.2943 C.ar      1 RES1    0.0000
     78 C2B      -10.7339   -1.1955    1.4188 C.ar      1 RES1    0.0000
     79 H1B      -11.3310   -1.7975    1.8158 H         1 RES1    0.0000
     80 C3B      -12.4897   -0.6794   -0.2554 C.ar      1 RES1    0.0000
     81 C5B      -12.8884    0.0303   -1.3416 C.ar      1 RES1    0.0000
     82 O1B      -14.0933   -0.0741   -1.9843 O.3       1 RES1    0.0000
     83 C6B      -14.9141   -1.1863   -1.6088 C.3       1 RES1    0.0000
     84 C8B      -15.7468   -1.6005   -2.9378 C.3       1 RES1    0.0000
     85 C9B      -16.5044   -0.8823   -3.3911 C.3       1 RES1    0.0000
     86 C10B     -17.6254   -0.9825   -4.3508 C.3       1 RES1    0.0000
     87 C11B     -18.5681    0.1659   -4.3130 C.3       1 RES1    0.0000
     88 C12B     -19.6259    0.1760   -5.4011 C.3       1 RES1    0.0000
     89 C13B     -20.5438    1.3614   -5.2841 C.3       1 RES1    0.0000
     90 C14B     -21.5640    1.4767   -6.4232 C.3       1 RES1    0.0000
     91 C15B     -22.6365    0.4075   -6.3943 C.3       1 RES1    0.0000
     92 C16B     -23.6129    0.5346   -7.5530 C.3       1 RES1    0.0000
     93 C17B     -24.6868   -0.4698   -7.5219 C.3       1 RES1    0.0000
     94 O2B      -25.5377   -0.2551   -8.6850 O.3       1 RES1    0.0000
     95 C18B     -26.6444   -0.9556   -8.7812 C.2       1 RES1    0.0000
     96 O3B      -26.9220   -1.7924   -7.9939 O.2       1 RES1    0.0000
     97 C19B     -27.4461   -0.6272  -10.0140 C.3       1 RES1    0.0000
     98 C20B     -28.7068    0.1355   -9.6036 C.3       1 RES1    0.0000
     99 C22B     -29.6197    0.4833  -10.7689 C.3       1 RES1    0.0000
    100 N1B      -29.8047   -0.7022  -11.6430 N.3       1 RES1    0.0000
    101 O4B      -30.7741   -0.6483  -12.4731 O.2       1 RES1    0.0000
    102 C23B     -28.7021   -1.6569  -11.9742 C.3       1 RES1    0.0000
    103 C21B     -27.8643   -1.8851  -10.7166 C.3       1 RES1    0.0000
    104 H22B     -26.9088   -0.0623  -10.5733 H         1 RES1    0.0000
    105 H25B     -28.3582   -2.3986  -10.0949 H         1 RES1    0.0000
    106 H26B     -27.0701   -2.3431  -10.9566 H         1 RES1    0.0000
    107 C26B     -27.8546   -1.1088  -13.1281 C.3       1 RES1    0.0000
    108 H33B     -27.8788   -1.7419  -13.8105 H         1 RES1    0.0000
    109 H34B     -27.0070   -0.9581  -12.7949 H         1 RES1    0.0000
    110 H35B     -28.2742   -0.2997  -13.4020 H         1 RES1    0.0000
    111 C27B     -29.3546   -2.9796  -12.3967 C.3       1 RES1    0.0000
    112 H36B     -29.2911   -3.0486  -13.3209 H         1 RES1    0.0000
    113 H37B     -30.2721   -2.9349  -12.1234 H         1 RES1    0.0000
    114 H38B     -28.9171   -3.6691  -11.9471 H         1 RES1    0.0000
    115 C24B     -29.0553    1.6518  -11.6041 C.3       1 RES1    0.0000
    116 H27B     -28.2180    1.8707  -11.2672 H         1 RES1    0.0000
    117 H28B     -29.6632    2.4087  -11.4379 H         1 RES1    0.0000
    118 H29B     -29.0715    1.4279  -12.4843 H         1 RES1    0.0000
    119 C25B     -30.9964    0.8689  -10.2230 C.3       1 RES1    0.0000
    120 H30B     -31.2636    1.6796  -10.6824 H         1 RES1    0.0000
    121 H31B     -30.9202    1.0372   -9.3115 H         1 RES1    0.0000
    122 H32B     -31.5939    0.1869  -10.4222 H         1 RES1    0.0000
    123 H23B     -28.4474    0.9539   -9.1855 H         1 RES1    0.0000
    124 H24B     -29.1874   -0.3982   -9.0065 H         1 RES1    0.0000
    125 H20B     -24.3634   -1.3462   -7.5264 H         1 RES1    0.0000
    126 H21B     -25.2452   -0.3427   -6.7346 H         1 RES1    0.0000
    127 H18B     -23.1197    0.4269   -8.3574 H         1 RES1    0.0000
    128 H19B     -23.9813    1.4094   -7.5208 H         1 RES1    0.0000
    129 H16B     -23.1328    0.4597   -5.5762 H         1 RES1    0.0000
    130 H17B     -22.2277   -0.4580   -6.4380 H         1 RES1    0.0000
    131 H14B     -21.1385    1.4212   -7.2494 H         1 RES1    0.0000
    132 H15B     -22.0109    2.3077   -6.3261 H         1 RES1    0.0000
    133 H12B     -19.9963    2.1309   -5.3272 H         1 RES1    0.0000
    134 H13B     -20.9862    1.2932   -4.4739 H         1 RES1    0.0000
    135 H10B     -20.1468   -0.6213   -5.3496 H         1 RES1    0.0000
    136 H11B     -19.1898    0.1962   -6.2561 H         1 RES1    0.0000
    137 H8B      -17.9941    0.8865   -4.3675 H         1 RES1    0.0000
    138 H9B      -18.9522    0.0690   -3.4610 H         1 RES1    0.0000
    139 H6B      -18.0278   -1.7874   -3.9898 H         1 RES1    0.0000
    140 H7B      -17.2794   -1.1543   -5.1929 H         1 RES1    0.0000
    141 H41B     -15.6113   -0.8082   -4.1577 H         1 RES1    0.0000
    142 H44B     -16.3768   -0.3107   -2.9042 H         1 RES1    0.0000
    143 H42B     -16.2875   -2.3456   -2.6300 H         1 RES1    0.0000
    144 H43B     -15.0318   -2.0257   -3.4834 H         1 RES1    0.0000
    145 H4B      -15.5966   -0.9261   -1.0072 H         1 RES1    0.0000
    146 H5B      -14.4407   -1.9112   -1.3206 H         1 RES1    0.0000
    147 C4B      -12.0132    0.9859   -1.9157 C.ar      1 RES1    0.0000
    148 H3B      -12.3449    1.5289   -2.6356 H         1 RES1    0.0000
    149 H2B      -13.2545   -1.0398    0.1987 H         1 RES1    0.0000
@<TRIPOS>BOND
     1    1   10 1
     2    2   22 1
     3    3   23 2
     4    4    5 1
     5    5   27 1
     6    6    7 ar
     7    7   33 1
     8    8    6 ar
     9    9   10 ar
    10   10    8 ar
    11   11    1 1
    12   13   11 1
    13   14   13 1
    14   15   14 1
    15   16   15 1
    16   17   16 1
    17   18   17 1
    18   19   18 1
    19   20   19 1
    20   21   20 1
    21   22   21 1
    22   23    2 1
    23   24   23 1
    24   25   24 1
    25   26   24 1
    26   27   25 1
    27   28    5 1
    28   29   27 1
    29   30   27 1
    30   31   28 1
    31   32   28 1
    32   34    8 1
    33   35    9 1
    34   36   11 1
    35   37   11 1
    36   38   15 1
    37   39   15 1
    38   40   16 1
    39   41   16 1
    40   42   17 1
    41   43   17 1
    42   44   18 1
    43   45   18 1
    44   46   19 1
    45   47   19 1
    46   48   20 1
    47   49   20 1
    48   50   21 1
    49   51   21 1
    50   52   22 1
    51   53   22 1
    52   54   24 1
    53   55   25 1
    54   56   25 1
    55   57   26 1
    56   58   26 1
    57   59   29 1
    58   60   29 1
    59   61   29 1
    60   62   30 1
    61   63   30 1
    62   64   30 1
    63   65   31 1
    64   66   31 1
    65   67   31 1
    66   68   32 1
    67   69   32 1
    68   70   32 1
    69   73   14 1
    70   74   13 1
    71   75   13 1
    72   76   14 1
    73   77    6 ar
    74   78    9 ar
    75   79   78 1
    76   80   77 ar
    77   81   80 ar
    78   82   81 1
    79   83   82 1
    80   84   83 1
    81   85   84 1
    82   86   85 1
    83   87   86 1
    84   88   87 1
    85   89   88 1
    86   90   89 1
    87   91   90 1
    88   92   91 1
    89   93   92 1
    90   94   93 1
    91   95   94 1
    92   96   95 2
    93   97   95 1
    94   98   97 1
    95   99   98 1
    96  100   99 1
    97  101  100 1
    98  102  100 1
    99  103   97 1
   100  104   97 1
   101  105  103 1
   102  106  103 1
   103  107  102 1
   104  108  107 1
   105  109  107 1
   106  110  107 1
   107  111  102 1
   108  112  111 1
   109  113  111 1
   110  114  111 1
   111  115   99 1
   112  116  115 1
   113  117  115 1
   114  118  115 1
   115  119   99 1
   116  120  119 1
   117  121  119 1
   118  122  119 1
   119  123   98 1
   120  124   98 1
   121  125   93 1
   122  126   93 1
   123  127   92 1
   124  128   92 1
   125  129   91 1
   126  130   91 1
   127  131   90 1
   128  132   90 1
   129  133   89 1
   130  134   89 1
   131  135   88 1
   132  136   88 1
   133  137   87 1
   134  138   87 1
   135  139   86 1
   136  140   86 1
   137  141   85 1
   138  142   85 1
   139  143   84 1
   140  144   84 1
   141  145   83 1
   142  146   83 1
   143  147    7 ar
   144  148  147 1
   145  149   80 1
   146   26   28 1
   147   77   78 ar
   148   81  147 ar
   149  102  103 1
@<TRIPOS>SUBSTRUCTURE
     1 RES1 1
     2 SUP2 12

@<TRIPOS>CRYSIN
  10.7581    8.4192   28.2880  90.0000  98.4747  90.0000  14 2

