# MOL2 file generated by ConQuest
# Please check atom types

@<TRIPOS>MOLECULE
IBAPOR
    42    44     1
SMALL
NO_CHARGES
****
Generated from CSD

@<TRIPOS>ATOM
      1 O1         7.2727    6.2913   10.7419 O.2       1 RES1    0.0000
      2 O2         5.8457    4.9288    5.1223 O.2       1 RES1    0.0000
      3 O3         5.9396    2.8326   11.2420 O.2       1 RES1    0.0000
      4 O4         7.8493    2.9689   10.2516 O.2       1 RES1    0.0000
      5 O5         4.1825    6.8575    6.2906 O.2       1 RES1    0.0000
      6 O6         5.5931    7.3285    7.8729 O.2       1 RES1    0.0000
      7 N1         6.6226    2.9827   10.2468 N.pl3     1 RES1    0.0000
      8 N2         4.9654    6.5370    7.1822 N.pl3     1 RES1    0.0000
      9 N3         3.7561    3.0400    7.8002 N.3       1 RES1    0.0000
     10 C1         8.7379    7.4245    9.2522 C.3       1 RES1    0.0000
     11 C2         7.7569    6.3595    9.6307 C.2       1 RES1    0.0000
     12 C3         7.3989    5.3517    8.5570 C.3       1 RES1    0.0000
     13 C4         5.9714    4.7998    8.6971 C.3       1 RES1    0.0000
     14 C5         5.1288    5.0348    7.4353 C.3       1 RES1    0.0000
     15 C6         5.8454    4.3950    6.2117 C.2       1 RES1    0.0000
     16 C7         6.5268    3.0977    6.4860 C.ar      1 RES1    0.0000
     17 C8         7.0827    2.4103    5.3910 C.ar      1 RES1    0.0000
     18 C9         7.6800    1.1723    5.5777 C.ar      1 RES1    0.0000
     19 C10        7.7201    0.6121    6.8426 C.ar      1 RES1    0.0000
     20 C11        7.1838    1.2836    7.9347 C.ar      1 RES1    0.0000
     21 C12        6.5813    2.5304    7.7657 C.ar      1 RES1    0.0000
     22 C13        5.9025    3.2616    8.9170 C.3       1 RES1    0.0000
     23 C14        4.4458    2.7845    9.0585 C.3       1 RES1    0.0000
     24 C15        2.4106    2.4664    7.8135 C.3       1 RES1    0.0000
     25 C16        3.6972    4.4795    7.5531 C.3       1 RES1    0.0000
     26 H1         9.4439    7.0964    8.6686 H         1 RES1    0.0000
     27 H2         8.2211    8.0348    8.7437 H         1 RES1    0.0000
     28 H3         9.1443    7.8328    9.9881 H         1 RES1    0.0000
     29 H4         7.5694    5.7772    7.7137 H         1 RES1    0.0000
     30 H5         8.0355    4.6528    8.6042 H         1 RES1    0.0000
     31 H6         5.5592    5.1820    9.4946 H         1 RES1    0.0000
     32 H7         7.0402    2.7929    4.5167 H         1 RES1    0.0000
     33 H8         8.0700    0.7205    4.8063 H         1 RES1    0.0000
     34 H9         8.1737   -0.2402    6.9949 H         1 RES1    0.0000
     35 H10        7.2078    0.8994    8.7651 H         1 RES1    0.0000
     36 H11        4.0556    3.2305    9.7950 H         1 RES1    0.0000
     37 H12        4.4480    1.8377    9.2318 H         1 RES1    0.0000
     38 H13        2.4645    1.4710    7.9283 H         1 RES1    0.0000
     39 H14        1.8741    2.7924    8.5720 H         1 RES1    0.0000
     40 H15        2.0211    2.6753    6.9520 H         1 RES1    0.0000
     41 H16        3.2299    4.6802    6.7053 H         1 RES1    0.0000
     42 H17        3.2254    4.9198    8.3467 H         1 RES1    0.0000
@<TRIPOS>BOND
     1    1   11 2
     2    2   15 2
     3    3    7 2
     4    4    7 2
     5    5    8 2
     6    6    8 2
     7    7   22 1
     8    8   14 1
     9    9   23 1
    10   10   11 1
    11   11   12 1
    12   12   13 1
    13   13   14 1
    14   14   15 1
    15   15   16 1
    16   16   17 ar
    17   17   18 ar
    18   18   19 ar
    19   19   20 ar
    20   20   21 ar
    21   21   16 ar
    22   22   13 1
    23   23   22 1
    24   24    9 1
    25   25    9 1
    26   26   10 1
    27   27   10 1
    28   28   10 1
    29   29   12 1
    30   30   12 1
    31   31   13 1
    32   32   17 1
    33   33   18 1
    34   34   19 1
    35   35   20 1
    36   36   23 1
    37   37   23 1
    38   38   24 1
    39   39   24 1
    40   40   24 1
    41   41   25 1
    42   42   25 1
    43   14   25 1
    44   21   22 1
@<TRIPOS>SUBSTRUCTURE
     1 RES1 1

@<TRIPOS>CRYSIN
   8.0240    9.6510   11.5090  76.8250  70.2730  72.1640   2 1

