# MOL2 file generated by ConQuest
# Please check atom types

@<TRIPOS>MOLECULE
IBAXAK
    94    94     2
SMALL
NO_CHARGES
****
Generated from CSD

@<TRIPOS>ATOM
      1 O1         3.8120    5.3720   24.7253 O.2       1 RES1    0.0000
      2 N1         3.2166    5.8135   23.7707 N.pl3     1 RES1    0.0000
      3 C1         3.2794    7.2717   23.5971 C.3       1 RES1    0.0000
      4 O2         2.5358    5.1451   23.0737 O.2       1 RES1    0.0000
      5 N2        -0.4395    6.6367   26.5749 N.3       1 RES1    0.0000
      6 C2         2.5857    7.9823   24.7389 C.3       1 RES1    0.0000
      7 O3         0.6113    8.0879   22.8513 O.3       1 RES1    0.0000
      8 C3         2.7242    9.5355   24.5490 C.3       1 RES1    0.0000
      9 O4        -0.9971    7.1275   24.0826 O.2       1 RES1    0.0000
     10 C4         1.1355    7.5391   25.0399 C.2       1 RES1    0.0000
     11 C5         0.7762    7.1486   26.2956 C.2       1 RES1    0.0000
     12 C6         1.7180    7.2752   27.4617 C.3       1 RES1    0.0000
     13 C7         0.1422    7.5162   23.9876 C.2       1 RES1    0.0000
     14 C8        -0.2663    8.1020   21.7177 C.3       1 RES1    0.0000
     15 C9         0.3419    7.9595   20.5163 C.3       1 RES1    0.0000
     16 C10       -0.9456    6.2128   27.8848 C.3       1 RES1    0.0000
     17 C11       -2.1046    5.2401   27.6326 C.3       1 RES1    0.0000
     18 C12       -1.4404    7.4054   28.6713 C.ar      1 RES1    0.0000
     19 C13       -2.0796    8.4889   28.1587 C.ar      1 RES1    0.0000
     20 C14       -2.5797    9.5074   28.9398 C.ar      1 RES1    0.0000
     21 C15       -2.4110    9.4546   30.2876 C.ar      1 RES1    0.0000
     22 C16       -1.7263    8.4344   30.8598 C.ar      1 RES1    0.0000
     23 C17       -1.3050    7.3843   30.0679 C.ar      1 RES1    0.0000
     24 O5         4.5488   10.7492   22.0513 O.2       2 RES2    0.0000
     25 N3         4.1418   10.8935   20.9095 N.pl3     2 RES2    0.0000
     26 C18        4.0284   12.2198   20.2966 C.3       2 RES2    0.0000
     27 O6         3.8150    9.9190   20.3373 O.2       2 RES2    0.0000
     28 N4         0.3192   12.1406   23.3774 N.3       2 RES2    0.0000
     29 C19        3.2840   13.1380   21.2214 C.3       2 RES2    0.0000
     30 O7         1.3405   12.5188   19.3555 O.3       2 RES2    0.0000
     31 C20        3.2983   14.5434   20.6112 C.3       2 RES2    0.0000
     32 O8        -0.2111   11.8891   20.8417 O.2       2 RES2    0.0000
     33 C21        1.8844   12.7000   21.6526 C.2       2 RES2    0.0000
     34 C22        1.5054   12.6560   22.9571 C.2       2 RES2    0.0000
     35 C23        2.4178   13.1608   24.0636 C.3       2 RES2    0.0000
     36 C24        0.9131   12.3218   20.6031 C.2       2 RES2    0.0000
     37 C25        0.4826   12.1529   18.2762 C.3       2 RES2    0.0000
     38 C26        1.0901   11.7589   17.2348 C.3       2 RES2    0.0000
     39 C27       -0.3155   12.3148   24.6656 C.3       2 RES2    0.0000
     40 C28       -1.1907   11.1063   24.9748 C.3       2 RES2    0.0000
     41 C29       -1.1325   13.5988   24.7334 C.ar      2 RES2    0.0000
     42 C30       -1.4177   14.3658   23.6134 C.ar      2 RES2    0.0000
     43 C31       -2.1598   15.5056   23.7137 C.ar      2 RES2    0.0000
     44 C32       -2.6863   15.9401   24.9260 C.ar      2 RES2    0.0000
     45 C33       -2.4178   15.1679   26.0244 C.ar      2 RES2    0.0000
     46 C34       -1.6083   14.0421   25.9321 C.ar      2 RES2    0.0000
     47 H1         2.8558    7.5162   22.7591 H         1 RES1    0.0000
     48 H2         4.2069    7.5531   23.5591 H         1 RES1    0.0000
     49 H3        -0.9789    6.5505   25.9104 H         1 RES1    0.0000
     50 H4         3.1024    7.7642   25.5416 H         1 RES1    0.0000
     51 H5         2.2824    9.9858   25.2731 H         1 RES1    0.0000
     52 H6         2.3209    9.7924   23.7192 H         1 RES1    0.0000
     53 H7         3.6539    9.7748   24.5436 H         1 RES1    0.0000
     54 H8         1.2891    6.9498   28.2563 H         1 RES1    0.0000
     55 H9         1.9563    8.1987   27.5810 H         1 RES1    0.0000
     56 H10        2.5101    6.7616   27.2909 H         1 RES1    0.0000
     57 H11       -0.9123    7.3860   21.8208 H         1 RES1    0.0000
     58 H12       -0.7557    8.9375   21.7150 H         1 RES1    0.0000
     59 H13       -0.3177    7.9823   19.8193 H         1 RES1    0.0000
     60 H14        0.8079    7.1222   20.4892 H         1 RES1    0.0000
     61 H15        0.9668    8.6771   20.3888 H         1 RES1    0.0000
     62 H16       -0.2345    5.7590   28.3811 H         1 RES1    0.0000
     63 H17       -1.7869    4.4855   27.1336 H         1 RES1    0.0000
     64 H18       -2.7953    5.6868   27.1363 H         1 RES1    0.0000
     65 H19       -2.4579    4.9410   28.4733 H         1 RES1    0.0000
     66 H20       -2.1848    8.5452   27.2366 H         1 RES1    0.0000
     67 H21       -3.0283   10.2215   28.5492 H         1 RES1    0.0000
     68 H22       -2.7688   10.1266   30.8219 H         1 RES1    0.0000
     69 H23       -1.5440    8.4414   31.7711 H         1 RES1    0.0000
     70 H24       -0.9199    6.6402   30.4747 H         1 RES1    0.0000
     71 H25        3.5563   12.1512   19.4532 H         2 RES2    0.0000
     72 H26        4.9127   12.5769   20.1230 H         2 RES2    0.0000
     73 H27       -0.1036   11.6516   22.8106 H         2 RES2    0.0000
     74 H28        3.8181   13.1907   22.0404 H         2 RES2    0.0000
     75 H29        2.8278   15.1485   21.1889 H         2 RES2    0.0000
     76 H30        2.8702   14.5241   19.7515 H         2 RES2    0.0000
     77 H31        4.2061   14.8389   20.5081 H         2 RES2    0.0000
     78 H32        1.9828   13.0518   24.9124 H         2 RES2    0.0000
     79 H33        2.6107   14.0913   23.9198 H         2 RES2    0.0000
     80 H34        3.2363   12.6613   24.0582 H         2 RES2    0.0000
     81 H35       -0.1097   11.4476   18.5772 H         2 RES2    0.0000
     82 H36       -0.0666   12.9181   18.0456 H         2 RES2    0.0000
     83 H37        0.4486   11.5320   16.5595 H         2 RES2    0.0000
     84 H38        1.6197   10.9867   17.4463 H         2 RES2    0.0000
     85 H39        1.6613   12.4608   16.9120 H         2 RES2    0.0000
     86 H40        0.3866   12.3640   25.3491 H         2 RES2    0.0000
     87 H41       -0.6604   10.3077   24.9260 H         2 RES2    0.0000
     88 H42       -1.9034   11.0553   24.3321 H         2 RES2    0.0000
     89 H43       -1.5599   11.1943   25.8562 H         2 RES2    0.0000
     90 H44       -1.0984   14.0984   22.7808 H         2 RES2    0.0000
     91 H45       -2.3187   16.0087   22.9489 H         2 RES2    0.0000
     92 H46       -3.1955   16.7158   24.9884 H         2 RES2    0.0000
     93 H47       -2.7839   15.4000   26.8461 H         2 RES2    0.0000
     94 H48       -1.3859   13.5795   26.7078 H         2 RES2    0.0000
@<TRIPOS>BOND
     1    1    2 2
     2    2    3 1
     3    3    6 1
     4    4    2 2
     5    5   11 1
     6    6    8 1
     7    7   13 1
     8    8   51 1
     9    9   13 2
    10   10    6 1
    11   11   10 2
    12   12   11 1
    13   13   10 1
    14   14    7 1
    15   15   14 1
    16   16    5 1
    17   17   16 1
    18   18   16 1
    19   19   18 ar
    20   20   19 ar
    21   21   20 ar
    22   22   21 ar
    23   23   18 ar
    24   24   25 2
    25   25   26 1
    26   26   29 1
    27   27   25 2
    28   28   34 1
    29   29   31 1
    30   30   36 1
    31   31   75 1
    32   32   36 2
    33   33   29 1
    34   34   33 2
    35   35   34 1
    36   36   33 1
    37   37   30 1
    38   38   37 1
    39   39   28 1
    40   40   39 1
    41   41   39 1
    42   42   41 ar
    43   43   42 ar
    44   44   43 ar
    45   45   44 ar
    46   46   41 ar
    47   47    3 1
    48   48    3 1
    49   49    5 1
    50   50    6 1
    51   52    8 1
    52   53    8 1
    53   54   12 1
    54   55   12 1
    55   56   12 1
    56   57   14 1
    57   58   14 1
    58   59   15 1
    59   60   15 1
    60   61   15 1
    61   62   16 1
    62   63   17 1
    63   64   17 1
    64   65   17 1
    65   66   19 1
    66   67   20 1
    67   68   21 1
    68   69   22 1
    69   70   23 1
    70   71   26 1
    71   72   26 1
    72   73   28 1
    73   74   29 1
    74   76   31 1
    75   77   31 1
    76   78   35 1
    77   79   35 1
    78   80   35 1
    79   81   37 1
    80   82   37 1
    81   83   38 1
    82   84   38 1
    83   85   38 1
    84   86   39 1
    85   87   40 1
    86   88   40 1
    87   89   40 1
    88   90   42 1
    89   91   43 1
    90   92   44 1
    91   93   45 1
    92   94   46 1
    93   22   23 ar
    94   45   46 ar
@<TRIPOS>SUBSTRUCTURE
     1 RES1 1
     2 RES2 24

@<TRIPOS>CRYSIN
   7.5650   17.5900   27.1200  90.0000  90.0000  90.0000  19 1

