# MOL2 file generated by ConQuest
# Please check atom types

@<TRIPOS>MOLECULE
IBESUD
    22    23     1
SMALL
NO_CHARGES
****
Generated from CSD

@<TRIPOS>ATOM
      1 C1         8.6105   -0.3892    4.3110 C.2       1 RES1    0.0000
      2 C2         9.4118   -1.4624    5.0271 C.3       1 RES1    0.0000
      3 C3         8.9233   -1.6321    6.4813 C.3       1 RES1    0.0000
      4 C4         7.5092   -2.2414    6.6466 C.3       1 RES1    0.0000
      5 C5         6.6010   -1.5984    5.6352 C.2       1 RES1    0.0000
      6 C6         5.9560   -0.4418    5.7784 C.2       1 RES1    0.0000
      7 C7         5.4943    0.2300    4.5291 C.3       1 RES1    0.0000
      8 C8         6.8142   -2.0064    4.1997 C.3       1 RES1    0.0000
      9 N1         7.4781   -0.8244    3.6004 N.am      1 RES1    0.0000
     10 O1         8.9320    0.7840    4.3407 O.2       1 RES1    0.0000
     11 O2         6.5248    0.2217    3.4494 O.3       1 RES1    0.0000
     12 H1        10.3372   -1.1611    5.0403 H         1 RES1    0.0000
     13 H2         9.3848   -2.2945    4.5732 H         1 RES1    0.0000
     14 H3         8.9483   -0.7409    6.9121 H         1 RES1    0.0000
     15 H4         9.5890   -2.1618    6.9418 H         1 RES1    0.0000
     16 H5         7.1620   -2.0623    7.5522 H         1 RES1    0.0000
     17 H6         7.5707   -3.2455    6.5045 H         1 RES1    0.0000
     18 H7         5.8985    0.0055    6.6091 H         1 RES1    0.0000
     19 H8         4.6965   -0.2101    4.1457 H         1 RES1    0.0000
     20 H9         5.3098    1.1887    4.6415 H         1 RES1    0.0000
     21 H10        5.9852   -2.1286    3.7172 H         1 RES1    0.0000
     22 H11        7.3678   -2.7976    4.1027 H         1 RES1    0.0000
@<TRIPOS>BOND
     1    1    2 1
     2    2    3 1
     3    3    4 1
     4    4    5 1
     5    5    6 2
     6    6    7 1
     7    7   11 1
     8    8    5 1
     9    9    1 1
    10   10    1 2
    11   11    9 1
    12   12    2 1
    13   13    2 1
    14   14    3 1
    15   15    3 1
    16   16    4 1
    17   17    4 1
    18   18    6 1
    19   19    7 1
    20   20    7 1
    21   21    8 1
    22   22    8 1
    23    8    9 1
@<TRIPOS>SUBSTRUCTURE
     1 RES1 1

@<TRIPOS>CRYSIN
  25.1330    5.5289   11.6527  90.0000 109.0120  90.0000  15 1

