# MOL2 file generated by ConQuest
# Please check atom types

@<TRIPOS>MOLECULE
IBETAK01
    25    26     1
SMALL
NO_CHARGES
****
Generated from CSD

@<TRIPOS>ATOM
      1 C1         8.7087    0.3865    5.9576 C.2       1 RES1    0.0000
      2 C2         9.8538    1.3661    5.7721 C.3       1 RES1    0.0000
      3 C3        10.2598    1.5902    4.2860 C.3       1 RES1    0.0000
      4 C4         9.5981    2.7762    3.5631 C.3       1 RES1    0.0000
      5 C5         8.2264    2.4922    2.9087 C.3       1 RES1    0.0000
      6 C6         7.3437    1.6751    3.8105 C.2       1 RES1    0.0000
      7 C7         6.9200    0.4475    3.5131 C.2       1 RES1    0.0000
      8 C8         6.2876   -0.4601    4.5217 C.3       1 RES1    0.0000
      9 C9         7.1566    2.1244    5.2436 C.3       1 RES1    0.0000
     10 N1         7.4361    0.9499    6.0860 N.am      1 RES1    0.0000
     11 O1         8.8901   -0.8176    6.0212 O.2       1 RES1    0.0000
     12 O2         6.3840    0.0130    5.9005 O.3       1 RES1    0.0000
     13 H1         9.6594    2.2250    6.1941 H         1 RES1    0.0000
     14 H2        10.6065    0.9648    6.2528 H         1 RES1    0.0000
     15 H3        10.1005    0.7356    3.7814 H         1 RES1    0.0000
     16 H4        11.2250    1.7426    4.2987 H         1 RES1    0.0000
     17 H5         9.5468    3.5394    4.1939 H         1 RES1    0.0000
     18 H6        10.2075    3.0812    2.8401 H         1 RES1    0.0000
     19 H7         8.3550    2.0019    2.0843 H         1 RES1    0.0000
     20 H8         7.8064    3.3525    2.6684 H         1 RES1    0.0000
     21 H9         7.0815    0.0663    2.6569 H         1 RES1    0.0000
     22 H10        6.7413   -1.3386    4.4681 H         1 RES1    0.0000
     23 H11        7.7447    2.8520    5.4912 H         1 RES1    0.0000
     24 H12        6.2350    2.3817    5.4359 H         1 RES1    0.0000
     25 H13        5.3082   -0.5668    4.3898 H         1 RES1    0.0000
@<TRIPOS>BOND
     1    1    2 1
     2    2    3 1
     3    3    4 1
     4    4    5 1
     5    5    6 1
     6    6    7 2
     7    7    8 1
     8    8   12 1
     9    9    6 1
    10   10    1 1
    11   11    1 2
    12   12   10 1
    13   13    2 1
    14   14    2 1
    15   15    3 1
    16   16    3 1
    17   17    4 1
    18   18    4 1
    19   19    5 1
    20   20    5 1
    21   21    7 1
    22   22    8 1
    23   23    9 1
    24   24    9 1
    25   25    8 1
    26    9   10 1
@<TRIPOS>SUBSTRUCTURE
     1 RES1 1

@<TRIPOS>CRYSIN
  24.2267    6.0297   11.6827  90.0000  99.5230  90.0000  15 1

