# MOL2 file generated by ConQuest
# Please check atom types

@<TRIPOS>MOLECULE
IBIFAB
    15    16     1
SMALL
NO_CHARGES
****
Generated from CSD

@<TRIPOS>ATOM
      1 O1         2.8064    4.9170    8.7027 O.3       1 RES1    0.0000
      2 O2         6.1633    4.8881   11.7154 O.2       1 RES1    0.0000
      3 N1         4.0787    4.9445    8.0588 N.2       1 RES1    0.0000
      4 N2         4.8886    4.9184   11.5471 N.pl3     1 RES1    0.0000
      5 C1         4.0139    4.9308   12.5846 C.ar      1 RES1    0.0000
      6 C2         2.6092    4.9218   12.3426 C.ar      1 RES1    0.0000
      7 C3         2.0976    4.9356   11.0549 C.ar      1 RES1    0.0000
      8 C4         3.0317    4.9287   10.0600 C.ar      1 RES1    0.0000
      9 C5         4.3642    4.9301   10.2750 C.ar      1 RES1    0.0000
     10 C6         5.0057    4.9136    8.9810 C.2       1 RES1    0.0000
     11 C7         1.6292    4.9060   13.4881 C.3       1 RES1    0.0000
     12 C8         6.4431    4.8730    8.6404 C.3       1 RES1    0.0000
     13 C9         4.5700    4.8895   13.9970 C.3       1 RES1    0.0000
     14 C10        5.0964    3.6747   14.4591 C.3       1 RES1    0.0000
     15 C11        5.2635    6.1827   14.3771 C.3       1 RES1    0.0000
@<TRIPOS>BOND
     1    1    3 1
     2    2    4 1
     3    3   10 2
     4    4    5 ar
     5    5    6 ar
     6    6    7 ar
     7    7    8 ar
     8    8    1 1
     9    9    4 ar
    10   10    9 1
    11   11    6 1
    12   12   10 1
    13   13    5 1
    14   14   13 1
    15   15   13 1
    16    8    9 ar
@<TRIPOS>SUBSTRUCTURE
     1 RES1 1

@<TRIPOS>CRYSIN
   7.4910    6.8750   10.3960  90.0000  92.6300  90.0000   4 1

