# MOL2 file generated by ConQuest
# Please check atom types

@<TRIPOS>MOLECULE
IBITAO
    23    25     1
SMALL
NO_CHARGES
****
Generated from CSD

@<TRIPOS>ATOM
      1 N1         6.3638    4.6358    6.6801 N.3       1 RES1    0.0000
      2 O1         7.1984    5.5695    7.4337 O.3       1 RES1    0.0000
      3 O2         6.1065    1.7936    6.3915 O.3       1 RES1    0.0000
      4 O3         7.5980    1.8063    4.7956 O.2       1 RES1    0.0000
      5 C1         9.8035    4.6621    6.2609 C.3       1 RES1    0.0000
      6 C2         8.6700    3.8865    6.9014 C.3       1 RES1    0.0000
      7 C3         8.0452    4.5884    8.0918 C.3       1 RES1    0.0000
      8 C4         7.0292    3.6726    8.7557 C.3       1 RES1    0.0000
      9 C5         5.8431    3.8128    7.7886 C.3       1 RES1    0.0000
     10 C6         5.2239    2.5608    7.2426 C.3       1 RES1    0.0000
     11 C7         7.0304    2.4206    5.6555 C.2       1 RES1    0.0000
     12 C8         7.4064    3.8338    5.9772 C.3       1 RES1    0.0000
     13 H1        10.5485    4.6969    6.8653 H         1 RES1    0.0000
     14 H2         9.5100    5.5537    6.0620 H         1 RES1    0.0000
     15 H3        10.0712    4.2248    5.4488 H         1 RES1    0.0000
     16 H4         8.9609    2.9823    7.1442 H         1 RES1    0.0000
     17 H5         8.6974    4.9762    8.7118 H         1 RES1    0.0000
     18 H6         6.8014    3.9782    9.6477 H         1 RES1    0.0000
     19 H7         7.3477    2.7568    8.8005 H         1 RES1    0.0000
     20 H8         5.1415    4.3239    8.2429 H         1 RES1    0.0000
     21 H9         4.9419    2.0023    7.9845 H         1 RES1    0.0000
     22 H10        4.4318    2.7990    6.7367 H         1 RES1    0.0000
     23 H11        7.6253    4.2891    5.1368 H         1 RES1    0.0000
@<TRIPOS>BOND
     1    1    2 1
     2    2    7 1
     3    3   10 1
     4    4   11 2
     5    5    6 1
     6    6    7 1
     7    7    8 1
     8    8    9 1
     9    9    1 1
    10   10    9 1
    11   11    3 1
    12   12    1 1
    13   13    5 1
    14   14    5 1
    15   15    5 1
    16   16    6 1
    17   17    7 1
    18   18    8 1
    19   19    8 1
    20   20    9 1
    21   21   10 1
    22   22   10 1
    23   23   12 1
    24    6   12 1
    25   11   12 1
@<TRIPOS>SUBSTRUCTURE
     1 RES1 1

@<TRIPOS>CRYSIN
   7.6507   10.5383    9.8111  90.0000  96.4430  90.0000 231 1

