# MOL2 file generated by ConQuest
# Please check atom types

@<TRIPOS>MOLECULE
IBNACA
    64    64     2
SMALL
NO_CHARGES
****
Generated from CSD

@<TRIPOS>ATOM
      1 O12        4.8335    3.1870   -3.0812 O.3       1 RES1    0.0000
      2 N11        4.6559    3.4656   -1.7306 N.2       1 RES1    0.0000
      3 C10        3.4435    3.3365   -1.3802 C.2       1 RES1    0.0000
      4 C8         3.1421    3.6094    0.0428 C.2       1 RES1    0.0000
      5 O9         4.0188    3.9530    0.8340 O.2       1 RES1    0.0000
      6 N7         1.8682    3.4819    0.4276 N.am      1 RES1    0.0000
      7 C71        1.3869    3.7191    1.7953 C.3       1 RES1    0.0000
      8 C72        1.0388    2.4940    2.6100 C.3       1 RES1    0.0000
      9 C73        0.5315    2.9729    3.9536 C.3       1 RES1    0.0000
     10 C74        2.2786    1.6272    2.6720 C.3       1 RES1    0.0000
     11 C1         0.7915    3.1059   -0.4125 C.ar      1 RES1    0.0000
     12 C2         0.3298    1.7913   -0.3963 C.ar      1 RES1    0.0000
     13 C3        -0.7292    1.4101   -1.2202 C.ar      1 RES1    0.0000
     14 C4        -1.3261    2.3481   -2.0467 C.ar      1 RES1    0.0000
     15 C5        -0.8674    3.6517   -2.0700 C.ar      1 RES1    0.0000
     16 C6         0.1808    4.0337   -1.2468 C.ar      1 RES1    0.0000
     17 O12'       6.4553    3.6613    1.8534 O.3       2 RES2    0.0000
     18 N11'       6.4082    2.9833    3.0760 N.2       2 RES2    0.0000
     19 C10'       7.5691    2.6320    3.4647 C.2       2 RES2    0.0000
     20 C8'        7.6332    1.8995    4.7487 C.2       2 RES2    0.0000
     21 O9'        6.6081    1.6460    5.3948 O.2       2 RES2    0.0000
     22 N7'        8.8672    1.5382    5.1736 N.am      2 RES2    0.0000
     23 C71'       9.1401    0.8094    6.4104 C.3       2 RES2    0.0000
     24 C72'       9.7355    1.6151    7.5468 C.3       2 RES2    0.0000
     25 C73'       9.9689    0.6460    8.6984 C.3       2 RES2    0.0000
     26 C74'       8.7654    2.7453    7.8350 C.3       2 RES2    0.0000
     27 C1'       10.0759    1.8052    4.4712 C.ar      2 RES2    0.0000
     28 C2'       10.8899    2.8537    4.8602 C.ar      2 RES2    0.0000
     29 C3'       12.0598    3.1048    4.1844 C.ar      2 RES2    0.0000
     30 C4'       12.4285    2.3123    3.1202 C.ar      2 RES2    0.0000
     31 C5'       11.6257    1.2494    2.7287 C.ar      2 RES2    0.0000
     32 C6'       10.4398    0.9994    3.4025 C.ar      2 RES2    0.0000
     33 H13        5.8059    3.2992   -3.2623 H         1 RES1    0.0000
     34 H14        2.5862    3.0756   -1.8895 H         1 RES1    0.0000
     35 H21        0.8171    0.9816    0.1535 H         1 RES1    0.0000
     36 H31       -1.0901    0.4226   -1.3149 H         1 RES1    0.0000
     37 H41       -2.0706    2.1641   -2.6062 H         1 RES1    0.0000
     38 H15       -1.3043    4.3661   -2.5763 H         1 RES1    0.0000
     39 H16        0.4868    4.9820   -1.3334 H         1 RES1    0.0000
     40 H711       1.1675    4.6465    2.0553 H         1 RES1    0.0000
     41 H712       0.4687    3.7521    1.9334 H         1 RES1    0.0000
     42 H721       0.3531    2.1186    2.1246 H         1 RES1    0.0000
     43 H731      -0.3010    3.6232    3.6895 H         1 RES1    0.0000
     44 H732       0.2332    2.1319    4.4036 H         1 RES1    0.0000
     45 H733       1.2401    2.6246    4.6167 H         1 RES1    0.0000
     46 H741       3.0631    2.1811    3.1562 H         1 RES1    0.0000
     47 H742       2.0335    0.8546    3.1571 H         1 RES1    0.0000
     48 H743       1.9459    0.6784    2.2281 H         1 RES1    0.0000
     49 H13'       5.5141    3.9302    1.7018 H         2 RES2    0.0000
     50 H14'       8.5621    2.7478    3.0457 H         2 RES2    0.0000
     51 H21'      10.5536    3.5380    5.6606 H         2 RES2    0.0000
     52 H31'      12.6082    3.8999    4.4501 H         2 RES2    0.0000
     53 H41'      13.3272    2.5658    2.6071 H         2 RES2    0.0000
     54 H15'      11.8417    0.6026    1.9369 H         2 RES2    0.0000
     55 H16'       9.8779    0.1592    3.2211 H         2 RES2    0.0000
     56 H711'      8.3234    0.5666    6.9764 H         2 RES2    0.0000
     57 H712'      9.6122   -0.1099    6.3281 H         2 RES2    0.0000
     58 H721'     10.6029    1.9519    7.2404 H         2 RES2    0.0000
     59 H731'     10.6724   -0.1459    8.4510 H         2 RES2    0.0000
     60 H732'     10.4681    1.1957    9.4799 H         2 RES2    0.0000
     61 H733'      9.2314    0.9323    9.4019 H         2 RES2    0.0000
     62 H741'      7.8397    2.2702    8.0598 H         2 RES2    0.0000
     63 H742'      9.1917    3.2708    8.5931 H         2 RES2    0.0000
     64 H743'      9.2978    3.6024    7.6659 H         2 RES2    0.0000
@<TRIPOS>BOND
     1    1    2 1
     2    2    3 2
     3    3    4 1
     4    4    5 2
     5    6    4 1
     6    7    6 1
     7    8    7 1
     8    9    8 1
     9   10    8 1
    10   11    6 1
    11   12   11 ar
    12   13   12 ar
    13   14   13 ar
    14   15   14 ar
    15   16   11 ar
    16   17   18 1
    17   18   19 2
    18   19   20 1
    19   20   21 2
    20   22   20 1
    21   23   22 1
    22   24   23 1
    23   25   24 1
    24   26   24 1
    25   27   22 1
    26   28   27 ar
    27   29   28 ar
    28   30   29 ar
    29   31   30 ar
    30   32   27 ar
    31   33    1 1
    32   34    3 1
    33   35   12 1
    34   36   13 1
    35   37   14 1
    36   38   15 1
    37   39   16 1
    38   40    7 1
    39   41    7 1
    40   42    8 1
    41   43    9 1
    42   44    9 1
    43   45    9 1
    44   46   10 1
    45   47   10 1
    46   48   10 1
    47   49   17 1
    48   50   19 1
    49   51   28 1
    50   52   29 1
    51   53   30 1
    52   54   31 1
    53   55   32 1
    54   56   23 1
    55   57   23 1
    56   58   24 1
    57   59   25 1
    58   60   25 1
    59   61   25 1
    60   62   26 1
    61   63   26 1
    62   64   26 1
    63   15   16 ar
    64   31   32 ar
@<TRIPOS>SUBSTRUCTURE
     1 RES1 1
     2 RES2 17

@<TRIPOS>CRYSIN
  15.1400   18.9500    8.7800  90.0000  92.4400  90.0000  14 2

