# MOL2 file generated by ConQuest
# Please check atom types

@<TRIPOS>MOLECULE
IBOFUA01
    86    88     2
SMALL
NO_CHARGES
****
Generated from CSD

@<TRIPOS>ATOM
      1 O1         3.4556    8.8496    1.1075 O.2       1 RES1    0.0000
      2 O2         2.8767    8.8576   -1.4573 O.3       1 RES1    0.0000
      3 H1         3.0539    7.9169   -1.1768 H         1 RES1    0.0000
      4 O3        -0.8004   10.6908    2.1101 O.3       1 RES1    0.0000
      5 H2        -1.4982   10.7143    1.7454 H         1 RES1    0.0000
      6 N1         1.9489    9.3024   -0.5186 N.am      1 RES1    0.0000
      7 C1         2.3243    9.3465    0.8051 C.2       1 RES1    0.0000
      8 C2         0.7566    9.7139   -0.9955 C.2       1 RES1    0.0000
      9 H3         0.6457    9.5817   -2.0008 H         1 RES1    0.0000
     10 C3        -0.1733   10.1833   -0.1431 C.2       1 RES1    0.0000
     11 H4        -1.0240   10.4537   -0.4687 H         1 RES1    0.0000
     12 C4         0.1332   10.2597    1.2374 C.2       1 RES1    0.0000
     13 C5         1.3925    9.9011    1.7178 C.2       1 RES1    0.0000
     14 C6         1.8607   10.0598    3.1587 C.3       1 RES1    0.0000
     15 H5         2.6435    9.4847    3.2392 H         1 RES1    0.0000
     16 C7         0.8826    9.5229    4.2273 C.3       1 RES1    0.0000
     17 H6        -0.0202   10.0608    4.2285 H         1 RES1    0.0000
     18 C8         1.5585    9.6042    5.6002 C.3       1 RES1    0.0000
     19 H7         2.3607    8.9203    5.5854 H         1 RES1    0.0000
     20 H8         0.9665    9.2534    6.3342 H         1 RES1    0.0000
     21 C9         2.0429   10.9867    5.9431 C.3       1 RES1    0.0000
     22 H9         1.1956   11.6109    5.9530 H         1 RES1    0.0000
     23 C10        2.9962   11.5070    4.8638 C.3       1 RES1    0.0000
     24 H10        3.3340   12.4868    5.0094 H         1 RES1    0.0000
     25 H11        3.7914   10.9279    4.9082 H         1 RES1    0.0000
     26 C11        2.4052   11.5001    3.4364 C.3       1 RES1    0.0000
     27 C12        3.5347   11.7686    2.4683 C.2       1 RES1    0.0000
     28 H12        4.2793   11.1729    2.5275 H         1 RES1    0.0000
     29 C13        3.6469   12.7230    1.5900 C.2       1 RES1    0.0000
     30 H13        4.4774   12.7700    1.0238 H         1 RES1    0.0000
     31 H14        2.9023   13.4373    1.4531 H         1 RES1    0.0000
     32 C14        0.4573    8.0933    3.9066 C.3       1 RES1    0.0000
     33 H15       -0.0676    8.0796    3.0431 H         1 RES1    0.0000
     34 H16        1.3255    7.4829    3.9226 H         1 RES1    0.0000
     35 H17       -0.1420    7.6965    4.6714 H         1 RES1    0.0000
     36 C15        2.7307   11.0279    7.3222 C.3       1 RES1    0.0000
     37 H18        3.1882   11.9068    7.4406 H         1 RES1    0.0000
     38 H19        3.5958   10.3449    7.3235 H         1 RES1    0.0000
     39 H20        2.1721   10.8290    7.9834 H         1 RES1    0.0000
     40 C16        1.3171   12.5809    3.3133 C.3       1 RES1    0.0000
     41 H21        0.5496   12.3369    3.9276 H         1 RES1    0.0000
     42 H22        1.7116   13.5000    3.5871 H         1 RES1    0.0000
     43 H23        1.0328   12.6122    2.3893 H         1 RES1    0.0000
     44 O4        10.0168   11.1589    0.9031 O.2       2 RES2    0.0000
     45 O5         9.2288   11.2434   -1.6041 O.3       2 RES2    0.0000
     46 H24        9.4468   12.0459   -1.3384 H         2 RES2    0.0000
     47 O6         5.9692    8.9546    2.0868 O.3       2 RES2    0.0000
     48 H25        5.1662    8.8811    1.7800 H         2 RES2    0.0000
     49 N2         8.3738   10.8035   -0.5997 N.am      2 RES2    0.0000
     50 C17        8.8669   10.6644    0.6772 C.2       2 RES2    0.0000
     51 C18        7.1315   10.4380   -0.9828 C.2       2 RES2    0.0000
     52 H26        6.8995   10.5821   -1.9095 H         2 RES2    0.0000
     53 C19        6.3098    9.8472   -0.1024 C.2       2 RES2    0.0000
     54 H27        5.4646    9.6346   -0.3331 H         2 RES2    0.0000
     55 C20        6.7682    9.5983    1.2116 C.2       2 RES2    0.0000
     56 C21        8.0453    9.9834    1.6239 C.2       2 RES2    0.0000
     57 C22        8.6452    9.7316    2.9986 C.3       2 RES2    0.0000
     58 H28        9.6270    9.9393    2.8643 H         2 RES2    0.0000
     59 C23        8.5687    8.2609    3.4724 C.3       2 RES2    0.0000
     60 H29        7.6739    8.0678    3.6352 H         2 RES2    0.0000
     61 C24        9.3834    8.1012    4.7614 C.3       2 RES2    0.0000
     62 H30       10.3563    8.2070    4.5258 H         2 RES2    0.0000
     63 H31        9.2726    7.2036    5.0834 H         2 RES2    0.0000
     64 C25        9.0183    9.0810    5.8630 C.3       2 RES2    0.0000
     65 H32        8.0874    8.8801    6.2084 H         2 RES2    0.0000
     66 C26        9.0899   10.5037    5.3285 C.3       2 RES2    0.0000
     67 H33        8.8301   11.1327    5.9752 H         2 RES2    0.0000
     68 H34       10.0243   10.6879    5.0994 H         2 RES2    0.0000
     69 C27        8.2063   10.7574    4.0911 C.3       2 RES2    0.0000
     70 C28        8.5125   12.1468    3.5919 C.2       2 RES2    0.0000
     71 H35        9.4730   12.3144    3.4835 H         2 RES2    0.0000
     72 C29        7.6770   13.1227    3.3367 C.2       2 RES2    0.0000
     73 H36        6.6613   13.0463    3.4712 H         2 RES2    0.0000
     74 H37        8.0309   13.9908    3.0061 H         2 RES2    0.0000
     75 C30        9.0990    7.3075    2.4029 C.3       2 RES2    0.0000
     76 H38        9.1453    6.4453    2.7249 H         2 RES2    0.0000
     77 H39       10.1143    7.6210    2.1562 H         2 RES2    0.0000
     78 H40        8.5762    7.3065    1.5148 H         2 RES2    0.0000
     79 C31        9.9153    8.9242    7.0879 C.3       2 RES2    0.0000
     80 H41        9.6885    9.6385    7.7478 H         2 RES2    0.0000
     81 H42        9.8451    8.0492    7.4777 H         2 RES2    0.0000
     82 H43       10.8206    9.0957    6.8412 H         2 RES2    0.0000
     83 C32        6.7209   10.6379    4.4814 C.3       2 RES2    0.0000
     84 H44        6.5031    9.6904    4.7503 H         2 RES2    0.0000
     85 H45        6.1314   10.8525    3.7092 H         2 RES2    0.0000
     86 H46        6.5303   11.2718    5.2585 H         2 RES2    0.0000
@<TRIPOS>BOND
     1    1    7 2
     2    2    3 1
     3    4    5 1
     4    6    2 1
     5    7    6 1
     6    8    6 1
     7    9    8 1
     8   10    8 2
     9   11   10 1
    10   12    4 1
    11   13    7 1
    12   14   13 1
    13   15   14 1
    14   16   14 1
    15   17   16 1
    16   18   16 1
    17   19   18 1
    18   20   18 1
    19   21   18 1
    20   22   21 1
    21   23   21 1
    22   24   23 1
    23   25   23 1
    24   26   14 1
    25   27   26 1
    26   28   27 1
    27   29   27 2
    28   30   29 1
    29   31   29 1
    30   32   16 1
    31   33   32 1
    32   34   32 1
    33   35   32 1
    34   36   21 1
    35   37   36 1
    36   38   36 1
    37   39   36 1
    38   40   26 1
    39   41   40 1
    40   42   40 1
    41   43   40 1
    42   44   50 2
    43   45   46 1
    44   47   48 1
    45   49   45 1
    46   50   49 1
    47   51   49 1
    48   52   51 1
    49   53   51 2
    50   54   53 1
    51   55   47 1
    52   56   50 1
    53   57   56 1
    54   58   57 1
    55   59   57 1
    56   60   59 1
    57   61   59 1
    58   62   61 1
    59   63   61 1
    60   64   61 1
    61   65   64 1
    62   66   64 1
    63   67   66 1
    64   68   66 1
    65   69   57 1
    66   70   69 1
    67   71   70 1
    68   72   70 2
    69   73   72 1
    70   74   72 1
    71   75   59 1
    72   76   75 1
    73   77   75 1
    74   78   75 1
    75   79   64 1
    76   80   79 1
    77   81   79 1
    78   82   79 1
    79   83   69 1
    80   84   83 1
    81   85   83 1
    82   86   83 1
    83   10   12 1
    84   12   13 2
    85   23   26 1
    86   53   55 1
    87   55   56 2
    88   66   69 1
@<TRIPOS>SUBSTRUCTURE
     1 RES1 1
     2 RES2 44

@<TRIPOS>CRYSIN
  13.0949    9.7982   13.3094  90.0000 112.0570  90.0000   4 1

