# MOL2 file generated by ConQuest
# Please check atom types

@<TRIPOS>MOLECULE
IBOFUA
    86    88     2
SMALL
NO_CHARGES
****
Generated from CSD

@<TRIPOS>ATOM
      1 O1        -0.9228   -2.7987   -7.0977 O.2       1 RES1    0.0000
      2 O2         3.1116   -4.9797   -8.2452 O.3       1 RES1    0.0000
      3 H1         3.8256   -5.1506   -7.8796 H         1 RES1    0.0000
      4 O3        -0.1288   -2.6868   -4.5951 O.3       1 RES1    0.0000
      5 H2        -0.8538   -2.4874   -4.9212 H         1 RES1    0.0000
      6 N1         0.7114   -3.1345   -5.5944 N.am      1 RES1    0.0000
      7 C1         0.2182   -3.2760   -6.8741 C.2       1 RES1    0.0000
      8 C2         2.3105   -4.3237   -7.3793 C.2       1 RES1    0.0000
      9 C3         0.4598   -4.2118   -9.1766 C.3       1 RES1    0.0000
     10 H3        -0.4900   -4.0782   -9.1334 H         1 RES1    0.0000
     11 C4         1.0568   -3.9437   -7.8092 C.2       1 RES1    0.0000
     12 C5         0.8958   -3.1807  -10.2488 C.3       1 RES1    0.0000
     13 H4         3.6458   -4.3748   -5.7945 H         1 RES1    0.0000
     14 C6         2.7584   -4.0949   -6.0786 C.2       1 RES1    0.0000
     15 H5         2.2244   -3.3211   -4.3122 H         1 RES1    0.0000
     16 C7         1.9428   -3.5116   -5.2090 C.2       1 RES1    0.0000
     17 H6        -0.8900   -3.2288  -11.2901 H         1 RES1    0.0000
     18 H7         0.3151   -2.7958  -12.1943 H         1 RES1    0.0000
     19 C8         0.0343   -3.4380  -11.5038 C.3       1 RES1    0.0000
     20 H8         1.0616   -5.0553  -12.2870 H         1 RES1    0.0000
     21 C9         0.1184   -4.8354  -12.0337 C.3       1 RES1    0.0000
     22 H9         2.5471   -4.1951  -10.9344 H         1 RES1    0.0000
     23 H10        2.5741   -2.6779  -11.3284 H         1 RES1    0.0000
     24 H11        2.9220   -3.1129   -9.8634 H         1 RES1    0.0000
     25 C10        2.3703   -3.2887  -10.6181 C.3       1 RES1    0.0000
     26 H12       -0.3688   -1.5408   -9.5818 H         1 RES1    0.0000
     27 C11        0.5827   -1.7961   -9.7535 C.2       1 RES1    0.0000
     28 H13        1.4668   -5.8743   -9.8054 H         1 RES1    0.0000
     29 C12        0.5187   -5.6671   -9.6485 C.3       1 RES1    0.0000
     30 H14        0.4664   -6.5519   -7.7721 H         1 RES1    0.0000
     31 H15       -0.9639   -6.4017   -8.3959 H         1 RES1    0.0000
     32 H16       -0.0023   -7.5319   -8.9012 H         1 RES1    0.0000
     33 C13       -0.0022   -6.6098   -8.5923 C.3       1 RES1    0.0000
     34 H17       -1.1967   -5.6013  -10.7528 H         1 RES1    0.0000
     35 H18       -0.1969   -6.6835  -11.2876 H         1 RES1    0.0000
     36 C14       -0.2572   -5.8036  -10.9368 C.3       1 RES1    0.0000
     37 H19       -0.4622   -4.3974  -13.9891 H         1 RES1    0.0000
     38 H20       -0.6932   -5.9028  -13.6173 H         1 RES1    0.0000
     39 H21       -1.6481   -4.7990  -13.0454 H         1 RES1    0.0000
     40 C15       -0.7757   -5.0072  -13.2504 C.3       1 RES1    0.0000
     41 H22        1.1456    0.0245   -9.1531 H         1 RES1    0.0000
     42 H23        2.4021   -0.9741   -9.5904 H         1 RES1    0.0000
     43 C16        1.3897   -0.8160   -9.5027 C.2       1 RES1    0.0000
     44 O4        -0.5651  -10.0115   -5.0546 O.2       2 RES2    0.0000
     45 H24       -5.4893   -8.0170   -4.4876 H         2 RES2    0.0000
     46 O5        -4.8036   -8.2056   -4.0751 O.3       2 RES2    0.0000
     47 H25       -0.4572  -10.2364   -7.2447 H         2 RES2    0.0000
     48 O6        -1.1544  -10.0154   -7.6227 O.3       2 RES2    0.0000
     49 N2        -2.0619   -9.5804   -6.6790 N.am      2 RES2    0.0000
     50 C17       -1.6940   -9.5225   -5.3647 C.2       2 RES2    0.0000
     51 H26       -1.3955   -9.3899   -2.9003 H         2 RES2    0.0000
     52 C18       -2.1539   -8.8164   -3.0399 C.3       2 RES2    0.0000
     53 C19       -3.8639   -8.6279   -4.9348 C.2       2 RES2    0.0000
     54 H27       -3.4298   -9.2406   -8.1143 H         2 RES2    0.0000
     55 C20       -2.6222   -8.9882   -4.4568 C.2       2 RES2    0.0000
     56 H28        0.2488   -7.7067   -3.7218 H         2 RES2    0.0000
     57 C21       -3.2493   -9.1945   -7.1397 C.2       2 RES2    0.0000
     58 C22       -0.5434   -7.1067   -3.6835 C.2       2 RES2    0.0000
     59 H29       -5.0808   -8.4442   -6.6394 H         2 RES2    0.0000
     60 C23       -1.6404   -7.3817   -2.7336 C.3       2 RES2    0.0000
     61 H30       -0.2304   -7.9542   -1.4008 H         2 RES2    0.0000
     62 H31       -0.7601   -6.5028   -1.1389 H         2 RES2    0.0000
     63 C24       -4.1878   -8.7172   -6.3022 C.2       2 RES2    0.0000
     64 H32       -3.9136   -8.8321   -1.9467 H         2 RES2    0.0000
     65 C25       -1.0401   -7.3817   -1.3168 C.3       2 RES2    0.0000
     66 H33       -3.1298   -6.3496   -3.7070 H         2 RES2    0.0000
     67 H34       -3.4604   -6.5008   -2.1814 H         2 RES2    0.0000
     68 H35       -2.4014   -5.4462   -2.6533 H         2 RES2    0.0000
     69 C26       -3.1102   -9.3860   -1.9677 C.3       2 RES2    0.0000
     70 H36       -3.0728   -9.6550    0.0531 H         2 RES2    0.0000
     71 H37       -1.6817   -9.9270   -0.6164 H         2 RES2    0.0000
     72 C27       -2.7247   -6.3349   -2.8435 C.3       2 RES2    0.0000
     73 H38       -2.7690   -7.4004   -0.2125 H         2 RES2    0.0000
     74 C28       -2.4532   -9.2956   -0.5966 C.3       2 RES2    0.0000
     75 H39       -3.9413  -10.7853   -3.1980 H         2 RES2    0.0000
     76 H40       -2.7411  -11.3372   -2.3544 H         2 RES2    0.0000
     77 H41       -4.1381  -11.1202   -1.6799 H         2 RES2    0.0000
     78 C29       -1.9805   -7.9513   -0.2483 C.3       2 RES2    0.0000
     79 H42        0.3936   -6.0874   -5.1386 H         2 RES2    0.0000
     80 H43       -1.0691   -5.4815   -4.6322 H         2 RES2    0.0000
     81 C30       -3.5421  -10.7951   -2.3136 C.3       2 RES2    0.0000
     82 H44       -1.0294   -6.9634    1.3427 H         2 RES2    0.0000
     83 H45       -1.8870   -8.1771    1.8430 H         2 RES2    0.0000
     84 H46       -0.5178   -8.4285    1.1216 H         2 RES2    0.0000
     85 C31       -0.3887   -6.1611   -4.5383 C.2       2 RES2    0.0000
     86 C32       -1.3031   -7.8933    1.1018 C.3       2 RES2    0.0000
@<TRIPOS>BOND
     1    1    7 2
     2    2    3 1
     3    4    5 1
     4    6    4 1
     5    7    6 1
     6    8    2 1
     7    9   10 1
     8   11    7 1
     9   12    9 1
    10   13   14 1
    11   14    8 1
    12   15   16 1
    13   16    6 1
    14   17   19 1
    15   18   19 1
    16   19   12 1
    17   20   21 1
    18   21   19 1
    19   22   25 1
    20   23   25 1
    21   24   25 1
    22   25   12 1
    23   26   27 1
    24   27   12 1
    25   28   29 1
    26   29    9 1
    27   30   33 1
    28   31   33 1
    29   32   33 1
    30   33   29 1
    31   34   36 1
    32   35   36 1
    33   36   21 1
    34   37   40 1
    35   38   40 1
    36   39   40 1
    37   40   21 1
    38   41   43 1
    39   42   43 1
    40   43   27 2
    41   44   50 2
    42   45   46 1
    43   46   53 1
    44   47   48 1
    45   48   49 1
    46   49   50 1
    47   50   55 1
    48   51   52 1
    49   52   55 1
    50   53   55 2
    51   54   57 1
    52   56   58 1
    53   57   49 1
    54   58   60 1
    55   59   63 1
    56   60   52 1
    57   61   65 1
    58   62   65 1
    59   63   53 1
    60   64   69 1
    61   65   60 1
    62   66   72 1
    63   67   72 1
    64   68   72 1
    65   69   52 1
    66   70   74 1
    67   71   74 1
    68   72   60 1
    69   73   78 1
    70   74   69 1
    71   75   81 1
    72   76   81 1
    73   77   81 1
    74   78   65 1
    75   79   85 1
    76   80   85 1
    77   81   69 1
    78   82   86 1
    79   83   86 1
    80   84   86 1
    81   85   58 2
    82   86   78 1
    83    8   11 2
    84    9   11 1
    85   14   16 2
    86   29   36 1
    87   57   63 2
    88   74   78 1
@<TRIPOS>SUBSTRUCTURE
     1 RES1 1
     2 RES2 44

@<TRIPOS>CRYSIN
  13.0720    9.8200   13.3520  90.0000 112.3110  90.0000   4 1

