# MOL2 file generated by ConQuest
# Please check atom types

@<TRIPOS>MOLECULE
IBOGAK
    58    47     2
SMALL
NO_CHARGES
****
Generated from CSD

@<TRIPOS>ATOM
      1 C1         7.8584    3.6076    8.1290 C.2       1 RES1    0.0000
      2 C2         8.8540    4.4280    7.3609 C.3       1 RES1    0.0000
      3 H1         8.4395    4.7388    6.5302 H         1 RES1    0.0000
      4 C3        10.1445    3.7284    7.0361 C.3       1 RES1    0.0000
      5 H2        10.6723    4.2809    6.4389 H         1 RES1    0.0000
      6 H3         9.9558    2.8904    6.5861 H         1 RES1    0.0000
      7 C4        10.9283    3.4586    8.2964 C.ar      1 RES1    0.0000
      8 C5        11.9778    2.5447    8.2423 C.ar      1 RES1    0.0000
      9 C6        12.7072    2.2343    9.3995 C.ar      1 RES1    0.0000
     10 C7        12.3802    2.8803   10.5736 C.ar      1 RES1    0.0000
     11 H4        12.8634    2.6998   11.3484 H         1 RES1    0.0000
     12 C8        11.3534    3.7871   10.6108 C.ar      1 RES1    0.0000
     13 C9        10.5932    4.1166    9.4824 C.ar      1 RES1    0.0000
     14 C10        9.4685    5.1280    9.4891 C.3       1 RES1    0.0000
     15 H5         9.7559    5.9068   10.0102 H         1 RES1    0.0000
     16 C11       13.0446    2.5786    6.1597 C.3       1 RES1    0.0000
     17 H6        12.7843    3.5235    6.1276 H         1 RES1    0.0000
     18 C12       12.8780    1.9626    4.7826 C.3       1 RES1    0.0000
     19 H7        12.9093    0.9942    4.8199 H         1 RES1    0.0000
     20 H8        12.0491    2.2429    4.3648 H         1 RES1    0.0000
     21 C13       14.0236    2.5022    4.1025 C.3       1 RES1    0.0000
     22 H9        13.8278    3.3980    3.7794 H         1 RES1    0.0000
     23 H10       14.2527    1.9478    3.3412 H         1 RES1    0.0000
     24 C14       15.2149    2.5451    5.1108 C.3       1 RES1    0.0000
     25 H11       15.8106    1.7940    4.9789 H         1 RES1    0.0000
     26 H12       15.7190    3.3703    5.0212 H         1 RES1    0.0000
     27 C15       14.5401    2.4735    6.4524 C.3       1 RES1    0.0000
     28 H13       14.8317    3.2007    7.0242 H         1 RES1    0.0000
     29 H14       14.7442    1.6312    6.8923 H         1 RES1    0.0000
     30 C16       14.5713    1.1179   10.3570 C.3       1 RES1    0.0000
     31 H15       15.0670    1.9268   10.5042 H         1 RES1    0.0000
     32 H16       15.1795    0.4016   10.1591 H         1 RES1    0.0000
     33 H17       14.0694    0.9020   11.1471 H         1 RES1    0.0000
     34 N1         7.0745    2.6153    7.3524 N.pl3     1 RES1    0.0000
     35 N2        11.1160    4.4184   11.9084 N.pl3     1 RES1    0.0000
     36 N3         7.5448    3.6740    9.3470 N.2       1 RES1    0.0000
     37 O1         7.3440    2.5413    6.1750 O.2       1 RES1    0.0000
     38 O2         6.2366    1.9382    7.9293 O.2       1 RES1    0.0000
     39 O3        10.2662    5.2617   12.0454 O.2       1 RES1    0.0000
     40 O4        11.7491    4.0636   12.8168 O.2       1 RES1    0.0000
     41 O5         8.2804    4.5645   10.1261 O.3       1 RES1    0.0000
     42 O6         9.1352    5.5601    8.1987 O.3       1 RES1    0.0000
     43 O7        12.1980    1.8886    7.0709 O.3       1 RES1    0.0000
     44 O8        13.6830    1.2998    9.2658 O.3       1 RES1    0.0000
     45 C17       13.4695    1.7143    6.4473 Du        2 SUP2    0.0000
     46 H18       13.9611    0.9770    6.8635 Du        2 SUP2    0.0000
     47 C18       13.2467    1.4469    4.9823 Du        2 SUP2    0.0000
     48 H19       13.1800    0.4914    4.8266 Du        2 SUP2    0.0000
     49 H20       12.4198    1.8613    4.6913 Du        2 SUP2    0.0000
     50 C19       14.3756    2.0008    4.2311 Du        2 SUP2    0.0000
     51 H21       14.0777    2.3871    3.3937 Du        2 SUP2    0.0000
     52 H22       15.0337    1.3127    4.0416 Du        2 SUP2    0.0000
     53 C20       14.9754    3.0990    5.1650 Du        2 SUP2    0.0000
     54 H23       15.9293    2.9610    5.2716 Du        2 SUP2    0.0000
     55 H24       14.8317    3.9767    4.7826 Du        2 SUP2    0.0000
     56 C21       14.2881    2.9940    6.4930 Du        2 SUP2    0.0000
     57 H25       13.7132    3.7613    6.6385 Du        2 SUP2    0.0000
     58 H26       14.9400    2.9544    7.2103 Du        2 SUP2    0.0000
@<TRIPOS>BOND
     1    1    2 1
     2    2    3 1
     3    4    2 1
     4    5    4 1
     5    6    4 1
     6    7    4 1
     7    8    7 ar
     8    9    8 ar
     9   10    9 ar
    10   11   10 1
    11   12   10 ar
    12   13    7 ar
    13   14   13 1
    14   15   14 1
    15   16   17 1
    16   18   16 1
    17   19   18 1
    18   20   18 1
    19   21   18 1
    20   22   21 1
    21   23   21 1
    22   24   21 1
    23   25   24 1
    24   26   24 1
    25   27   16 1
    26   28   27 1
    27   29   27 1
    28   30   31 1
    29   32   30 1
    30   33   30 1
    31   34    1 1
    32   35   12 1
    33   36    1 2
    34   37   34 2
    35   38   34 2
    36   39   35 2
    37   40   35 2
    38   41   14 1
    39   42    2 1
    40   43    8 1
    41   44    9 1
    42   12   13 ar
    43   14   42 1
    44   16   43 1
    45   24   27 1
    46   30   44 1
    47   36   41 1
@<TRIPOS>SUBSTRUCTURE
     1 RES1 1
     2 SUP2 45

@<TRIPOS>CRYSIN
  20.8281    4.7751   16.9177  90.0000  90.0000  90.0000  33 1

