# MOL2 file generated by ConQuest
# Please check atom types

@<TRIPOS>MOLECULE
IBOGIS
    34    34     1
SMALL
NO_CHARGES
****
Generated from CSD

@<TRIPOS>ATOM
      1 C1         8.7808    0.5367    0.4387 C.3       1 RES1    0.0000
      2 H1         9.3798    1.2286    0.0878 H         1 RES1    0.0000
      3 H2         7.8728    0.8987    0.5154 H         1 RES1    0.0000
      4 H3         8.7750   -0.2310   -0.1699 H         1 RES1    0.0000
      5 C2         9.2605    0.0999    1.7904 C.2       1 RES1    0.0000
      6 C3         8.6667    0.8178    2.9990 C.3       1 RES1    0.0000
      7 H4         8.4434    1.7568    2.7394 H         1 RES1    0.0000
      8 C4         7.3609    0.0734    3.3480 C.3       1 RES1    0.0000
      9 H5         6.8179   -0.0123    2.5256 H         1 RES1    0.0000
     10 H6         7.5912   -0.8410    3.6499 H         1 RES1    0.0000
     11 C5         6.5185    0.7326    4.4122 C.ar      1 RES1    0.0000
     12 C6         6.6937    0.2835    5.7271 C.ar      1 RES1    0.0000
     13 H7         7.3636   -0.3673    5.9025 H         1 RES1    0.0000
     14 C7         5.9261    0.7534    6.7801 C.ar      1 RES1    0.0000
     15 C8         4.9204    1.7260    6.5394 C.ar      1 RES1    0.0000
     16 C9         3.2294    3.1340    7.4513 C.3       1 RES1    0.0000
     17 H8         3.6409    3.9296    7.0536 H         1 RES1    0.0000
     18 H9         2.8373    3.3668    8.3193 H         1 RES1    0.0000
     19 H10        2.5285    2.7975    6.8551 H         1 RES1    0.0000
     20 C10        7.0034   -0.6635    8.3680 C.3       1 RES1    0.0000
     21 H11        6.8440   -1.4572    7.8153 H         1 RES1    0.0000
     22 H12        6.9340   -0.9063    9.3158 H         1 RES1    0.0000
     23 H13        7.9005   -0.3124    8.1857 H         1 RES1    0.0000
     24 C11        5.5356    1.7076    4.2160 C.ar      1 RES1    0.0000
     25 C12        4.7344    2.1941    5.2598 C.ar      1 RES1    0.0000
     26 H14        4.0650    2.8448    5.0836 H         1 RES1    0.0000
     27 N1         5.2715    2.2793    2.9034 N.pl3     1 RES1    0.0000
     28 O1         4.2245    2.1231    7.6345 O.3       1 RES1    0.0000
     29 O2         6.0218    0.3422    8.0572 O.3       1 RES1    0.0000
     30 O3         9.5658    0.8485    4.0900 O.3       1 RES1    0.0000
     31 H15        9.6604    0.0724    4.3964 H         1 RES1    0.0000
     32 O4        10.0508   -0.8012    1.9454 O.2       1 RES1    0.0000
     33 O5         6.0373    2.0327    1.9678 O.2       1 RES1    0.0000
     34 O6         4.2920    3.0152    2.7705 O.2       1 RES1    0.0000
@<TRIPOS>BOND
     1    1    2 1
     2    3    1 1
     3    4    1 1
     4    5    1 1
     5    6    5 1
     6    7    6 1
     7    8    6 1
     8    9    8 1
     9   10    8 1
    10   11    8 1
    11   12   11 ar
    12   13   12 1
    13   14   12 ar
    14   15   14 ar
    15   16   17 1
    16   18   16 1
    17   19   16 1
    18   20   21 1
    19   22   20 1
    20   23   20 1
    21   24   11 ar
    22   25   15 ar
    23   26   25 1
    24   27   24 1
    25   28   15 1
    26   29   14 1
    27   30    6 1
    28   31   30 1
    29   32    5 2
    30   33   27 2
    31   34   27 2
    32   16   28 1
    33   20   29 1
    34   24   25 ar
@<TRIPOS>SUBSTRUCTURE
     1 RES1 1

@<TRIPOS>CRYSIN
  13.8557    4.7327   19.2970  90.0000  98.4060  90.0000 231 1

