# MOL2 file generated by ConQuest
# Please check atom types

@<TRIPOS>MOLECULE
IBOGOY
    60    64     2
SMALL
NO_CHARGES
****
Generated from CSD

@<TRIPOS>ATOM
      1 O1        11.3967    0.2863    3.4203 O.2       1 RES1    0.0000
      2 O2        10.1951    1.9237    4.1868 O.2       1 RES1    0.0000
      3 N1        10.3278    0.8761    3.5624 N.pl3     1 RES1    0.0000
      4 C1         8.8590   -0.0397   -1.2534 C.ar      1 RES1    0.0000
      5 H1         8.8051   -0.1408   -2.1961 H         1 RES1    0.0000
      6 C2         7.8448   -0.4851   -0.4734 C.ar      1 RES1    0.0000
      7 H2         7.0863   -0.8929   -0.8735 H         1 RES1    0.0000
      8 C3         7.9083   -0.3470    0.9426 C.ar      1 RES1    0.0000
      9 C4         9.0852    0.2138    1.5294 C.ar      1 RES1    0.0000
     10 C5         9.1185    0.2929    2.9438 C.ar      1 RES1    0.0000
     11 C6         8.0880   -0.0929    3.7704 C.ar      1 RES1    0.0000
     12 C7         8.1557   -0.0309    5.2540 C.ar      1 RES1    0.0000
     13 C8         7.1040    0.5513    5.9663 C.ar      1 RES1    0.0000
     14 H3         6.3662    0.9258    5.4992 H         1 RES1    0.0000
     15 C9         7.1340    0.5844    7.3514 C.ar      1 RES1    0.0000
     16 H4         6.4191    0.9872    7.8294 H         1 RES1    0.0000
     17 C10        8.2055    0.0310    8.0450 C.ar      1 RES1    0.0000
     18 H5         8.2219    0.0584    8.9944 H         1 RES1    0.0000
     19 C11       10.1141    0.6870    0.6823 C.ar      1 RES1    0.0000
     20 H6        10.8895    1.0861    1.0587 H         1 RES1    0.0000
     21 C12        9.9982    0.5735   -0.6789 C.ar      1 RES1    0.0000
     22 H7        10.6871    0.9093   -1.2411 H         1 RES1    0.0000
     23 C13        9.2245   -0.5946    5.9630 C.ar      1 RES1    0.0000
     24 H8         9.9404   -1.0037    5.4909 H         1 RES1    0.0000
     25 C14        9.2447   -0.5591    7.3528 C.ar      1 RES1    0.0000
     26 H9         9.9743   -0.9408    7.8266 H         1 RES1    0.0000
     27 C15        6.9233   -0.6067    3.1371 C.ar      1 RES1    0.0000
     28 H10        6.1795   -0.8584    3.6707 H         1 RES1    0.0000
     29 C16        6.8480   -0.7464    1.7848 C.ar      1 RES1    0.0000
     30 H11        6.0651   -1.1206    1.4000 H         1 RES1    0.0000
     31 O3         6.9723   12.8678   10.1874 O.2       2 RES2    0.0000
     32 O4         7.9756   11.1523    9.3185 O.2       2 RES2    0.0000
     33 N2         6.9760   11.8419    9.5119 N.pl3     2 RES2    0.0000
     34 C17        4.7401   11.1280   14.0189 C.ar      2 RES2    0.0000
     35 H12        4.7432   11.1189   14.9691 H         2 RES2    0.0000
     36 C18        5.6953   10.4170   13.3154 C.ar      2 RES2    0.0000
     37 H13        6.3518    9.9159   13.7847 H         2 RES2    0.0000
     38 C19        5.7013   10.4308   11.9269 C.ar      2 RES2    0.0000
     39 H14        6.3680    9.9489   11.4517 H         2 RES2    0.0000
     40 C20        4.7292   11.1522   11.2230 C.ar      2 RES2    0.0000
     41 C21        4.6499   11.1276    9.7362 C.ar      2 RES2    0.0000
     42 C22        5.7003   11.4109    8.9108 C.ar      2 RES2    0.0000
     43 C23        5.6285   11.3754    7.4881 C.ar      2 RES2    0.0000
     44 C24        4.3765   10.9896    6.9146 C.ar      2 RES2    0.0000
     45 C25        4.2439   10.9463    5.5023 C.ar      2 RES2    0.0000
     46 H15        3.4195   10.6785    5.1150 H         2 RES2    0.0000
     47 C26        5.2871   11.2849    4.6984 C.ar      2 RES2    0.0000
     48 H16        5.1902   11.2552    3.7537 H         2 RES2    0.0000
     49 C27        3.4245   10.7625    9.1203 C.ar      2 RES2    0.0000
     50 H17        2.6736   10.5616    9.6661 H         2 RES2    0.0000
     51 C28        3.2991   10.6930    7.7663 C.ar      2 RES2    0.0000
     52 H18        2.4648   10.4388    7.3899 H         2 RES2    0.0000
     53 C29        6.5179   11.6802    5.2735 C.ar      2 RES2    0.0000
     54 H19        7.2398   11.9159    4.7031 H         2 RES2    0.0000
     55 C30        6.6956   11.7321    6.6315 C.ar      2 RES2    0.0000
     56 H20        7.5294   12.0058    6.9946 H         2 RES2    0.0000
     57 C31        3.7666   11.8602   11.9414 C.ar      2 RES2    0.0000
     58 H21        3.0989   12.3503   11.4766 H         2 RES2    0.0000
     59 C32        3.7757   11.8554   13.3309 C.ar      2 RES2    0.0000
     60 H22        3.1224   12.3503   13.8109 H         2 RES2    0.0000
@<TRIPOS>BOND
     1    1    3 2
     2    2    3 2
     3    3   10 1
     4    4    5 1
     5    6    4 ar
     6    7    6 1
     7    8    6 ar
     8    9    8 ar
     9   10    9 ar
    10   11   10 ar
    11   12   11 1
    12   13   12 ar
    13   14   13 1
    14   15   13 ar
    15   16   15 1
    16   17   15 ar
    17   18   17 1
    18   19    9 ar
    19   20   19 1
    20   21    4 ar
    21   22   21 1
    22   23   12 ar
    23   24   23 1
    24   25   17 ar
    25   26   25 1
    26   27   11 ar
    27   28   27 1
    28   29    8 ar
    29   30   29 1
    30   31   33 2
    31   32   33 2
    32   33   42 1
    33   34   35 1
    34   36   34 ar
    35   37   36 1
    36   38   36 ar
    37   39   38 1
    38   40   38 ar
    39   41   40 1
    40   42   41 ar
    41   43   42 ar
    42   44   43 ar
    43   45   44 ar
    44   46   45 1
    45   47   45 ar
    46   48   47 1
    47   49   41 ar
    48   50   49 1
    49   51   44 ar
    50   52   51 1
    51   53   47 ar
    52   54   53 1
    53   55   43 ar
    54   56   55 1
    55   57   40 ar
    56   58   57 1
    57   59   34 ar
    58   60   59 1
    59   19   21 ar
    60   23   25 ar
    61   27   29 ar
    62   49   51 ar
    63   53   55 ar
    64   57   59 ar
@<TRIPOS>SUBSTRUCTURE
     1 RES1 1
     2 RES2 31

@<TRIPOS>CRYSIN
  11.6940   14.9810   13.8550  90.0000  94.0390  90.0000 231 1

