# MOL2 file generated by ConQuest
# Please check atom types

@<TRIPOS>MOLECULE
IBOLUI
    37    39     1
SMALL
NO_CHARGES
****
Generated from CSD

@<TRIPOS>ATOM
      1 O1         8.9562    5.6276    3.3115 O.2       1 RES1    0.0000
      2 N1         7.7722    6.0673    3.1295 N.pl3     1 RES1    0.0000
      3 N2         6.3952    7.4612    1.7305 N.2       1 RES1    0.0000
      4 N3         5.5124    5.5678    2.9097 N.2       1 RES1    0.0000
      5 C1         7.5577    7.4621    2.6093 C.3       1 RES1    0.0000
      6 C2         5.5088    6.5498    1.8964 C.2       1 RES1    0.0000
      7 C3         6.6454    5.3265    3.4786 C.2       1 RES1    0.0000
      8 C4         8.7739    7.9152    1.8382 C.3       1 RES1    0.0000
      9 H1         9.6236    7.8276    2.3774 H         1 RES1    0.0000
     10 H2         8.6050    8.8641    1.4653 H         1 RES1    0.0000
     11 H3         8.9088    7.2825    1.0770 H         1 RES1    0.0000
     12 C5         7.2673    8.3593    3.8247 C.3       1 RES1    0.0000
     13 H4         6.4783    7.9884    4.3189 H         1 RES1    0.0000
     14 H5         8.0242    8.3280    4.4142 H         1 RES1    0.0000
     15 H6         7.1574    9.3020    3.4910 H         1 RES1    0.0000
     16 C6         4.3320    6.4846    0.9986 C.ar      1 RES1    0.0000
     17 C7         3.3303    5.5570    1.1993 C.ar      1 RES1    0.0000
     18 H7         3.3687    4.9950    1.9232 H         1 RES1    0.0000
     19 C8         2.2437    5.4963    0.3425 C.ar      1 RES1    0.0000
     20 H8         1.6084    4.8788    0.4835 H         1 RES1    0.0000
     21 C9         2.1401    6.3621   -0.7114 C.ar      1 RES1    0.0000
     22 H9         1.3761    6.3353   -1.2198 H         1 RES1    0.0000
     23 C10        3.1310    7.3004   -0.9272 C.ar      1 RES1    0.0000
     24 H10        3.0917    7.9616   -1.6448 H         1 RES1    0.0000
     25 C11        4.2212    7.3549   -0.0876 C.ar      1 RES1    0.0000
     26 H11        4.8967    7.9884   -0.2235 H         1 RES1    0.0000
     27 C12        6.7589    4.2802    4.5105 C.ar      1 RES1    0.0000
     28 C13        5.9020    3.1945    4.4552 C.ar      1 RES1    0.0000
     29 H12        5.2899    3.1543    3.7841 H         1 RES1    0.0000
     30 C14        5.8868    2.2562    5.4812 C.ar      1 RES1    0.0000
     31 H13        5.2899    1.5548    5.3959 H         1 RES1    0.0000
     32 C15        6.7365    2.4180    6.5542 C.ar      1 RES1    0.0000
     33 H14        6.7553    1.8497    7.2275 H         1 RES1    0.0000
     34 C16        7.5881    3.4992    6.6143 C.ar      1 RES1    0.0000
     35 H15        8.1671    3.6368    7.4033 H         1 RES1    0.0000
     36 C17        7.6105    4.4160    5.5908 C.ar      1 RES1    0.0000
     37 H16        8.2118    5.1469    5.6120 H         1 RES1    0.0000
@<TRIPOS>BOND
     1    1    2 1
     2    2    5 1
     3    3    5 1
     4    4    6 1
     5    5    8 1
     6    6    3 2
     7    7    2 1
     8    8    9 1
     9   10    8 1
    10   11    8 1
    11   12    5 1
    12   13   12 1
    13   14   12 1
    14   15   12 1
    15   16    6 1
    16   17   16 ar
    17   18   17 1
    18   19   17 ar
    19   20   19 1
    20   21   19 ar
    21   22   21 1
    22   23   21 ar
    23   24   23 1
    24   25   16 ar
    25   26   25 1
    26   27    7 1
    27   28   27 ar
    28   29   28 1
    29   30   28 ar
    30   31   30 1
    31   32   30 ar
    32   33   32 1
    33   34   32 ar
    34   35   34 1
    35   36   27 ar
    36   37   36 1
    37    4    7 2
    38   23   25 ar
    39   34   36 ar
@<TRIPOS>SUBSTRUCTURE
     1 RES1 1

@<TRIPOS>CRYSIN
   8.9356    8.9356   36.6320  90.0000  90.0000  90.0000  96 1

