# MOL2 file generated by ConQuest
# Please check atom types

@<TRIPOS>MOLECULE
IBOLOC
    70    70     3
SMALL
NO_CHARGES
****
Generated from CSD

@<TRIPOS>ATOM
      1 O1         0.4489   -0.0898   10.2397 O.2       1 RES1    0.0000
      2 N1         3.3815    1.4774    9.1650 N.ar      1 RES1    0.0000
      3 N2         1.2743    0.4772    9.4296 N.pl3     1 RES1    0.0000
      4 N3         1.9046    1.2986    7.3278 N.ar      1 RES1    0.0000
      5 C1         2.4870    0.8935    9.9284 C.ar      1 RES1    0.0000
      6 C2         0.9893    0.7162    8.1025 C.ar      1 RES1    0.0000
      7 C3         3.0631    1.6715    7.8726 C.ar      1 RES1    0.0000
      8 C4         2.7399    0.6401   11.3695 C.3       1 RES1    0.0000
      9 H1         3.6660    0.3609   11.4525 H         1 RES1    0.0000
     10 H2         2.2401    1.3956   11.8759 H         1 RES1    0.0000
     11 H3         2.0939   -0.2005   11.4324 H         1 RES1    0.0000
     12 C5        -0.3238    0.3954    7.5183 C.ar      1 RES1    0.0000
     13 C6        -1.1945   -0.5631    8.0420 C.ar      1 RES1    0.0000
     14 H4        -0.8896   -1.0106    8.8253 H         1 RES1    0.0000
     15 C7        -2.4170   -0.7892    7.4514 C.ar      1 RES1    0.0000
     16 H5        -3.0084   -1.4598    7.8131 H         1 RES1    0.0000
     17 C8        -2.8100   -0.0610    6.3610 C.ar      1 RES1    0.0000
     18 H6        -3.6626   -0.2085    5.9985 H         1 RES1    0.0000
     19 C9        -1.9641    0.8791    5.8158 C.ar      1 RES1    0.0000
     20 H7        -2.2485    1.4598    5.0931 H         1 RES1    0.0000
     21 C10       -0.7270    1.0956    6.3862 C.ar      1 RES1    0.0000
     22 H8        -0.1278    1.7726    6.0307 H         1 RES1    0.0000
     23 C11        4.0664    2.3404    7.0161 C.ar      1 RES1    0.0000
     24 C12        3.8954    2.4006    5.6474 C.ar      1 RES1    0.0000
     25 H9         3.1321    1.9250    5.2867 H         1 RES1    0.0000
     26 C13        4.8152    3.0519    4.8518 C.ar      1 RES1    0.0000
     27 H10        4.6650    3.0158    3.9318 H         1 RES1    0.0000
     28 C14        5.9129    3.6486    5.3988 C.ar      1 RES1    0.0000
     29 H11        6.5264    4.1307    4.8734 H         1 RES1    0.0000
     30 C15        6.0955    3.6061    6.7469 C.ar      1 RES1    0.0000
     31 H12        6.8744    4.0023    7.1538 H         1 RES1    0.0000
     32 C16        5.1812    2.9556    7.5445 C.ar      1 RES1    0.0000
     33 H13        5.3318    2.9356    8.4382 H         1 RES1    0.0000
     34 O2        -3.3489    1.0812   21.2771 O.2       2 RES2    0.0000
     35 N4        -4.4230    1.0876   20.5506 N.pl3     2 RES2    0.0000
     36 N5        -6.6520    1.8191   20.3052 N.ar      2 RES2    0.0000
     37 N6        -5.6430    0.4652   18.6456 N.ar      2 RES2    0.0000
     38 C17       -5.5277    1.7862   20.9894 C.ar      2 RES2    0.0000
     39 C18       -6.6793    1.1381   19.1338 C.ar      2 RES2    0.0000
     40 C19       -4.5036    0.4363   19.3380 C.ar      2 RES2    0.0000
     41 C20       -5.3911    2.5041   22.2780 C.3       2 RES2    0.0000
     42 H14       -4.6670    3.0719   22.2457 H         2 RES2    0.0000
     43 H15       -5.1493    1.8929   22.9716 H         2 RES2    0.0000
     44 H16       -6.2002    3.0238   22.4151 H         2 RES2    0.0000
     45 C21       -7.9334    1.1606   18.3543 C.ar      2 RES2    0.0000
     46 C22       -9.0695    1.7910   18.8473 C.ar      2 RES2    0.0000
     47 H17       -9.0073    2.2298   19.6729 H         2 RES2    0.0000
     48 C23      -10.2420    1.7998   18.1109 C.ar      2 RES2    0.0000
     49 H18      -11.0351    2.2458   18.4753 H         2 RES2    0.0000
     50 C24      -10.2930    1.1959   16.8790 C.ar      2 RES2    0.0000
     51 H19      -11.1150    1.2031   16.3158 H         2 RES2    0.0000
     52 C25       -9.1700    0.5791   16.3719 C.ar      2 RES2    0.0000
     53 H20       -9.2012    0.1444   15.5214 H         2 RES2    0.0000
     54 C26       -8.0029    0.5526   17.1054 C.ar      2 RES2    0.0000
     55 H21       -7.2235    0.1043   16.7675 H         2 RES2    0.0000
     56 C27       -3.3474   -0.2615   18.7525 C.ar      2 RES2    0.0000
     57 C28       -3.3755   -0.4836   17.3746 C.ar      2 RES2    0.0000
     58 H22       -4.1203   -0.1925   16.9106 H         2 RES2    0.0000
     59 C29       -2.3417   -1.1373   16.7433 C.ar      2 RES2    0.0000
     60 H23       -2.3926   -1.2191   15.7553 H         2 RES2    0.0000
     61 C30       -1.2690   -1.5857   17.4689 C.ar      2 RES2    0.0000
     62 H24       -0.5831   -2.0212   17.0760 H         2 RES2    0.0000
     63 C31       -1.2354   -1.3972   18.8194 C.ar      2 RES2    0.0000
     64 H25       -0.4684   -1.7084   19.3443 H         2 RES2    0.0000
     65 C32       -2.2565   -0.7331   19.4620 C.ar      2 RES2    0.0000
     66 H26       -2.2514   -0.5294   20.4008 H         2 RES2    0.0000
     67 H27        3.5990    1.1309   11.7146 Du        3 SUP3    0.0000
     68 H28        2.8446   -0.4010   11.5130 Du        3 SUP3    0.0000
     69 H29        1.9330    0.7379   11.8961 Du        3 SUP3    0.0000
     70 O3         4.3094    1.6763    9.9887 Du        3 SUP3    0.0000
@<TRIPOS>BOND
     1    1    3 1
     2    2    5 ar
     3    3    5 ar
     4    4    6 ar
     5    5    8 1
     6    6    3 ar
     7    7    2 ar
     8    8    9 1
     9   10    8 1
    10   11    8 1
    11   12    6 1
    12   13   12 ar
    13   14   13 1
    14   15   13 ar
    15   16   15 1
    16   17   15 ar
    17   18   17 1
    18   19   17 ar
    19   20   19 1
    20   21   12 ar
    21   22   21 1
    22   23    7 1
    23   24   23 ar
    24   25   24 1
    25   26   24 ar
    26   27   26 1
    27   28   26 ar
    28   29   28 1
    29   30   28 ar
    30   31   30 1
    31   32   23 ar
    32   33   32 1
    33   34   35 1
    34   35   38 ar
    35   36   38 ar
    36   37   39 ar
    37   38   41 1
    38   39   36 ar
    39   40   35 ar
    40   41   42 1
    41   43   41 1
    42   44   41 1
    43   45   39 1
    44   46   45 ar
    45   47   46 1
    46   48   46 ar
    47   49   48 1
    48   50   48 ar
    49   51   50 1
    50   52   50 ar
    51   53   52 1
    52   54   45 ar
    53   55   54 1
    54   56   40 1
    55   57   56 ar
    56   58   57 1
    57   59   57 ar
    58   60   59 1
    59   61   59 ar
    60   62   61 1
    61   63   61 ar
    62   64   63 1
    63   65   56 ar
    64   66   65 1
    65    4    7 ar
    66   19   21 ar
    67   30   32 ar
    68   37   40 ar
    69   52   54 ar
    70   63   65 ar
@<TRIPOS>SUBSTRUCTURE
     1 RES1 1
     2 RES2 34
     3 SUP3 67

@<TRIPOS>CRYSIN
  16.6300    8.0207   21.5890  90.0000 110.9420  90.0000  14 1

