# MOL2 file generated by ConQuest
# Please check atom types

@<TRIPOS>MOLECULE
IBOMET
    44    47     1
SMALL
NO_CHARGES
****
Generated from CSD

@<TRIPOS>ATOM
      1 O1         2.1879    6.3728    4.3882 O.2       1 RES1    0.0000
      2 N1         2.7158    6.8216    3.3203 N.pl3     1 RES1    0.0000
      3 N2         2.8302    6.6688    0.9050 N.2       1 RES1    0.0000
      4 N3         4.6448    7.5466    2.2170 N.2       1 RES1    0.0000
      5 C1         1.9308    6.8079    2.0347 C.3       1 RES1    0.0000
      6 C2         4.0637    7.0126    1.0499 C.2       1 RES1    0.0000
      7 C3         3.9839    7.4013    3.3173 C.2       1 RES1    0.0000
      8 C4         0.9756    5.6122    2.0556 C.3       1 RES1    0.0000
      9 H1         0.2924    5.6935    2.7991 H         1 RES1    0.0000
     10 H2         1.4810    4.7784    2.2064 H         1 RES1    0.0000
     11 H3         0.5088    5.5869    1.1342 H         1 RES1    0.0000
     12 C5         1.1372    8.1269    1.9508 C.ar      1 RES1    0.0000
     13 C6         0.3747    8.5459    3.0303 C.ar      1 RES1    0.0000
     14 H4         0.3624    8.0348    3.8466 H         1 RES1    0.0000
     15 C7        -0.3976    9.6930    2.9441 C.ar      1 RES1    0.0000
     16 H5        -0.9310    9.9581    3.6888 H         1 RES1    0.0000
     17 C8        -0.4315   10.4297    1.7763 C.ar      1 RES1    0.0000
     18 H6        -0.9826   11.2306    1.7359 H         1 RES1    0.0000
     19 C9         0.3280   10.0207    0.7024 C.ar      1 RES1    0.0000
     20 H7         0.3211   10.5401   -0.1184 H         1 RES1    0.0000
     21 C10        1.1129    8.8753    0.7841 C.ar      1 RES1    0.0000
     22 H8         1.6509    8.5887    0.0582 H         1 RES1    0.0000
     23 C11        5.0046    6.8636   -0.0900 C.ar      1 RES1    0.0000
     24 C12        6.3765    7.0782    0.0746 C.ar      1 RES1    0.0000
     25 H9         6.7091    7.3673    0.9508 H         1 RES1    0.0000
     26 C13        7.2443    6.8899   -0.9898 C.ar      1 RES1    0.0000
     27 H10        8.2049    7.0235   -0.8305 H         1 RES1    0.0000
     28 C14        6.7615    6.4887   -2.2283 C.ar      1 RES1    0.0000
     29 H11        7.3669    6.3404   -2.9234 H         1 RES1    0.0000
     30 C15        5.3992    6.2905   -2.4002 C.ar      1 RES1    0.0000
     31 H12        5.0679    6.0176   -3.2449 H         1 RES1    0.0000
     32 C16        4.5238    6.4768   -1.3448 C.ar      1 RES1    0.0000
     33 H13        3.5933    6.3451   -1.4666 H         1 RES1    0.0000
     34 C17        4.5798    7.8517    4.6004 C.ar      1 RES1    0.0000
     35 C18        3.8297    8.5397    5.5477 C.ar      1 RES1    0.0000
     36 H14        2.8823    8.6662    5.4069 H         1 RES1    0.0000
     37 C19        4.4503    9.0830    6.6633 C.ar      1 RES1    0.0000
     38 H15        3.8966    9.6017    7.2986 H         1 RES1    0.0000
     39 C20        5.8093    8.9097    6.8545 C.ar      1 RES1    0.0000
     40 H16        6.2415    9.3177    7.6340 H         1 RES1    0.0000
     41 C21        6.5567    8.2049    5.9301 C.ar      1 RES1    0.0000
     42 H17        7.5043    8.0923    6.0658 H         1 RES1    0.0000
     43 C22        5.9485    7.6819    4.7930 C.ar      1 RES1    0.0000
     44 H18        6.4723    7.1947    4.1730 H         1 RES1    0.0000
@<TRIPOS>BOND
     1    1    2 1
     2    2    5 1
     3    3    5 1
     4    4    6 1
     5    5    8 1
     6    6    3 2
     7    7    2 1
     8    8    9 1
     9   10    8 1
    10   11    8 1
    11   12    5 1
    12   13   12 ar
    13   14   13 1
    14   15   13 ar
    15   16   15 1
    16   17   15 ar
    17   18   17 1
    18   19   17 ar
    19   20   19 1
    20   21   12 ar
    21   22   21 1
    22   23    6 1
    23   24   23 ar
    24   25   24 1
    25   26   24 ar
    26   27   26 1
    27   28   26 ar
    28   29   28 1
    29   30   28 ar
    30   31   30 1
    31   32   23 ar
    32   33   32 1
    33   34    7 1
    34   35   34 ar
    35   36   35 1
    36   37   35 ar
    37   38   37 1
    38   39   37 ar
    39   40   39 1
    40   41   39 ar
    41   42   41 1
    42   43   34 ar
    43   44   43 1
    44    4    7 2
    45   19   21 ar
    46   30   32 ar
    47   41   43 ar
@<TRIPOS>SUBSTRUCTURE
     1 RES1 1

@<TRIPOS>CRYSIN
   8.7656   10.5290   10.6930  86.0300  67.3100  76.6500   2 1

