# MOL2 file generated by ConQuest
# Please check atom types

@<TRIPOS>MOLECULE
IBORAV
    25    26     1
SMALL
NO_CHARGES
****
Generated from CSD

@<TRIPOS>ATOM
      1 O1         7.8966   -0.0512    6.9319 O.3       1 RES1    0.0000
      2 C1         6.2184   -1.2601    8.1263 C.ar      1 RES1    0.0000
      3 O2         6.2970   -1.5268    3.3567 O.3       1 RES1    0.0000
      4 C2         6.2137   -1.2921    5.7006 C.2       1 RES1    0.0000
      5 C3         7.3734   -0.4863    8.1147 C.ar      1 RES1    0.0000
      6 C4         6.3524   -1.2863   10.5034 C.ar      1 RES1    0.0000
      7 O3         7.8912    0.1163    4.7406 O.2       1 RES1    0.0000
      8 C5         5.6598   -1.6558    6.8765 C.2       1 RES1    0.0000
      9 H1         4.8920   -2.1802    6.8705 H         1 RES1    0.0000
     10 C6         5.6897   -1.6591    9.3642 C.ar      1 RES1    0.0000
     11 H2         4.9100   -2.1634    9.4082 H         1 RES1    0.0000
     12 O4         6.4011   -1.3969   12.8158 O.2       1 RES1    0.0000
     13 C7         7.5196   -0.5321   10.4837 C.ar      1 RES1    0.0000
     14 H3         7.9452   -0.3040   11.2788 H         1 RES1    0.0000
     15 N1         5.8152   -1.7185   11.8017 N.pl3     1 RES1    0.0000
     16 C8         8.0402   -0.1262    9.2766 C.ar      1 RES1    0.0000
     17 H4         8.8210    0.3781    9.2396 H         1 RES1    0.0000
     18 C9         7.3665   -0.3896    5.6870 C.2       1 RES1    0.0000
     19 O5         4.6707   -2.5759    4.4579 O.2       1 RES1    0.0000
     20 C10        5.6391   -1.8586    4.4526 C.2       1 RES1    0.0000
     21 C11        5.8593   -2.1560    2.1241 C.3       1 RES1    0.0000
     22 H5         6.3423   -1.7824    1.3847 H         1 RES1    0.0000
     23 H6         4.9197   -2.0008    2.0015 H         1 RES1    0.0000
     24 H7         6.0230   -3.1007    2.1702 H         1 RES1    0.0000
     25 O6         4.8029   -2.3846   11.8158 O.2       1 RES1    0.0000
@<TRIPOS>BOND
     1    1    5 1
     2    2    5 ar
     3    3   20 1
     4    4    8 2
     5    5   16 ar
     6    6   10 ar
     7    7   18 2
     8    8    2 1
     9    9    8 1
    10   10    2 ar
    11   11   10 1
    12   12   15 2
    13   13    6 ar
    14   14   13 1
    15   15    6 1
    16   16   13 ar
    17   17   16 1
    18   18    1 1
    19   19   20 2
    20   20    4 1
    21   21    3 1
    22   22   21 1
    23   23   21 1
    24   24   21 1
    25   25   15 2
    26    4   18 1
@<TRIPOS>SUBSTRUCTURE
     1 RES1 1

