# MOL2 file generated by ConQuest
# Please check atom types

@<TRIPOS>MOLECULE
IBOREZ
    76    78     2
SMALL
NO_CHARGES
****
Generated from CSD

@<TRIPOS>ATOM
      1 O1         2.8563    6.6634    2.3351 O.3       1 RES1    0.0000
      2 O2         1.7192   18.6970   -1.9093 O.2       1 RES1    0.0000
      3 O3         0.3895   17.2388   -2.7969 O.2       1 RES1    0.0000
      4 O4         2.5791   14.0492    2.1184 O.3       1 RES1    0.0000
      5 O5         2.6974   12.0615    3.0401 O.2       1 RES1    0.0000
      6 O6         0.0468   10.4926    0.1576 O.2       1 RES1    0.0000
      7 O7         2.6907    8.4741    3.6350 O.2       1 RES1    0.0000
      8 N1         1.6055    9.9049    1.7024 N.am      1 RES1    0.0000
      9 H1         2.1231   10.2078    2.3187 H         1 RES1    0.0000
     10 N2         1.1904   17.5887   -1.9363 N.pl3     1 RES1    0.0000
     11 C1         3.7519    6.0934    3.3238 C.3       1 RES1    0.0000
     12 H2         4.5235    6.6564    3.4201 H         1 RES1    0.0000
     13 H3         4.0282    5.2191    3.0392 H         1 RES1    0.0000
     14 H4         3.2978    6.0261    4.1672 H         1 RES1    0.0000
     15 C2         2.4213    7.8883    2.6175 C.2       1 RES1    0.0000
     16 C3         1.5157    8.4537    1.5317 C.3       1 RES1    0.0000
     17 C4         0.9259   10.7917    0.9532 C.2       1 RES1    0.0000
     18 C5         1.3546   12.2377    1.0698 C.2       1 RES1    0.0000
     19 C6         0.9807   13.0748    0.0796 C.2       1 RES1    0.0000
     20 H5         0.4372   12.7561   -0.6033 H         1 RES1    0.0000
     21 C7         1.4016   14.4399    0.0571 C.ar      1 RES1    0.0000
     22 C8         1.0703   15.3430   -0.9686 C.ar      1 RES1    0.0000
     23 H6         0.5458   15.0759   -1.6887 H         1 RES1    0.0000
     24 C9         1.5413   16.6327   -0.8806 C.ar      1 RES1    0.0000
     25 C10        2.3465   17.0670    0.1633 C.ar      1 RES1    0.0000
     26 H7         2.6503   17.9452    0.1865 H         1 RES1    0.0000
     27 C11        2.6927   16.1892    1.1625 C.ar      1 RES1    0.0000
     28 H8         3.2437   16.4585    1.8619 H         1 RES1    0.0000
     29 C12        2.2058   14.8964    1.1063 C.ar      1 RES1    0.0000
     30 C13        2.2326   12.7181    2.1354 C.2       1 RES1    0.0000
     31 C14        1.9955    8.0617    0.1325 C.3       1 RES1    0.0000
     32 H9         1.4670    8.5174   -0.5261 H         1 RES1    0.0000
     33 H10        1.9031    7.1136    0.0160 H         1 RES1    0.0000
     34 H11        2.9179    8.3083    0.0293 H         1 RES1    0.0000
     35 C15        0.0979    7.9319    1.8141 C.3       1 RES1    0.0000
     36 H12       -0.1792    8.2150    2.6889 H         1 RES1    0.0000
     37 H13        0.0959    6.9734    1.7726 H         1 RES1    0.0000
     38 H14       -0.5082    8.2823    1.1573 H         1 RES1    0.0000
     39 O8         6.4892   13.5617    8.0340 O.2       2 RES2    0.0000
     40 N3         6.4394    4.8806    8.5548 N.am      2 RES2    0.0000
     41 O9         9.0879    4.5212    8.2524 O.3       2 RES2    0.0000
     42 O10        4.8912   14.0881    6.6662 O.2       2 RES2    0.0000
     43 O11        4.8919    7.9112    5.9787 O.3       2 RES2    0.0000
     44 O12        5.1245    5.7577    6.3283 O.2       2 RES2    0.0000
     45 O13        7.1827    6.4990    9.9510 O.2       2 RES2    0.0000
     46 O14        9.2454    3.8413   10.3839 O.2       2 RES2    0.0000
     47 N4         5.6027   13.2680    7.2361 N.pl3     2 RES2    0.0000
     48 C16        5.4008   11.8527    6.9280 C.ar      2 RES2    0.0000
     49 C17        5.8942   10.9194    7.8124 C.ar      2 RES2    0.0000
     50 H15        6.3330   11.1812    8.5901 H         2 RES2    0.0000
     51 C18        5.7179    9.5678    7.5070 C.ar      2 RES2    0.0000
     52 C19        6.1937    8.5038    8.3432 C.2       2 RES2    0.0000
     53 H16        6.6301    8.7110    9.1375 H         2 RES2    0.0000
     54 C20        6.0226    7.2089    8.0039 C.2       2 RES2    0.0000
     55 C21        6.5945    6.1615    8.9252 C.2       2 RES2    0.0000
     56 C22        7.0860    3.7744    9.2704 C.3       2 RES2    0.0000
     57 C23        8.5863    4.0655    9.4027 C.2       2 RES2    0.0000
     58 C24       10.5093    4.7552    8.2329 C.3       2 RES2    0.0000
     59 H17       10.7256    5.4620    8.8458 H         2 RES2    0.0000
     60 H18       10.7804    5.0067    7.3462 H         2 RES2    0.0000
     61 H19       10.9689    3.9542    8.4929 H         2 RES2    0.0000
     62 C25        5.0781    9.2241    6.3218 C.ar      2 RES2    0.0000
     63 C26        5.3433    6.8688    6.7541 C.2       2 RES2    0.0000
     64 C27        6.9297    2.5150    8.4167 C.3       2 RES2    0.0000
     65 H20        5.9970    2.3144    8.3105 H         2 RES2    0.0000
     66 H21        7.3683    1.7792    8.8498 H         2 RES2    0.0000
     67 H22        7.3264    2.6613    7.5553 H         2 RES2    0.0000
     68 C28        6.4612    3.5592   10.6349 C.3       2 RES2    0.0000
     69 H23        6.5217    4.3700   11.1459 H         2 RES2    0.0000
     70 H24        6.9282    2.8571   11.0939 H         2 RES2    0.0000
     71 H25        5.5388    3.3146   10.5292 H         2 RES2    0.0000
     72 C29        4.5943   10.1775    5.4322 C.ar      2 RES2    0.0000
     73 H26        4.1761    9.9225    4.6413 H         2 RES2    0.0000
     74 C30        4.7513   11.5089    5.7513 C.ar      2 RES2    0.0000
     75 H27        4.4246   12.1695    5.1834 H         2 RES2    0.0000
     76 H28        6.0649    4.7298    7.7777 H         2 RES2    0.0000
@<TRIPOS>BOND
     1    1   11 1
     2    2   10 2
     3    3   10 2
     4    4   29 1
     5    5   30 2
     6    6   17 2
     7    7   15 2
     8    8    9 1
     9   10   24 1
    10   11   12 1
    11   13   11 1
    12   14   11 1
    13   15    1 1
    14   16    8 1
    15   17    8 1
    16   18   17 1
    17   19   18 2
    18   20   19 1
    19   21   19 1
    20   22   21 ar
    21   23   22 1
    22   24   22 ar
    23   25   24 ar
    24   26   25 1
    25   27   25 ar
    26   28   27 1
    27   29   21 ar
    28   30    4 1
    29   31   16 1
    30   32   31 1
    31   33   31 1
    32   34   31 1
    33   35   16 1
    34   36   35 1
    35   37   35 1
    36   38   35 1
    37   39   47 2
    38   40   55 1
    39   41   57 1
    40   42   47 2
    41   43   62 1
    42   44   63 2
    43   45   55 2
    44   46   57 2
    45   47   48 1
    46   48   49 ar
    47   49   50 1
    48   51   49 ar
    49   52   51 1
    50   53   52 1
    51   54   52 2
    52   55   54 1
    53   56   40 1
    54   57   56 1
    55   58   41 1
    56   59   58 1
    57   60   58 1
    58   61   58 1
    59   62   51 ar
    60   63   43 1
    61   64   56 1
    62   65   64 1
    63   66   64 1
    64   67   64 1
    65   68   56 1
    66   69   68 1
    67   70   68 1
    68   71   68 1
    69   72   62 ar
    70   73   72 1
    71   74   48 ar
    72   75   74 1
    73   76   40 1
    74   15   16 1
    75   18   30 1
    76   27   29 ar
    77   54   63 1
    78   72   74 ar
@<TRIPOS>SUBSTRUCTURE
     1 RES1 1
     2 RES2 39

@<TRIPOS>CRYSIN
   7.8470   14.2490   15.0925 118.0000  90.7050  92.1920   2 1

