# MOL2 file generated by ConQuest
# Please check atom types

@<TRIPOS>MOLECULE
IBOVEA
    92    96     2
SMALL
NO_CHARGES
****
Generated from CSD

@<TRIPOS>ATOM
      1 N1         3.6170    6.7603    3.5178 N.3       1 RES1    0.0000
      2 H1         3.3098    7.5212    3.7721 H         1 RES1    0.0000
      3 N2         1.0304    2.2734    5.4669 N.pl3     1 RES1    0.0000
      4 O1         0.0475    2.4222    6.1984 O.2       1 RES1    0.0000
      5 O2         1.4503    1.1505    5.1507 O.2       1 RES1    0.0000
      6 N3         3.8331    8.7929    1.5766 N.3       1 RES1    0.0000
      7 H2         3.2932    8.2575    1.1737 H         1 RES1    0.0000
      8 N4         2.1651   14.0990    1.5789 N.pl3     1 RES1    0.0000
      9 O3         1.0171   14.3153    1.1456 O.2       1 RES1    0.0000
     10 O4         2.8663   14.9534    2.0830 O.2       1 RES1    0.0000
     11 N5        -0.4653    1.4726    2.1325 N.3       2 RES2    0.0000
     12 H3        -0.1255    0.7240    1.8782 H         2 RES2    0.0000
     13 N6         2.0656    5.9872    0.1474 N.pl3     2 RES2    0.0000
     14 O5         1.6409    7.0963    0.4164 O.2       2 RES2    0.0000
     15 O6         3.0313    5.8399   -0.5874 O.2       2 RES2    0.0000
     16 N7        -0.7065   -0.5400    4.0231 N.3       2 RES2    0.0000
     17 H4        -0.1665    0.0199    4.3911 H         2 RES2    0.0000
     18 N8         0.9415   -5.8261    3.9882 N.pl3     2 RES2    0.0000
     19 O7         2.0254   -6.0884    4.4699 O.2       2 RES2    0.0000
     20 O8         0.2456   -6.7082    3.5268 O.2       2 RES2    0.0000
     21 C1         2.9576    5.6789    3.9747 C.ar      1 RES1    0.0000
     22 C2         1.9447    5.7602    4.8896 C.ar      1 RES1    0.0000
     23 H5         1.6825    6.6008    5.1901 H         1 RES1    0.0000
     24 C3         1.3094    4.6756    5.3735 C.ar      1 RES1    0.0000
     25 H6         0.6204    4.7661    5.9924 H         1 RES1    0.0000
     26 C4         1.7086    3.3963    4.9222 C.ar      1 RES1    0.0000
     27 C5         2.6733    3.2843    3.9848 C.ar      1 RES1    0.0000
     28 H7         2.8958    2.4406    3.6607 H         1 RES1    0.0000
     29 C6         3.3158    4.3535    3.5122 C.ar      1 RES1    0.0000
     30 H8         3.9943    4.2476    2.8854 H         1 RES1    0.0000
     31 C7         3.5111   10.1183    1.6182 C.ar      1 RES1    0.0000
     32 C8         2.2250   10.4742    1.0702 C.ar      1 RES1    0.0000
     33 H9         1.6755    9.8191    0.7033 H         1 RES1    0.0000
     34 C9         1.8226   11.7658    1.0938 C.ar      1 RES1    0.0000
     35 H10        0.9751   11.9928    0.7844 H         1 RES1    0.0000
     36 C10        2.6382   12.7169    1.5631 C.ar      1 RES1    0.0000
     37 C11        3.9229   12.4346    2.0515 C.ar      1 RES1    0.0000
     38 H11        4.4852   13.1050    2.3677 H         1 RES1    0.0000
     39 C12        4.3140   11.0924    2.0369 C.ar      1 RES1    0.0000
     40 H12        5.1677   10.8715    2.3317 H         1 RES1    0.0000
     41 C13        0.1187    2.6277    1.7128 C.ar      2 RES2    0.0000
     42 C14       -0.2089    3.8733    2.1438 C.ar      2 RES2    0.0000
     43 H13       -0.8606    3.9761    2.7987 H         2 RES2    0.0000
     44 C15        0.4151    4.9978    1.6194 C.ar      2 RES2    0.0000
     45 H14        0.1677    5.8522    1.8894 H         2 RES2    0.0000
     46 C16        1.4341    4.8076    0.6640 C.ar      2 RES2    0.0000
     47 C17        1.7909    3.5850    0.2431 C.ar      2 RES2    0.0000
     48 H15        2.4675    3.4914   -0.3871 H         2 RES2    0.0000
     49 C18        1.1566    2.4713    0.7416 C.ar      2 RES2    0.0000
     50 H16        1.4013    1.6230    0.4501 H         2 RES2    0.0000
     51 C19       -0.3414   -1.8592    4.0591 C.ar      2 RES2    0.0000
     52 C20        0.8700   -2.2028    4.5092 C.ar      2 RES2    0.0000
     53 H17        1.4450   -1.5371    4.8097 H         2 RES2    0.0000
     54 C21        1.2834   -3.4898    4.5385 C.ar      2 RES2    0.0000
     55 H18        2.1184   -3.7061    4.8862 H         2 RES2    0.0000
     56 C22        0.4358   -4.5038    4.0355 C.ar      2 RES2    0.0000
     57 C23       -0.7694   -4.1955    3.5358 C.ar      2 RES2    0.0000
     58 H19       -1.3093   -4.8704    3.1937 H         2 RES2    0.0000
     59 C24       -1.2217   -2.8947    3.5212 C.ar      2 RES2    0.0000
     60 H20       -2.0601   -2.6830    3.1802 H         2 RES2    0.0000
     61 C25        4.7716    6.8033    2.6558 C.3       1 RES1    0.0000
     62 H21        4.6043    6.2250    1.8827 H         1 RES1    0.0000
     63 C26        4.9823    8.2560    2.1483 C.3       1 RES1    0.0000
     64 H22        5.1926    8.8052    2.9326 H         1 RES1    0.0000
     65 C27        6.1987    8.2729    1.2671 C.3       1 RES1    0.0000
     66 H23        6.0186    7.7298    0.4839 H         1 RES1    0.0000
     67 H24        6.3474    9.1825    0.9644 H         1 RES1    0.0000
     68 C28        7.4517    7.7758    1.9120 C.3       1 RES1    0.0000
     69 H25        7.6955    8.3526    2.6536 H         1 RES1    0.0000
     70 H26        8.1783    7.7758    1.2705 H         1 RES1    0.0000
     71 C29        7.1916    6.3385    2.4206 C.3       1 RES1    0.0000
     72 H27        7.0290    5.7479    1.6689 H         1 RES1    0.0000
     73 H28        7.9700    6.0133    2.9000 H         1 RES1    0.0000
     74 C30        5.9992    6.3385    3.3321 C.3       1 RES1    0.0000
     75 H29        5.8560    5.4411    3.6686 H         1 RES1    0.0000
     76 H30        6.1805    6.9153    4.0917 H         1 RES1    0.0000
     77 C31       -1.6393    1.4450    2.9945 C.3       2 RES2    0.0000
     78 H31       -1.4769    2.0003    3.7845 H         2 RES2    0.0000
     79 C32       -1.9163    0.0169    3.4267 C.3       2 RES2    0.0000
     80 H32       -2.1756   -0.5185    2.6479 H         2 RES2    0.0000
     81 C33       -3.0815    0.0230    4.4665 C.3       2 RES2    0.0000
     82 H33       -3.2283   -0.8713    4.8131 H         2 RES2    0.0000
     83 H34       -2.8667    0.6090    5.2092 H         2 RES2    0.0000
     84 C34       -4.3386    0.5262    3.7350 C.3       2 RES2    0.0000
     85 H35       -4.5702   -0.1028    3.0339 H         2 RES2    0.0000
     86 H36       -5.0784    0.5584    4.3618 H         2 RES2    0.0000
     87 C35       -4.1556    1.8592    3.1408 C.3       2 RES2    0.0000
     88 H37       -4.0859    2.5158    3.8520 H         2 RES2    0.0000
     89 H38       -4.9372    2.0786    2.6097 H         2 RES2    0.0000
     90 C36       -2.9175    1.9451    2.2619 C.3       2 RES2    0.0000
     91 H39       -2.7865    2.8655    1.9862 H         2 RES2    0.0000
     92 H40       -3.0557    1.4113    1.4641 H         2 RES2    0.0000
@<TRIPOS>BOND
     1    1    2 1
     2    3    4 2
     3    5    3 2
     4    6    7 1
     5    8    9 2
     6   10    8 2
     7   11   12 1
     8   13   14 2
     9   15   13 2
    10   16   17 1
    11   18   19 2
    12   20   18 2
    13   21    1 1
    14   22   21 ar
    15   23   22 1
    16   24   22 ar
    17   25   24 1
    18   26    3 1
    19   27   26 ar
    20   28   27 1
    21   29   21 ar
    22   30   29 1
    23   31    6 1
    24   32   31 ar
    25   33   32 1
    26   34   32 ar
    27   35   34 1
    28   36    8 1
    29   37   36 ar
    30   38   37 1
    31   39   31 ar
    32   40   39 1
    33   41   11 1
    34   42   41 ar
    35   43   42 1
    36   44   42 ar
    37   45   44 1
    38   46   13 1
    39   47   46 ar
    40   48   47 1
    41   49   41 ar
    42   50   49 1
    43   51   16 1
    44   52   51 ar
    45   53   52 1
    46   54   52 ar
    47   55   54 1
    48   56   18 1
    49   57   56 ar
    50   58   57 1
    51   59   51 ar
    52   60   59 1
    53   61    1 1
    54   62   61 1
    55   63    6 1
    56   64   63 1
    57   65   63 1
    58   66   65 1
    59   67   65 1
    60   68   65 1
    61   69   68 1
    62   70   68 1
    63   71   68 1
    64   72   71 1
    65   73   71 1
    66   74   61 1
    67   75   74 1
    68   76   74 1
    69   77   11 1
    70   78   77 1
    71   79   16 1
    72   80   79 1
    73   81   79 1
    74   82   81 1
    75   83   81 1
    76   84   81 1
    77   85   84 1
    78   86   84 1
    79   87   84 1
    80   88   87 1
    81   89   87 1
    82   90   77 1
    83   91   90 1
    84   92   90 1
    85   24   26 ar
    86   27   29 ar
    87   34   36 ar
    88   37   39 ar
    89   44   46 ar
    90   47   49 ar
    91   54   56 ar
    92   57   59 ar
    93   61   63 1
    94   71   74 1
    95   77   79 1
    96   87   90 1
@<TRIPOS>SUBSTRUCTURE
     1 RES1 1
     2 RES2 11

@<TRIPOS>CRYSIN
  10.2100   15.3400   11.9330  90.0000 109.4300  90.0000   4 1

