# MOL2 file generated by ConQuest
# Please check atom types

@<TRIPOS>MOLECULE
IBUQAX
    31    34     1
SMALL
NO_CHARGES
****
Generated from CSD

@<TRIPOS>ATOM
      1 O1         7.7172   -1.6300   10.0423 O.2       1 RES1    0.0000
      2 O2         5.8286   -2.4014   10.6538 O.2       1 RES1    0.0000
      3 N1         6.4998   -1.6556    9.9632 N.pl3     1 RES1    0.0000
      4 C1         2.3520    0.3776    7.8686 C.3       1 RES1    0.0000
      5 C2         2.4032    1.3953    6.7269 C.ar      1 RES1    0.0000
      6 C3         1.3493    1.9913    6.0600 C.ar      1 RES1    0.0000
      7 C4         1.6448    2.9138    5.0551 C.ar      1 RES1    0.0000
      8 C5         2.9474    3.2112    4.7261 C.ar      1 RES1    0.0000
      9 C6         4.0048    2.6187    5.3829 C.ar      1 RES1    0.0000
     10 C7         3.7234    1.6997    6.3900 C.ar      1 RES1    0.0000
     11 C8         4.6136    0.9143    7.2322 C.ar      1 RES1    0.0000
     12 C9         6.0064    0.8388    7.2695 C.ar      1 RES1    0.0000
     13 C10        6.6151   -0.0105    8.1613 C.ar      1 RES1    0.0000
     14 C11        5.8288   -0.7598    9.0249 C.ar      1 RES1    0.0000
     15 C12        4.4388   -0.7168    9.0136 C.ar      1 RES1    0.0000
     16 C13        3.8400    0.1324    8.1026 C.ar      1 RES1    0.0000
     17 C14        1.6323    0.8748    9.1041 C.2       1 RES1    0.0000
     18 C15        0.6524    0.0488    9.4274 C.2       1 RES1    0.0000
     19 C16        0.6123   -1.0479    8.4654 C.2       1 RES1    0.0000
     20 C17        1.5658   -0.8830    7.5622 C.2       1 RES1    0.0000
     21 H1         0.4299    1.7892    6.3188 H         1 RES1    0.0000
     22 H2         0.9447    3.2879    4.6346 H         1 RES1    0.0000
     23 H3         3.1147    3.8339    3.9337 H         1 RES1    0.0000
     24 H4         4.9409    2.8116    5.1319 H         1 RES1    0.0000
     25 H5         6.5610    1.3825    6.6353 H         1 RES1    0.0000
     26 H6         7.5743   -0.0813    8.1839 H         1 RES1    0.0000
     27 H7         3.9268   -1.2547    9.6421 H         1 RES1    0.0000
     28 H8         1.7572   -1.4871    6.7936 H         1 RES1    0.0000
     29 H9        -0.0383   -1.8240    8.5004 H         1 RES1    0.0000
     30 H10       -0.1135    0.1278   10.2638 H         1 RES1    0.0000
     31 H11        1.9138    1.6846    9.5969 H         1 RES1    0.0000
@<TRIPOS>BOND
     1    1    3 2
     2    2    3 2
     3    3   14 1
     4    4    5 1
     5    5    6 ar
     6    6    7 ar
     7    7    8 ar
     8    8    9 ar
     9    9   10 ar
    10   10    5 ar
    11   11   10 1
    12   12   11 ar
    13   13   12 ar
    14   14   13 ar
    15   15   14 ar
    16   16    4 1
    17   17    4 1
    18   18   17 2
    19   19   18 1
    20   20    4 1
    21   21    6 1
    22   22    7 1
    23   23    8 1
    24   24    9 1
    25   25   12 1
    26   26   13 1
    27   27   15 1
    28   28   20 1
    29   29   19 1
    30   30   18 1
    31   31   17 1
    32   11   16 ar
    33   15   16 ar
    34   19   20 2
@<TRIPOS>SUBSTRUCTURE
     1 RES1 1

@<TRIPOS>CRYSIN
  10.0760   11.6180   11.3170  90.0000  92.7690  90.0000 231 1

