# MOL2 file generated by ConQuest
# Please check atom types

@<TRIPOS>MOLECULE
ICENAF
    96   102     2
SMALL
NO_CHARGES
****
Generated from CSD

@<TRIPOS>ATOM
      1 O1         7.0538    8.8467   31.9279 O.3       1 RES1    0.0000
      2 O2         7.5128    5.6831   30.4675 O.2       1 RES1    0.0000
      3 O3         6.0895    6.9160   27.8774 O.3       1 RES1    0.0000
      4 O4         5.3199    4.8335   27.7844 O.2       1 RES1    0.0000
      5 O5        10.9252    9.2290   28.9059 O.3       1 RES1    0.0000
      6 N1         5.7355    7.0444   30.5165 N.am      1 RES1    0.0000
      7 N2        10.2413   10.2101   29.6382 N.2       1 RES1    0.0000
      8 C1         9.3799    9.6963   30.4165 C.2       1 RES1    0.0000
      9 C2         9.0864    8.2561   30.5103 C.3       1 RES1    0.0000
     10 C3         9.1913    7.5754   31.8731 C.3       1 RES1    0.0000
     11 C4         7.8447    7.8677   31.3099 C.3       1 RES1    0.0000
     12 C5         7.4856   10.1575   31.9658 C.ar      1 RES1    0.0000
     13 C6         6.7311   10.9949   32.7649 C.ar      1 RES1    0.0000
     14 C7         7.0700   12.3421   32.8344 C.ar      1 RES1    0.0000
     15 C8         8.1523   12.8296   32.1241 C.ar      1 RES1    0.0000
     16 C9         8.8988   11.9841   31.3519 C.ar      1 RES1    0.0000
     17 C10        8.5891   10.6126   31.2589 C.ar      1 RES1    0.0000
     18 C11        7.0125    6.7693   30.7447 C.2       1 RES1    0.0000
     19 C12        4.9184    6.1139   29.7652 C.3       1 RES1    0.0000
     20 C13        3.4518    6.5862   29.7189 C.3       1 RES1    0.0000
     21 C14        2.8002    6.4649   31.0581 C.ar      1 RES1    0.0000
     22 C15        2.2080    5.2785   31.4446 C.ar      1 RES1    0.0000
     23 C16        1.6976    5.1106   32.7031 C.ar      1 RES1    0.0000
     24 C17        1.7309    6.1341   33.5949 C.ar      1 RES1    0.0000
     25 C18        2.2736    7.3306   33.2398 C.ar      1 RES1    0.0000
     26 C19        2.8163    7.5117   31.9696 C.ar      1 RES1    0.0000
     27 C20        5.4641    5.8671   28.3754 C.2       1 RES1    0.0000
     28 C21        6.7311    6.7258   26.5957 C.3       1 RES1    0.0000
     29 O6        -1.3829    5.5657   35.6596 O.3       2 RES2    0.0000
     30 O7         1.7138    5.1581   37.2664 O.2       2 RES2    0.0000
     31 O8         0.4569    6.5680   39.9001 O.3       2 RES2    0.0000
     32 O9         2.5581    7.2801   39.9418 O.2       2 RES2    0.0000
     33 O10       -1.8812    1.7770   38.7164 O.3       2 RES2    0.0000
     34 N3         0.3228    6.9038   37.2351 N.am      2 RES2    0.0000
     35 N4        -2.8355    2.4011   37.9188 N.2       2 RES2    0.0000
     36 C22       -2.3039    3.2638   37.1440 C.2       2 RES2    0.0000
     37 C23       -0.8624    3.5642   37.1235 C.3       2 RES2    0.0000
     38 C24       -0.0948    3.4539   35.8225 C.3       2 RES2    0.0000
     39 C25       -0.4347    4.7920   36.3391 C.3       2 RES2    0.0000
     40 C26       -2.6539    5.0833   35.4959 C.ar      2 RES2    0.0000
     41 C27       -3.4407    5.7700   34.5755 C.ar      2 RES2    0.0000
     42 C28       -4.7550    5.4171   34.4095 C.ar      2 RES2    0.0000
     43 C29       -5.3017    4.3773   35.1546 C.ar      2 RES2    0.0000
     44 C30       -4.5129    3.6795   36.0194 C.ar      2 RES2    0.0000
     45 C31       -3.1714    4.0031   36.2066 C.ar      2 RES2    0.0000
     46 C32        0.6224    5.6284   36.9726 C.2       2 RES2    0.0000
     47 C33        1.2548    7.7150   37.9852 C.3       2 RES2    0.0000
     48 C34        0.8251    9.1744   38.0315 C.3       2 RES2    0.0000
     49 C35        0.9744    9.8490   36.6954 C.ar      2 RES2    0.0000
     50 C36       -0.0635    9.8895   35.7993 C.ar      2 RES2    0.0000
     51 C37        0.1079   10.4518   34.5446 C.ar      2 RES2    0.0000
     52 C38        1.3002   10.9605   34.1895 C.ar      2 RES2    0.0000
     53 C39        2.3503   10.9595   35.0813 C.ar      2 RES2    0.0000
     54 C40        2.1818   10.3972   36.3398 C.ar      2 RES2    0.0000
     55 C41        1.5191    7.1577   39.3781 C.2       2 RES2    0.0000
     56 C42        0.6698    5.9491   41.1926 C.3       2 RES2    0.0000
     57 H1        11.6575    9.5072   28.4102 H         1 RES1    0.0000
     58 H2         5.3925    7.7746   30.8114 H         1 RES1    0.0000
     59 H3         9.2952    7.7089   29.7228 H         1 RES1    0.0000
     60 H4         9.4788    6.6489   31.8924 H         1 RES1    0.0000
     61 H5         9.4939    8.1114   32.6221 H         1 RES1    0.0000
     62 H6         6.0088   10.6632   33.2475 H         1 RES1    0.0000
     63 H7         6.5666   12.9186   33.3633 H         1 RES1    0.0000
     64 H8         8.3712   13.7318   32.1704 H         1 RES1    0.0000
     65 H9         9.6250   12.3209   30.8771 H         1 RES1    0.0000
     66 H10        4.9356    5.2583   30.2401 H         1 RES1    0.0000
     67 H11        3.4215    7.5117   29.4294 H         1 RES1    0.0000
     68 H12        2.9626    6.0542   29.0742 H         1 RES1    0.0000
     69 H13        2.1566    4.5776   30.8346 H         1 RES1    0.0000
     70 H14        1.3254    4.2934   32.9464 H         1 RES1    0.0000
     71 H15        1.3829    6.0168   34.4520 H         1 RES1    0.0000
     72 H16        2.2817    8.0325   33.8497 H         1 RES1    0.0000
     73 H17        3.1885    8.3299   31.7341 H         1 RES1    0.0000
     74 H18        7.1567    7.5430   26.3254 H         1 RES1    0.0000
     75 H19        6.0734    6.4760   25.9432 H         1 RES1    0.0000
     76 H20        7.3897    6.0310   26.6690 H         1 RES1    0.0000
     77 H21       -2.3372    1.2137   39.2777 H         2 RES2    0.0000
     78 H22       -0.4196    7.2406   36.9575 H         2 RES2    0.0000
     79 H23       -0.3621    3.3730   37.9420 H         2 RES2    0.0000
     80 H24        0.8332    3.1748   35.8688 H         2 RES2    0.0000
     81 H25       -0.5750    3.1374   35.0388 H         2 RES2    0.0000
     82 H26       -3.0755    6.4649   34.0737 H         2 RES2    0.0000
     83 H27       -5.2836    5.8752   33.7918 H         2 RES2    0.0000
     84 H28       -6.2015    4.1589   35.0620 H         2 RES2    0.0000
     85 H29       -4.8791    2.9715   36.4981 H         2 RES2    0.0000
     86 H30        2.1072    7.6866   37.5019 H         2 RES2    0.0000
     87 H31       -0.1019    9.2250   38.3126 H         2 RES2    0.0000
     88 H32        1.3617    9.6447   38.6871 H         2 RES2    0.0000
     89 H33       -0.8907    9.5365   36.0387 H         2 RES2    0.0000
     90 H34       -0.6042   10.4771   33.9463 H         2 RES2    0.0000
     91 H35        1.4162   11.3145   33.3363 H         2 RES2    0.0000
     92 H36        3.1673   11.3337   34.8419 H         2 RES2    0.0000
     93 H37        2.8889   10.3921   36.9459 H         2 RES2    0.0000
     94 H38       -0.1473    5.5435   41.4899 H         2 RES2    0.0000
     95 H39        0.9462    6.6156   41.8257 H         2 RES2    0.0000
     96 H40        1.3506    5.2765   41.1154 H         2 RES2    0.0000
@<TRIPOS>BOND
     1    1   11 1
     2    2   18 2
     3    3   27 1
     4    4   27 2
     5    5    7 1
     6    6   18 1
     7    7    8 2
     8    8    9 1
     9    9   10 1
    10   10   11 1
    11   11    9 1
    12   12    1 1
    13   13   12 ar
    14   14   13 ar
    15   15   14 ar
    16   16   15 ar
    17   17    8 1
    18   18   11 1
    19   19    6 1
    20   20   19 1
    21   21   20 1
    22   22   21 ar
    23   23   22 ar
    24   24   23 ar
    25   25   24 ar
    26   26   21 ar
    27   27   19 1
    28   28    3 1
    29   29   39 1
    30   30   46 2
    31   31   55 1
    32   32   55 2
    33   33   35 1
    34   34   46 1
    35   35   36 2
    36   36   37 1
    37   37   38 1
    38   38   39 1
    39   39   37 1
    40   40   29 1
    41   41   40 ar
    42   42   41 ar
    43   43   42 ar
    44   44   43 ar
    45   45   36 1
    46   46   39 1
    47   47   34 1
    48   48   47 1
    49   49   48 1
    50   50   49 ar
    51   51   50 ar
    52   52   51 ar
    53   53   52 ar
    54   54   49 ar
    55   55   47 1
    56   56   31 1
    57   57    5 1
    58   58    6 1
    59   59    9 1
    60   60   10 1
    61   61   10 1
    62   62   13 1
    63   63   14 1
    64   64   15 1
    65   65   16 1
    66   66   19 1
    67   67   20 1
    68   68   20 1
    69   69   22 1
    70   70   23 1
    71   71   24 1
    72   72   25 1
    73   73   26 1
    74   74   28 1
    75   75   28 1
    76   76   28 1
    77   77   33 1
    78   78   34 1
    79   79   37 1
    80   80   38 1
    81   81   38 1
    82   82   41 1
    83   83   42 1
    84   84   43 1
    85   85   44 1
    86   86   47 1
    87   87   48 1
    88   88   48 1
    89   89   50 1
    90   90   51 1
    91   91   52 1
    92   92   53 1
    93   93   54 1
    94   94   56 1
    95   95   56 1
    96   96   56 1
    97   12   17 ar
    98   16   17 ar
    99   25   26 ar
   100   40   45 ar
   101   44   45 ar
   102   53   54 ar
@<TRIPOS>SUBSTRUCTURE
     1 RES1 1
     2 RES2 29

@<TRIPOS>CRYSIN
  10.0870   10.1140   38.6060  90.0000  90.0000  90.0000  19 1

