# MOL2 file generated by ConQuest
# Please check atom types

@<TRIPOS>MOLECULE
ICEPOY
    84    90     2
SMALL
NO_CHARGES
****
Generated from CSD

@<TRIPOS>ATOM
      1 O1         0.4397   -3.5013    2.5358 O.2       1 RES1    0.0000
      2 O2         1.5281   -1.7426    2.2195 O.2       1 RES1    0.0000
      3 O3         1.7051    0.8145    5.3660 O.3       1 RES1    0.0000
      4 O4         1.2245    2.1046    4.8462 O.3       1 RES1    0.0000
      5 O5         0.0850    4.6946    5.5483 O.2       1 RES1    0.0000
      6 O6        -1.2154    0.5924    2.4489 O.2       1 RES1    0.0000
      7 O7        -0.1828    2.2724    6.7075 O.3       1 RES1    0.0000
      8 H1        -0.0162    3.0082    7.0280 H         1 RES1    0.0000
      9 N1         1.1407   -2.6217    2.9340 N.pl3     1 RES1    0.0000
     10 C1         1.5503   -1.5242    5.1319 C.ar      1 RES1    0.0000
     11 C2         1.9824   -1.6773    6.4414 C.ar      1 RES1    0.0000
     12 H2         1.9628   -0.9465    7.0171 H         1 RES1    0.0000
     13 C3         2.4423   -2.8988    6.9097 C.ar      1 RES1    0.0000
     14 H3         2.7349   -2.9758    7.7895 H         1 RES1    0.0000
     15 C4         2.4676   -3.9940    6.0853 C.ar      1 RES1    0.0000
     16 H4         2.7795   -4.8103    6.4052 H         1 RES1    0.0000
     17 C5         2.0342   -3.8876    4.7988 C.ar      1 RES1    0.0000
     18 H5         2.0323   -4.6305    4.2387 H         1 RES1    0.0000
     19 C6         1.5967   -2.6597    4.3365 C.ar      1 RES1    0.0000
     20 C7         0.9612   -0.2074    4.6696 C.3       1 RES1    0.0000
     21 H6         1.0782   -0.1078    3.7017 H         1 RES1    0.0000
     22 C8        -0.4959   -0.0913    5.0293 C.3       1 RES1    0.0000
     23 H7        -0.6084   -0.2806    5.9731 H         1 RES1    0.0000
     24 H8        -1.0019   -0.7509    4.5296 H         1 RES1    0.0000
     25 C9        -1.0539    1.3060    4.7251 C.3       1 RES1    0.0000
     26 C10       -0.1083    2.3407    5.3274 C.3       1 RES1    0.0000
     27 C11       -0.2970    3.7884    4.8301 C.2       1 RES1    0.0000
     28 C12       -0.8862    4.0106    3.5110 C.ar      1 RES1    0.0000
     29 C13       -1.0043    5.3023    3.0137 C.ar      1 RES1    0.0000
     30 H9        -0.7011    6.0216    3.5182 H         1 RES1    0.0000
     31 C14       -1.5647    5.5211    1.7863 C.ar      1 RES1    0.0000
     32 H10       -1.6429    6.3889    1.4628 H         1 RES1    0.0000
     33 C15       -2.0149    4.4660    1.0259 C.ar      1 RES1    0.0000
     34 H11       -2.3985    4.6232    0.1931 H         1 RES1    0.0000
     35 C16       -1.8953    3.1774    1.4978 C.ar      1 RES1    0.0000
     36 H12       -2.1961    2.4661    0.9788 H         1 RES1    0.0000
     37 C17       -1.3318    2.9313    2.7434 C.ar      1 RES1    0.0000
     38 C18       -1.1756    1.5332    3.2201 C.2       1 RES1    0.0000
     39 C19       -2.4844    1.4337    5.2984 C.3       1 RES1    0.0000
     40 H13       -3.0304    0.7193    4.9593 H         1 RES1    0.0000
     41 H14       -2.8603    2.2767    5.0353 H         1 RES1    0.0000
     42 H15       -2.4516    1.3827    6.2567 H         1 RES1    0.0000
     43 O8         4.3161   10.2866    0.0603 O.2       2 RES2    0.0000
     44 O9         3.5449    8.7148    1.3107 O.2       2 RES2    0.0000
     45 O10        6.4914    5.7689    1.5379 O.3       2 RES2    0.0000
     46 O11        5.8419    4.4636    1.3737 O.3       2 RES2    0.0000
     47 O12        5.6149    1.6905    2.8266 O.2       2 RES2    0.0000
     48 O13        2.3601    5.7652    1.8466 O.2       2 RES2    0.0000
     49 O14        6.3948    4.0452    3.6004 O.3       2 RES2    0.0000
     50 H16        6.7383    3.3012    3.6377 H         2 RES2    0.0000
     51 N2         4.4521    9.4389    0.9245 N.pl3     2 RES2    0.0000
     52 C20        6.2246    8.0474    1.9661 C.ar      2 RES2    0.0000
     53 C21        5.7583    9.2880    1.5521 C.ar      2 RES2    0.0000
     54 C22        6.4884   10.4603    1.7199 C.ar      2 RES2    0.0000
     55 H17        6.1605   11.2766    1.4193 H         2 RES2    0.0000
     56 C23        7.7266   10.3747    2.3535 C.ar      2 RES2    0.0000
     57 H18        8.2325   11.1422    2.4875 H         2 RES2    0.0000
     58 C24        8.1918    9.1784    2.7759 C.ar      2 RES2    0.0000
     59 H19        9.0198    9.1353    3.1959 H         2 RES2    0.0000
     60 C25        7.4662    8.0266    2.5961 C.ar      2 RES2    0.0000
     61 H20        7.8099    7.2172    2.9015 H         2 RES2    0.0000
     62 C26        5.4670    6.7506    1.8164 C.3       2 RES2    0.0000
     63 H21        4.8324    6.8075    1.0705 H         2 RES2    0.0000
     64 C27        4.7436    6.3919    3.1078 C.3       2 RES2    0.0000
     65 H22        5.3505    6.5043    3.8573 H         2 RES2    0.0000
     66 H23        3.9954    6.9955    3.2358 H         2 RES2    0.0000
     67 C28        4.2347    4.9567    3.0825 C.3       2 RES2    0.0000
     68 C29        3.0726    4.8230    2.0928 C.2       2 RES2    0.0000
     69 C30        2.7767    3.4696    1.5195 C.ar      2 RES2    0.0000
     70 C31        1.5910    3.2826    0.8280 C.ar      2 RES2    0.0000
     71 H24        1.0228    4.0010    0.6723 H         2 RES2    0.0000
     72 C32        1.2547    2.0107    0.3669 C.ar      2 RES2    0.0000
     73 H25        0.4681    1.8869   -0.1147 H         2 RES2    0.0000
     74 C33        2.0756    0.9461    0.6167 C.ar      2 RES2    0.0000
     75 H26        1.8305    0.0982    0.3247 H         2 RES2    0.0000
     76 C34        3.2509    1.1139    1.2926 C.ar      2 RES2    0.0000
     77 H27        3.8002    0.3822    1.4604 H         2 RES2    0.0000
     78 C35        3.6306    2.3886    1.7332 C.ar      2 RES2    0.0000
     79 C36        4.8989    2.5854    2.4199 C.2       2 RES2    0.0000
     80 C37        5.3676    4.0354    2.6637 C.3       2 RES2    0.0000
     81 C38        3.6919    4.5546    4.4668 C.3       2 RES2    0.0000
     82 H28        4.3852    4.6576    5.1234 H         2 RES2    0.0000
     83 H29        3.4054    3.6397    4.4439 H         2 RES2    0.0000
     84 H30        2.9486    5.1175    4.6950 H         2 RES2    0.0000
@<TRIPOS>BOND
     1    1    9 2
     2    2    9 2
     3    3    4 1
     4    4   26 1
     5    5   27 2
     6    6   38 2
     7    7    8 1
     8    9   19 1
     9   10   11 ar
    10   11   12 1
    11   13   11 ar
    12   14   13 1
    13   15   13 ar
    14   16   15 1
    15   17   15 ar
    16   18   17 1
    17   19   10 ar
    18   20    3 1
    19   21   20 1
    20   22   20 1
    21   23   22 1
    22   24   22 1
    23   25   22 1
    24   26    7 1
    25   27   26 1
    26   28   27 1
    27   29   28 ar
    28   30   29 1
    29   31   29 ar
    30   32   31 1
    31   33   31 ar
    32   34   33 1
    33   35   33 ar
    34   36   35 1
    35   37   28 ar
    36   38   25 1
    37   39   25 1
    38   40   39 1
    39   41   39 1
    40   42   39 1
    41   43   51 2
    42   44   51 2
    43   45   46 1
    44   46   80 1
    45   47   79 2
    46   48   68 2
    47   49   50 1
    48   51   53 1
    49   52   53 ar
    50   53   54 ar
    51   54   55 1
    52   56   54 ar
    53   57   56 1
    54   58   56 ar
    55   59   58 1
    56   60   52 ar
    57   61   60 1
    58   62   45 1
    59   63   62 1
    60   64   62 1
    61   65   64 1
    62   66   64 1
    63   67   64 1
    64   68   67 1
    65   69   68 1
    66   70   69 ar
    67   71   70 1
    68   72   70 ar
    69   73   72 1
    70   74   72 ar
    71   75   74 1
    72   76   74 ar
    73   77   76 1
    74   78   69 ar
    75   79   78 1
    76   80   49 1
    77   81   67 1
    78   82   81 1
    79   83   81 1
    80   84   81 1
    81   10   20 1
    82   17   19 ar
    83   25   26 1
    84   35   37 ar
    85   37   38 1
    86   52   62 1
    87   58   60 ar
    88   67   80 1
    89   76   78 ar
    90   79   80 1
@<TRIPOS>SUBSTRUCTURE
     1 RES1 1
     2 RES2 43

@<TRIPOS>CRYSIN
  11.7759   12.0137   13.2565 105.7810 107.5350  92.1390   2 1

