# MOL2 file generated by ConQuest
# Please check atom types

@<TRIPOS>MOLECULE
ICOYAA
   128   134     1
SMALL
NO_CHARGES
****
Generated from CSD

@<TRIPOS>ATOM
      1 O1        10.9136    8.4779    3.4588 O.3       1 RES1    0.0000
      2 O2         9.8132    5.4906    1.7482 O.3       1 RES1    0.0000
      3 O3         9.7023    5.6723   -1.0988 O.3       1 RES1    0.0000
      4 O4         8.9643    8.4417   -2.0638 O.3       1 RES1    0.0000
      5 O5         9.1788   10.6494   -0.1804 O.3       1 RES1    0.0000
      6 O6        11.2725   11.9866    2.4081 O.3       1 RES1    0.0000
      7 O7        10.4412   11.6185    5.3016 O.3       1 RES1    0.0000
      8 O8        12.2552   13.4020    6.8604 O.3       1 RES1    0.0000
      9 O9        13.9111   12.7196    9.2655 O.3       1 RES1    0.0000
     10 O10       16.5397   11.6732    8.6928 O.3       1 RES1    0.0000
     11 O11       17.0493   11.5580    5.8668 O.3       1 RES1    0.0000
     12 O12       14.0705   10.8351    4.0044 O.3       1 RES1    0.0000
     13 O13       14.1721    8.3172    8.7890 O.2       1 RES1    0.0000
     14 O14       12.1653    8.5528    9.5721 O.2       1 RES1    0.0000
     15 O15        5.1248    9.7193    2.6080 O.2       1 RES1    0.0000
     16 O16        5.3510   11.6371    1.6324 O.2       1 RES1    0.0000
     17 O17       14.3692   17.0700    4.3336 O.2       1 RES1    0.0000
     18 O18       12.5549   17.2679    5.4775 O.2       1 RES1    0.0000
     19 O19       13.4091    9.5837   -2.0939 O.2       1 RES1    0.0000
     20 O20       13.3239    7.5772   -1.2852 O.2       1 RES1    0.0000
     21 N1        12.9632    8.4692    8.6341 N.pl3     1 RES1    0.0000
     22 N2         5.7442   10.7616    2.4126 N.pl3     1 RES1    0.0000
     23 N3        13.2569   16.6645    4.6748 N.pl3     1 RES1    0.0000
     24 N4        13.4009    8.8011   -1.1334 N.pl3     1 RES1    0.0000
     25 C1        10.0416    7.3782    3.1386 C.3       1 RES1    0.0000
     26 H1         9.1943    7.7140    2.8064 H         1 RES1    0.0000
     27 H2         9.8705    6.8479    3.9323 H         1 RES1    0.0000
     28 C2        10.7082    6.5222    2.0789 C.3       1 RES1    0.0000
     29 H3        10.9100    7.0555    1.2942 H         1 RES1    0.0000
     30 H4        11.5370    6.1505    2.4201 H         1 RES1    0.0000
     31 C3        10.3746    4.5251    0.8733 C.3       1 RES1    0.0000
     32 H5         9.7210    3.8234    0.7290 H         1 RES1    0.0000
     33 H6        11.1427    4.1223    1.3092 H         1 RES1    0.0000
     34 C4        10.8078    5.0538   -0.4570 C.3       1 RES1    0.0000
     35 H7        11.5227    5.6989   -0.3382 H         1 RES1    0.0000
     36 H8        11.1423    4.3268   -1.0071 H         1 RES1    0.0000
     37 C5        10.0605    6.2576   -2.3479 C.3       1 RES1    0.0000
     38 H9        10.1762    5.5647   -3.0153 H         1 RES1    0.0000
     39 H10       10.8980    6.7385   -2.2592 H         1 RES1    0.0000
     40 C6         8.9672    7.2074   -2.7778 C.3       1 RES1    0.0000
     41 H11        9.0693    7.3943   -3.7248 H         1 RES1    0.0000
     42 H12        8.1084    6.7727   -2.6561 H         1 RES1    0.0000
     43 C7         8.5508    8.3408   -0.6899 C.3       1 RES1    0.0000
     44 H13        9.2831    8.0122   -0.1473 H         1 RES1    0.0000
     45 H14        7.8101    7.7204   -0.6118 H         1 RES1    0.0000
     46 C8         8.1332    9.6960   -0.2165 C.3       1 RES1    0.0000
     47 H15        7.4313   10.0265   -0.7997 H         1 RES1    0.0000
     48 H16        7.7588    9.6121    0.6749 H         1 RES1    0.0000
     49 C9        10.0226   10.6023    0.9620 C.3       1 RES1    0.0000
     50 H17       10.7473    9.9721    0.8237 H         1 RES1    0.0000
     51 H18        9.5189   10.3285    1.7452 H         1 RES1    0.0000
     52 C10       10.5627   11.9966    1.1439 C.3       1 RES1    0.0000
     53 H19       11.1621   12.2255    0.4179 H         1 RES1    0.0000
     54 H20        9.8380   12.6421    1.1649 H         1 RES1    0.0000
     55 C11       10.2960   12.0711    6.6695 C.3       1 RES1    0.0000
     56 H21        9.7582   11.4382    7.1716 H         1 RES1    0.0000
     57 H22        9.8501   12.9317    6.6875 H         1 RES1    0.0000
     58 C12       11.6522   12.1874    7.2843 C.3       1 RES1    0.0000
     59 H23       11.5770   12.1767    8.2523 H         1 RES1    0.0000
     60 H24       12.2011   11.4343    7.0152 H         1 RES1    0.0000
     61 C13       13.6655   13.4312    6.9807 C.3       1 RES1    0.0000
     62 H25       14.0083   14.0879    6.3538 H         1 RES1    0.0000
     63 H26       14.0101   12.5658    6.7086 H         1 RES1    0.0000
     64 C14       14.2140   13.7456    8.3230 C.3       1 RES1    0.0000
     65 H27       15.1765   13.8499    8.2614 H         1 RES1    0.0000
     66 H28       13.8424   14.5863    8.6341 H         1 RES1    0.0000
     67 C15       14.9189   12.5177   10.2560 C.3       1 RES1    0.0000
     68 H29       14.5028   12.3378   11.1128 H         1 RES1    0.0000
     69 H30       15.4566   13.3195   10.3432 H         1 RES1    0.0000
     70 C16       15.8082   11.3442    9.8622 C.3       1 RES1    0.0000
     71 H31       16.4225   11.1413   10.5867 H         1 RES1    0.0000
     72 H32       15.2632   10.5595    9.6984 H         1 RES1    0.0000
     73 C17       17.1314   10.5399    8.1125 C.3       1 RES1    0.0000
     74 H33       16.4464    9.8851    7.9081 H         1 RES1    0.0000
     75 H34       17.7511   10.1401    8.7439 H         1 RES1    0.0000
     76 C18       17.8655   10.9075    6.8544 C.3       1 RES1    0.0000
     77 H35       18.6032   11.4944    7.0829 H         1 RES1    0.0000
     78 H36       18.2407   10.1013    6.4651 H         1 RES1    0.0000
     79 C19       15.9742   10.7791    5.4264 C.3       1 RES1    0.0000
     80 H37       15.3533   10.6261    6.1554 H         1 RES1    0.0000
     81 H38       16.2937    9.9187    5.1107 H         1 RES1    0.0000
     82 C20       15.2916   11.5136    4.3141 C.3       1 RES1    0.0000
     83 H39       15.1043   12.4264    4.5846 H         1 RES1    0.0000
     84 H40       15.8640   11.5378    3.5309 H         1 RES1    0.0000
     85 C21       11.4110    8.5232    4.7425 C.ar      1 RES1    0.0000
     86 C22       12.7903    8.3495    4.9078 C.ar      1 RES1    0.0000
     87 C23       13.2974    8.3672    6.2035 C.ar      1 RES1    0.0000
     88 H41       14.2077    8.2551    6.3508 H         1 RES1    0.0000
     89 C24       12.4412    8.5509    7.2648 C.ar      1 RES1    0.0000
     90 C25       11.0748    8.7725    7.1069 C.ar      1 RES1    0.0000
     91 H42       10.5230    8.9097    7.8435 H         1 RES1    0.0000
     92 C26       10.5620    8.7821    5.8157 C.ar      1 RES1    0.0000
     93 C27        9.0713    9.0504    5.6398 C.3       1 RES1    0.0000
     94 H43        8.6608    8.2276    5.3302 H         1 RES1    0.0000
     95 H44        8.7023    9.2373    6.5177 H         1 RES1    0.0000
     96 C28        8.6224   10.1638    4.7079 C.ar      1 RES1    0.0000
     97 C29        9.2623   11.4032    4.6192 C.ar      1 RES1    0.0000
     98 C30        8.7657   12.4287    3.7925 C.ar      1 RES1    0.0000
     99 C31        7.6065   12.2033    3.0725 C.ar      1 RES1    0.0000
    100 H45        7.2535   12.8719    2.5298 H         1 RES1    0.0000
    101 C32        6.9767   10.9805    3.1626 C.ar      1 RES1    0.0000
    102 C33        7.4627    9.9458    3.9623 C.ar      1 RES1    0.0000
    103 H46        7.0235    9.1274    3.9984 H         1 RES1    0.0000
    104 C34        9.3672   13.8224    3.7534 C.3       1 RES1    0.0000
    105 H47        8.9543   14.2901    3.0108 H         1 RES1    0.0000
    106 H48        9.0853   14.2780    4.5636 H         1 RES1    0.0000
    107 C35       10.8615   14.0197    3.6301 C.ar      1 RES1    0.0000
    108 C36       11.7294   13.1786    2.8876 C.ar      1 RES1    0.0000
    109 C37       13.0759   13.5146    2.7177 C.ar      1 RES1    0.0000
    110 C38       13.5725   14.6505    3.3235 C.ar      1 RES1    0.0000
    111 H49       14.4721   14.8688    3.2423 H         1 RES1    0.0000
    112 C39       12.7073   15.4752    4.0660 C.ar      1 RES1    0.0000
    113 C40       11.3856   15.1511    4.2073 C.ar      1 RES1    0.0000
    114 H50       10.8306   15.7081    4.7049 H         1 RES1    0.0000
    115 C41       13.9844   12.7641    1.7707 C.3       1 RES1    0.0000
    116 H51       14.8986   12.9448    2.0383 H         1 RES1    0.0000
    117 H52       13.8672   13.1497    0.8884 H         1 RES1    0.0000
    118 C42       13.8405   11.2544    1.6324 C.ar      1 RES1    0.0000
    119 C43       13.8827   10.3772    2.7282 C.ar      1 RES1    0.0000
    120 C44       13.6818    8.9906    2.5719 C.ar      1 RES1    0.0000
    121 C45       13.5066    8.4743    1.2987 C.ar      1 RES1    0.0000
    122 H53       13.3775    7.5626    1.1710 H         1 RES1    0.0000
    123 C46       13.5273    9.3511    0.2014 C.ar      1 RES1    0.0000
    124 C47       13.6675   10.7245    0.3668 C.ar      1 RES1    0.0000
    125 H54       13.6445   11.2870   -0.3728 H         1 RES1    0.0000
    126 C48       13.7228    8.0453    3.7594 C.3       1 RES1    0.0000
    127 H55       13.5242    7.1514    3.4392 H         1 RES1    0.0000
    128 H56       14.6299    8.0331    4.1036 H         1 RES1    0.0000
@<TRIPOS>BOND
     1    1   25 1
     2    2   28 1
     3    3   34 1
     4    4   40 1
     5    5   46 1
     6    6   52 1
     7    7   55 1
     8    8   58 1
     9    9   64 1
    10   10   70 1
    11   11   76 1
    12   12   82 1
    13   13   21 2
    14   14   21 2
    15   15   22 2
    16   16   22 2
    17   17   23 2
    18   18   23 2
    19   19   24 2
    20   20   24 2
    21   21   89 1
    22   22  101 1
    23   23  112 1
    24   24  123 1
    25   25   26 1
    26   27   25 1
    27   28   25 1
    28   29   28 1
    29   30   28 1
    30   31    2 1
    31   32   31 1
    32   33   31 1
    33   34   31 1
    34   35   34 1
    35   36   34 1
    36   37    3 1
    37   38   37 1
    38   39   37 1
    39   40   37 1
    40   41   40 1
    41   42   40 1
    42   43    4 1
    43   44   43 1
    44   45   43 1
    45   46   43 1
    46   47   46 1
    47   48   46 1
    48   49    5 1
    49   50   49 1
    50   51   49 1
    51   52   49 1
    52   53   52 1
    53   54   52 1
    54   55   56 1
    55   57   55 1
    56   58   55 1
    57   59   58 1
    58   60   58 1
    59   61    8 1
    60   62   61 1
    61   63   61 1
    62   64   61 1
    63   65   64 1
    64   66   64 1
    65   67    9 1
    66   68   67 1
    67   69   67 1
    68   70   67 1
    69   71   70 1
    70   72   70 1
    71   73   10 1
    72   74   73 1
    73   75   73 1
    74   76   73 1
    75   77   76 1
    76   78   76 1
    77   79   11 1
    78   80   79 1
    79   81   79 1
    80   82   79 1
    81   83   82 1
    82   84   82 1
    83   85    1 1
    84   86   85 ar
    85   87   86 ar
    86   88   87 1
    87   89   87 ar
    88   90   89 ar
    89   91   90 1
    90   92   85 ar
    91   93   92 1
    92   94   93 1
    93   95   93 1
    94   96   93 1
    95   97    7 1
    96   98   97 ar
    97   99   98 ar
    98  100   99 1
    99  101   99 ar
   100  102   96 ar
   101  103  102 1
   102  104   98 1
   103  105  104 1
   104  106  104 1
   105  107  104 1
   106  108    6 1
   107  109  108 ar
   108  110  109 ar
   109  111  110 1
   110  112  110 ar
   111  113  107 ar
   112  114  113 1
   113  115  109 1
   114  116  115 1
   115  117  115 1
   116  118  115 1
   117  119   12 1
   118  120  119 ar
   119  121  120 ar
   120  122  121 1
   121  123  121 ar
   122  124  118 ar
   123  125  124 1
   124  126   86 1
   125  127  126 1
   126  128  126 1
   127   90   92 ar
   128   96   97 ar
   129  101  102 ar
   130  107  108 ar
   131  112  113 ar
   132  118  119 ar
   133  120  126 1
   134  123  124 ar
@<TRIPOS>SUBSTRUCTURE
     1 RES1 1

@<TRIPOS>CRYSIN
  12.3805   12.8377   15.6828  76.5200  77.8880  77.8020   2 1

