# MOL2 file generated by ConQuest
# Please check atom types

@<TRIPOS>MOLECULE
ICUFIX
    24    24     1
SMALL
NO_CHARGES
****
Generated from CSD

@<TRIPOS>ATOM
      1 O1        -1.0024    6.6888    0.7257 O.2       1 RES1    0.0000
      2 O2         1.1555    7.5221   -1.4533 O.3       1 RES1    0.0000
      3 O3        -0.2748    9.2234   -1.4162 O.2       1 RES1    0.0000
      4 O4        -0.6802    7.4360   -2.5680 O.2       1 RES1    0.0000
      5 N1         1.0420    4.2379    2.2422 N.ar      1 RES1    0.0000
      6 N2         1.1764    6.7616    1.3163 N.am      1 RES1    0.0000
      7 H1         1.8345    6.3266    1.6588 H         1 RES1    0.0000
      8 N3        -0.0336    8.1238   -1.8319 N.pl3     1 RES1    0.0000
      9 C1        -0.0231    4.6955    1.5888 C.ar      1 RES1    0.0000
     10 C2         1.0283    2.9432    2.5839 C.ar      1 RES1    0.0000
     11 H2         1.7574    2.6052    3.0526 H         1 RES1    0.0000
     12 C3        -0.0011    2.0851    2.2820 C.ar      1 RES1    0.0000
     13 H3         0.0363    1.1910    2.5339 H         1 RES1    0.0000
     14 C4        -1.0872    2.5764    1.5995 C.ar      1 RES1    0.0000
     15 H4        -1.7982    2.0199    1.3773 H         1 RES1    0.0000
     16 C5        -1.1032    3.9095    1.2498 C.ar      1 RES1    0.0000
     17 H5        -1.8285    4.2713    0.7939 H         1 RES1    0.0000
     18 C6        -0.0011    6.1450    1.1746 C.2       1 RES1    0.0000
     19 C7         1.3818    8.1362    0.9121 C.3       1 RES1    0.0000
     20 H6         1.9926    8.5616    1.5333 H         1 RES1    0.0000
     21 H7         0.5359    8.6092    0.9562 H         1 RES1    0.0000
     22 C8         1.9386    8.2527   -0.4827 C.3       1 RES1    0.0000
     23 H8         1.9656    9.1891   -0.7368 H         1 RES1    0.0000
     24 H9         2.8479    7.9164   -0.4908 H         1 RES1    0.0000
@<TRIPOS>BOND
     1    1   18 2
     2    2    8 1
     3    3    8 2
     4    4    8 2
     5    5    9 ar
     6    6    7 1
     7    9   16 ar
     8   10    5 ar
     9   11   10 1
    10   12   10 ar
    11   13   12 1
    12   14   12 ar
    13   15   14 1
    14   16   14 ar
    15   17   16 1
    16   18    6 1
    17   19    6 1
    18   20   19 1
    19   21   19 1
    20   22    2 1
    21   23   22 1
    22   24   22 1
    23    9   18 1
    24   19   22 1
@<TRIPOS>SUBSTRUCTURE
     1 RES1 1

@<TRIPOS>CRYSIN
   5.5075   13.6114   12.6822  90.0000  90.0000  90.0000  19 1

