# MOL2 file generated by ConQuest
# Please check atom types

@<TRIPOS>MOLECULE
ICUJOH
    36    38     2
SMALL
NO_CHARGES
****
Generated from CSD

@<TRIPOS>ATOM
      1 C1         4.1562    5.0089   13.6472 C.ar      1 RES1    0.0000
      2 C2         5.3782    5.6365   13.4253 C.ar      1 RES1    0.0000
      3 C3         6.3499    5.6585   14.3911 C.ar      1 RES1    0.0000
      4 C4         6.1110    5.0770   15.6158 C.ar      1 RES1    0.0000
      5 C5         4.9187    4.4779   15.8681 C.ar      1 RES1    0.0000
      6 C6         3.9187    4.4122   14.8936 C.ar      1 RES1    0.0000
      7 C7         3.2050    5.3214   11.5351 C.2       1 RES1    0.0000
      8 C8         2.1367    5.1709   10.5388 C.ar      1 RES1    0.0000
      9 C9         2.3065    5.6180    9.2490 C.ar      1 RES1    0.0000
     10 C10        1.3311    5.4636    8.2940 C.ar      1 RES1    0.0000
     11 C11        0.1734    4.8688    8.6442 C.ar      1 RES1    0.0000
     12 C12       -0.0398    4.4228    9.9102 C.ar      1 RES1    0.0000
     13 C13        0.9529    4.5722   10.8586 C.ar      1 RES1    0.0000
     14 N1        -0.8749    4.6836    7.6371 N.pl3     1 RES1    0.0000
     15 N2         3.1169    4.8847   12.7010 N.2       1 RES1    0.0000
     16 N3         2.7178    3.8261   15.1524 N.pl3     1 RES1    0.0000
     17 O1        -1.9087    4.1610    7.9765 O.2       1 RES1    0.0000
     18 O2        -0.6582    5.0315    6.5017 O.2       1 RES1    0.0000
     19 C14        1.9026    6.8892    4.8398 C.ar      2 RES2    0.0000
     20 C15        3.0376    6.1156    4.8681 C.ar      2 RES2    0.0000
     21 C16        3.1097    4.9323    4.1351 C.ar      2 RES2    0.0000
     22 C17        2.0102    4.5543    3.3650 C.ar      2 RES2    0.0000
     23 C18        0.8620    5.3351    3.3672 C.ar      2 RES2    0.0000
     24 C19        0.8073    6.5032    4.1003 C.ar      2 RES2    0.0000
     25 C20        1.6927    3.2885    1.4552 C.2       2 RES2    0.0000
     26 C21        1.6900    2.0606    0.6547 C.ar      2 RES2    0.0000
     27 C22        1.8353    0.8148    1.2529 C.ar      2 RES2    0.0000
     28 C23        1.8046   -0.3321    0.5003 C.ar      2 RES2    0.0000
     29 C24        1.6336   -0.2241   -0.8636 C.ar      2 RES2    0.0000
     30 C25        1.5042    0.9966   -1.4965 C.ar      2 RES2    0.0000
     31 C26        1.5197    2.1316   -0.7243 C.ar      2 RES2    0.0000
     32 N4         1.5885   -1.4421   -1.6706 N.pl3     2 RES2    0.0000
     33 N5         2.1011    3.3274    2.6537 N.2       2 RES2    0.0000
     34 N6         4.2621    4.1792    4.1242 N.pl3     2 RES2    0.0000
     35 O3         1.4790   -1.3396   -2.8713 O.2       2 RES2    0.0000
     36 O4         1.6456   -2.5234   -1.1072 O.2       2 RES2    0.0000
@<TRIPOS>BOND
     1    1    2 ar
     2    2    3 ar
     3    3    4 ar
     4    4    5 ar
     5    5    6 ar
     6    6    1 ar
     7    7    8 1
     8    8    9 ar
     9    9   10 ar
    10   10   11 ar
    11   11   12 ar
    12   12   13 ar
    13   13    8 ar
    14   14   11 1
    15   15    1 1
    16   16    6 1
    17   17   14 2
    18   18   14 2
    19   19   20 ar
    20   20   21 ar
    21   21   22 ar
    22   22   23 ar
    23   23   24 ar
    24   24   19 ar
    25   25   26 1
    26   26   27 ar
    27   27   28 ar
    28   28   29 ar
    29   29   30 ar
    30   30   31 ar
    31   31   26 ar
    32   32   29 1
    33   33   22 1
    34   34   21 1
    35   35   32 2
    36   36   32 2
    37    7   15 2
    38   25   33 2
@<TRIPOS>SUBSTRUCTURE
     1 RES1 1
     2 RES2 19

@<TRIPOS>CRYSIN
   6.8334    7.9754   21.8320  94.1640  92.1220  96.2470   2 1

