# MOL2 file generated by ConQuest
# Please check atom types

@<TRIPOS>MOLECULE
ICUSUX
    46    49     1
SMALL
NO_CHARGES
****
Generated from CSD

@<TRIPOS>ATOM
      1 N1         0.0054   -1.9366    9.8646 N.3       1 RES1    0.0000
      2 N2         3.3068   -2.4633   13.6504 N.pl3     1 RES1    0.0000
      3 N3         0.8276    0.1237   13.6888 N.2       1 RES1    0.0000
      4 N4         0.2908   -0.8369   12.8774 N.pl3     1 RES1    0.0000
      5 H1        -0.4741   -0.7517   12.4940 H         1 RES1    0.0000
      6 C1         0.5197   -1.0920    8.8421 C.ar      1 RES1    0.0000
      7 C2         1.6445   -1.3929    8.0848 C.ar      1 RES1    0.0000
      8 H2         2.0653   -2.2150    8.1913 H         1 RES1    0.0000
      9 C3         2.1446   -0.4793    7.1736 C.ar      1 RES1    0.0000
     10 H3         2.9096   -0.6874    6.6867 H         1 RES1    0.0000
     11 C4         1.5236    0.7343    6.9787 C.ar      1 RES1    0.0000
     12 H4         1.8622    1.3453    6.3643 H         1 RES1    0.0000
     13 C5         0.3953    1.0291    7.7058 C.ar      1 RES1    0.0000
     14 H5        -0.0337    1.8437    7.5763 H         1 RES1    0.0000
     15 C6        -0.1081    0.1368    8.6222 C.ar      1 RES1    0.0000
     16 H6        -0.8750    0.3539    9.1016 H         1 RES1    0.0000
     17 C7        -1.3390   -2.4770    9.5956 C.3       1 RES1    0.0000
     18 H7        -1.9152   -1.7622    9.2821 H         1 RES1    0.0000
     19 H8        -1.7153   -2.8261   10.4194 H         1 RES1    0.0000
     20 C8        -1.2994   -3.5796    8.5570 C.3       1 RES1    0.0000
     21 H9        -2.1711   -4.0008    8.5034 H         1 RES1    0.0000
     22 H10       -1.0989   -3.1956    7.6898 H         1 RES1    0.0000
     23 C9        -0.2587   -4.6253    8.8926 C.ar      1 RES1    0.0000
     24 C10       -0.3297   -5.9158    8.3644 C.ar      1 RES1    0.0000
     25 H11       -1.0384   -6.1375    7.8045 H         1 RES1    0.0000
     26 C11        0.6156   -6.8628    8.6487 C.ar      1 RES1    0.0000
     27 H12        0.5447   -7.7145    8.2829 H         1 RES1    0.0000
     28 C12        1.6719   -6.5556    9.4761 C.ar      1 RES1    0.0000
     29 H13        2.3216   -7.1942    9.6638 H         1 RES1    0.0000
     30 C13        1.7600   -5.2924   10.0255 C.ar      1 RES1    0.0000
     31 H14        2.4688   -5.0869   10.5909 H         1 RES1    0.0000
     32 C14        0.7972   -4.3168    9.7437 C.ar      1 RES1    0.0000
     33 C15        0.9003   -2.9571   10.4155 C.3       1 RES1    0.0000
     34 H15        1.8198   -2.6380   10.3007 H         1 RES1    0.0000
     35 C16        0.6390   -3.0978   11.9314 C.3       1 RES1    0.0000
     36 H16       -0.3081   -3.2511   12.0710 H         1 RES1    0.0000
     37 H17        1.1143   -3.8774   12.2580 H         1 RES1    0.0000
     38 C17        1.0558   -1.9135   12.7334 C.2       1 RES1    0.0000
     39 C18        2.1722   -1.6342   13.5064 C.2       1 RES1    0.0000
     40 C19        1.9856   -0.3654   14.0951 C.2       1 RES1    0.0000
     41 C20        2.8373    0.4114   15.0270 C.3       1 RES1    0.0000
     42 H18        2.4995    1.3069   15.0985 H         1 RES1    0.0000
     43 H19        3.7378    0.4348   14.6936 H         1 RES1    0.0000
     44 H20        2.8270   -0.0038   15.8927 H         1 RES1    0.0000
     45 O1         4.1524   -2.1554   14.4727 O.2       1 RES1    0.0000
     46 O2         3.4229   -3.4362   12.9084 O.2       1 RES1    0.0000
@<TRIPOS>BOND
     1    1    6 1
     2    2   39 1
     3    3    4 1
     4    4    5 1
     5    6    7 ar
     6    7    8 1
     7    9    7 ar
     8   10    9 1
     9   11    9 ar
    10   12   11 1
    11   13   11 ar
    12   14   13 1
    13   15    6 ar
    14   16   15 1
    15   17    1 1
    16   18   17 1
    17   19   17 1
    18   20   17 1
    19   21   20 1
    20   22   20 1
    21   23   20 1
    22   24   23 ar
    23   25   24 1
    24   26   24 ar
    25   27   26 1
    26   28   26 ar
    27   29   28 1
    28   30   28 ar
    29   31   30 1
    30   32   23 ar
    31   33    1 1
    32   34   33 1
    33   35   33 1
    34   36   35 1
    35   37   35 1
    36   38    4 1
    37   39   38 2
    38   40    3 2
    39   41   40 1
    40   42   41 1
    41   43   41 1
    42   44   41 1
    43   45    2 2
    44   46    2 2
    45   13   15 ar
    46   30   32 ar
    47   32   33 1
    48   35   38 1
    49   39   40 1
@<TRIPOS>SUBSTRUCTURE
     1 RES1 1

@<TRIPOS>CRYSIN
   6.3993   11.0228   13.8844 106.3760  98.6890 106.5050   2 1

