# MOL2 file generated by ConQuest
# Please check atom types

@<TRIPOS>MOLECULE
ICUSOR
    37    40     1
SMALL
NO_CHARGES
****
Generated from CSD

@<TRIPOS>ATOM
      1 O1         3.9179   -0.0580    1.5917 O.3       1 RES1    0.0000
      2 N1         1.2271    2.3817    1.2167 N.am      1 RES1    0.0000
      3 O2        -0.6387    1.0364    1.1207 O.2       1 RES1    0.0000
      4 O3         4.0347    0.6961    5.9562 O.2       1 RES1    0.0000
      5 O4         2.6178    4.1902    1.4924 O.2       1 RES1    0.0000
      6 N2         4.4775   -0.5715    2.7743 N.2       1 RES1    0.0000
      7 C1        -0.7839    3.4030    1.6568 C.ar      1 RES1    0.0000
      8 C2         0.2053    4.3562    1.7862 C.ar      1 RES1    0.0000
      9 C3         3.8283    0.0191    3.7407 C.2       1 RES1    0.0000
     10 C4        -0.1380    2.1169    1.2989 C.2       1 RES1    0.0000
     11 C5         1.5112    3.7154    1.4957 C.2       1 RES1    0.0000
     12 C6         2.9411    0.8166    1.9235 C.2       1 RES1    0.0000
     13 C7         2.8496    0.9106    3.2537 C.2       1 RES1    0.0000
     14 H1         2.2701    1.4436    3.7484 H         1 RES1    0.0000
     15 C8         4.7846   -1.5137    5.5858 C.ar      1 RES1    0.0000
     16 C9        -2.1101    3.7158    1.8492 C.ar      1 RES1    0.0000
     17 H2        -2.7736    3.0698    1.7689 H         1 RES1    0.0000
     18 C10        2.2284    1.4284    0.7653 C.3       1 RES1    0.0000
     19 H3         2.8695    1.8791    0.1927 H         1 RES1    0.0000
     20 H4         1.7997    0.7312    0.2448 H         1 RES1    0.0000
     21 C11       -1.4398    5.9767    2.2911 C.ar      1 RES1    0.0000
     22 H5        -1.6755    6.8508    2.5044 H         1 RES1    0.0000
     23 C12        5.6491   -1.5261    6.6736 C.ar      1 RES1    0.0000
     24 H6         5.8690   -0.7289    7.0982 H         1 RES1    0.0000
     25 C13        4.2074   -0.2120    5.1695 C.2       1 RES1    0.0000
     26 C14        4.4514   -2.7046    4.9769 C.ar      1 RES1    0.0000
     27 H7         3.8824   -2.7112    4.2414 H         1 RES1    0.0000
     28 C15       -0.1012    5.6574    2.1056 C.ar      1 RES1    0.0000
     29 H8         0.5639    6.3011    2.1946 H         1 RES1    0.0000
     30 C16       -2.4218    5.0253    2.1652 C.ar      1 RES1    0.0000
     31 H9        -3.3105    5.2652    2.2939 H         1 RES1    0.0000
     32 C17        5.8295   -3.8930    6.5401 C.ar      1 RES1    0.0000
     33 H10        6.1715   -4.6938    6.8665 H         1 RES1    0.0000
     34 C18        6.1789   -2.7092    7.1255 C.ar      1 RES1    0.0000
     35 H11        6.7802   -2.7045    7.8349 H         1 RES1    0.0000
     36 C19        4.9713   -3.8967    5.4700 C.ar      1 RES1    0.0000
     37 H12        4.7354   -4.7025    5.0703 H         1 RES1    0.0000
@<TRIPOS>BOND
     1    1    6 1
     2    2   10 1
     3    3   10 2
     4    4   25 2
     5    5   11 2
     6    6    9 2
     7    7    8 ar
     8    8   11 1
     9    9   13 1
    10   10    7 1
    11   11    2 1
    12   12    1 1
    13   13   12 2
    14   14   13 1
    15   15   23 ar
    16   16    7 ar
    17   17   16 1
    18   18    2 1
    19   19   18 1
    20   20   18 1
    21   21   22 1
    22   23   24 1
    23   25    9 1
    24   26   15 ar
    25   27   26 1
    26   28    8 ar
    27   29   28 1
    28   30   16 ar
    29   31   30 1
    30   32   33 1
    31   34   23 ar
    32   35   34 1
    33   36   26 ar
    34   37   36 1
    35   12   18 1
    36   15   25 1
    37   21   28 ar
    38   21   30 ar
    39   32   34 ar
    40   32   36 ar
@<TRIPOS>SUBSTRUCTURE
     1 RES1 1

@<TRIPOS>CRYSIN
   8.0660    8.2420   12.1570  92.7270 102.6040  98.2330   2 1

