# MOL2 file generated by ConQuest
# Please check atom types

@<TRIPOS>MOLECULE
ICUWUB
    45    46     1
SMALL
NO_CHARGES
****
Generated from CSD

@<TRIPOS>ATOM
      1 C1         1.3169    5.9001    7.0478 C.ar      1 RES1    0.0000
      2 H1         1.6424    5.9589    6.1571 H         1 RES1    0.0000
      3 C2         0.0799    6.4097    7.3694 C.ar      1 RES1    0.0000
      4 H2        -0.4581    6.7872    6.6833 H         1 RES1    0.0000
      5 C3        -0.3984    6.3857    8.6675 C.ar      1 RES1    0.0000
      6 H3        -1.2533    6.7458    8.8702 H         1 RES1    0.0000
      7 C4         0.3918    5.8246    9.6732 C.ar      1 RES1    0.0000
      8 C5        -1.1118    6.3320   11.5735 C.2       1 RES1    0.0000
      9 H4        -1.7238    6.7712   10.9946 H         1 RES1    0.0000
     10 C6        -1.4177    6.2790   12.9047 C.2       1 RES1    0.0000
     11 H5        -2.2298    6.6732   13.2010 H         1 RES1    0.0000
     12 C7        -0.5749    5.6620   13.8617 C.2       1 RES1    0.0000
     13 C8        -0.9053    5.7194   15.3703 C.3       1 RES1    0.0000
     14 C9        -2.8723    6.0112   16.8749 C.ar      1 RES1    0.0000
     15 C10       -3.0595    4.8824   17.6818 C.ar      1 RES1    0.0000
     16 H6        -2.8502    4.0179   17.3466 H         1 RES1    0.0000
     17 C11       -3.5520    5.0290   18.9741 C.ar      1 RES1    0.0000
     18 H7        -3.6918    4.2654   19.5218 H         1 RES1    0.0000
     19 C12       -3.8377    6.2936   19.4594 C.ar      1 RES1    0.0000
     20 H8        -4.1619    6.3988   20.3443 H         1 RES1    0.0000
     21 C13       -3.6542    7.3911   18.6642 C.ar      1 RES1    0.0000
     22 H9        -3.8538    8.2528   19.0092 H         1 RES1    0.0000
     23 C14       -3.1794    7.2742   17.3544 C.ar      1 RES1    0.0000
     24 C15       -3.0840    8.5068   16.4968 C.3       1 RES1    0.0000
     25 H10       -3.1357    8.2528   15.5515 H         1 RES1    0.0000
     26 H11       -2.2314    8.9583   16.6683 H         1 RES1    0.0000
     27 H12       -3.8233    9.1129   16.7132 H         1 RES1    0.0000
     28 C16       -0.2592    7.0107   15.8790 C.3       1 RES1    0.0000
     29 H13       -0.4249    7.1015   16.8418 H         1 RES1    0.0000
     30 H14       -0.6461    7.7773   15.4073 H         1 RES1    0.0000
     31 H15        0.7066    6.9788   15.7152 H         1 RES1    0.0000
     32 C17       -0.3521    4.4970   16.0914 C.3       1 RES1    0.0000
     33 H16       -0.8277    3.6956   15.7893 H         1 RES1    0.0000
     34 H17       -0.4752    4.6044   17.0581 H         1 RES1    0.0000
     35 H18        0.6032    4.4048   15.8926 H         1 RES1    0.0000
     36 C18        1.6302    5.2657    9.3496 C.ar      1 RES1    0.0000
     37 H19        2.1627    4.8621   10.0259 H         1 RES1    0.0000
     38 C19        2.0820    5.3020    8.0321 C.ar      1 RES1    0.0000
     39 H20        2.9202    4.9136    7.8079 H         1 RES1    0.0000
     40 N1         0.0001    5.8014   11.0297 N.pl3     1 RES1    0.0000
     41 H21        0.5469    5.3913   11.5832 H         1 RES1    0.0000
     42 N2        -2.3995    5.8595   15.4970 N.3       1 RES1    0.0000
     43 O1         0.5328    5.1386   13.5438 O.2       1 RES1    0.0000
     44 O2        -2.9400    4.6058   14.9732 O.3       1 RES1    0.0000
     45 H22       -3.5878    4.7706   14.4640 H         1 RES1    0.0000
@<TRIPOS>BOND
     1    1    2 1
     2    3    1 ar
     3    4    3 1
     4    5    3 ar
     5    6    5 1
     6    7    5 ar
     7    8    9 1
     8   10    8 2
     9   11   10 1
    10   12   10 1
    11   13   12 1
    12   14   15 ar
    13   15   16 1
    14   17   15 ar
    15   18   17 1
    16   19   17 ar
    17   20   19 1
    18   21   19 ar
    19   22   21 1
    20   23   14 ar
    21   24   23 1
    22   25   24 1
    23   26   24 1
    24   27   24 1
    25   28   13 1
    26   29   28 1
    27   30   28 1
    28   31   28 1
    29   32   13 1
    30   33   32 1
    31   34   32 1
    32   35   32 1
    33   36    7 ar
    34   37   36 1
    35   38    1 ar
    36   39   38 1
    37   40    7 1
    38   41   40 1
    39   42   13 1
    40   43   12 2
    41   44   42 1
    42   45   44 1
    43    8   40 1
    44   14   42 1
    45   21   23 ar
    46   36   38 ar
@<TRIPOS>SUBSTRUCTURE
     1 RES1 1

@<TRIPOS>CRYSIN
   5.9705    7.2590   19.6110  90.0000  96.3530  90.0000   4 1

