# MOL2 file generated by ConQuest
# Please check atom types

@<TRIPOS>MOLECULE
IDEDUQ
    57    59     1
SMALL
NO_CHARGES
****
Generated from CSD

@<TRIPOS>ATOM
      1 C1         7.0462    3.1196    3.4448 C.ar      1 RES1    0.0000
      2 C2         7.1007    2.1386    2.4941 C.ar      1 RES1    0.0000
      3 C3         6.1298    2.1478    1.5158 C.ar      1 RES1    0.0000
      4 C4         5.1430    3.1166    1.4607 C.ar      1 RES1    0.0000
      5 C5         5.1114    4.0884    2.4568 C.ar      1 RES1    0.0000
      6 C6         6.0664    4.0915    3.4681 C.ar      1 RES1    0.0000
      7 N1         8.0461    3.1272    4.4997 N.pl3     1 RES1    0.0000
      8 O1         7.9186    3.9117    5.4131 O.2       1 RES1    0.0000
      9 O2         8.9748    2.3199    4.4280 O.2       1 RES1    0.0000
     10 N2         6.1922    1.1226    0.4775 N.pl3     1 RES1    0.0000
     11 O3         6.9178    0.1401    0.6734 O.2       1 RES1    0.0000
     12 O4         5.5027    1.2506   -0.5204 O.2       1 RES1    0.0000
     13 C7         4.1352    5.2065    2.4427 C.2       1 RES1    0.0000
     14 O5         4.0551    6.0336    3.3040 O.2       1 RES1    0.0000
     15 O6         3.3709    5.1928    1.3383 O.3       1 RES1    0.0000
     16 C8         2.5029    6.3702    1.1001 C.3       1 RES1    0.0000
     17 C9         1.2937    5.9209    0.2663 C.3       1 RES1    0.0000
     18 C10        0.4951    7.1913   -0.0349 C.3       1 RES1    0.0000
     19 C11        1.3368    8.2560   -0.7499 C.3       1 RES1    0.0000
     20 C12        2.5583    8.6566    0.0551 C.3       1 RES1    0.0000
     21 C13        3.3604    7.4106    0.3955 C.3       1 RES1    0.0000
     22 C14        0.4432    4.7861    0.9379 C.3       1 RES1    0.0000
     23 C15        0.1680    5.1197    2.4035 C.3       1 RES1    0.0000
     24 C16       -0.9305    4.6642    0.2326 C.3       1 RES1    0.0000
     25 C17        1.1248    3.4197    0.7842 C.ar      1 RES1    0.0000
     26 C18        1.1266    2.4753    1.7968 C.ar      1 RES1    0.0000
     27 C19        1.6305    1.1851    1.5856 C.ar      1 RES1    0.0000
     28 C20        2.1177    0.8347    0.3918 C.ar      1 RES1    0.0000
     29 C21        2.1432    1.7380   -0.6293 C.ar      1 RES1    0.0000
     30 C22        1.6604    3.0039   -0.4224 C.ar      1 RES1    0.0000
     31 C23        2.2232    9.4685    1.2942 C.3       1 RES1    0.0000
     32 H1         7.7673    1.4897    2.5070 H         1 RES1    0.0000
     33 H2         4.5160    3.1181    0.7744 H         1 RES1    0.0000
     34 H3         6.0453    4.7312    4.1428 H         1 RES1    0.0000
     35 H4         2.1951    6.7267    1.9584 H         1 RES1    0.0000
     36 H5         1.6314    5.5736   -0.5853 H         1 RES1    0.0000
     37 H6         0.1574    7.5599    0.7965 H         1 RES1    0.0000
     38 H7        -0.2674    6.9643   -0.5902 H         1 RES1    0.0000
     39 H8         1.6217    7.9118   -1.6107 H         1 RES1    0.0000
     40 H9         0.7889    9.0405   -0.9097 H         1 RES1    0.0000
     41 H10        3.1185    9.2187   -0.5210 H         1 RES1    0.0000
     42 H11        4.1035    7.6559    0.9679 H         1 RES1    0.0000
     43 H12        3.7227    7.0298   -0.4200 H         1 RES1    0.0000
     44 H13       -0.4775    4.5043    2.7561 H         1 RES1    0.0000
     45 H14       -0.1733    6.0153    2.4696 H         1 RES1    0.0000
     46 H15        0.9832    5.0511    2.9049 H         1 RES1    0.0000
     47 H16       -0.7985    4.5911   -0.7157 H         1 RES1    0.0000
     48 H17       -1.4599    5.4441    0.4224 H         1 RES1    0.0000
     49 H18       -1.3869    3.8828    0.5534 H         1 RES1    0.0000
     50 H19        0.7889    2.7007    2.6337 H         1 RES1    0.0000
     51 H20        1.6252    0.5666    2.2780 H         1 RES1    0.0000
     52 H21        2.4414   -0.0274    0.2590 H         1 RES1    0.0000
     53 H22        2.4862    1.4974   -1.4595 H         1 RES1    0.0000
     54 H23        1.6912    3.6116   -1.1258 H         1 RES1    0.0000
     55 H24        1.7835   10.2820    1.0346 H         1 RES1    0.0000
     56 H25        3.0315    9.6772    1.7680 H         1 RES1    0.0000
     57 H26        1.6419    8.9582    1.8623 H         1 RES1    0.0000
@<TRIPOS>BOND
     1    1    2 ar
     2    2    3 ar
     3    3    4 ar
     4    4    5 ar
     5    5    6 ar
     6    6    1 ar
     7    7    1 1
     8    8    7 2
     9    9    7 2
    10   10    3 1
    11   11   10 2
    12   12   10 2
    13   13    5 1
    14   14   13 2
    15   15   13 1
    16   16   15 1
    17   17   16 1
    18   18   17 1
    19   19   18 1
    20   20   19 1
    21   21   16 1
    22   22   17 1
    23   23   22 1
    24   24   22 1
    25   25   22 1
    26   26   25 ar
    27   27   26 ar
    28   28   27 ar
    29   29   28 ar
    30   30   25 ar
    31   31   20 1
    32   32    2 1
    33   33    4 1
    34   34    6 1
    35   35   16 1
    36   36   17 1
    37   37   18 1
    38   38   18 1
    39   39   19 1
    40   40   19 1
    41   41   20 1
    42   42   21 1
    43   43   21 1
    44   44   23 1
    45   45   23 1
    46   46   23 1
    47   47   24 1
    48   48   24 1
    49   49   24 1
    50   50   26 1
    51   51   27 1
    52   52   28 1
    53   53   29 1
    54   54   30 1
    55   55   31 1
    56   56   31 1
    57   57   31 1
    58   20   21 1
    59   29   30 ar
@<TRIPOS>SUBSTRUCTURE
     1 RES1 1

@<TRIPOS>CRYSIN
  17.5890   17.5890    6.1220  90.0000  90.0000 120.0000 145 1

