# MOL2 file generated by ConQuest
# Please check atom types

@<TRIPOS>MOLECULE
IDEFAY
    57    59     1
SMALL
NO_CHARGES
****
Generated from CSD

@<TRIPOS>ATOM
      1 C1         1.6297   -2.8671   11.3191 C.3       1 RES1    0.0000
      2 C2         2.9002   -3.6817   11.5507 C.3       1 RES1    0.0000
      3 C3         2.5314   -5.1243   11.8670 C.3       1 RES1    0.0000
      4 C4         1.5940   -5.2137   13.0749 C.3       1 RES1    0.0000
      5 C5         0.3236   -4.4082   12.8644 C.3       1 RES1    0.0000
      6 C6         0.6550   -2.9733   12.4974 C.3       1 RES1    0.0000
      7 C7        -0.6004   -4.4665   14.0830 C.3       1 RES1    0.0000
      8 C8         4.0402   -3.4797   10.4908 C.3       1 RES1    0.0000
      9 C9         4.3705   -1.9775   10.4147 C.3       1 RES1    0.0000
     10 C10        5.3057   -4.1764   11.0049 C.3       1 RES1    0.0000
     11 C11        3.6749   -4.0326    9.0988 C.ar      1 RES1    0.0000
     12 C12        3.2811   -3.2038    8.0527 C.ar      1 RES1    0.0000
     13 C13        2.9023   -3.7257    6.8162 C.ar      1 RES1    0.0000
     14 C14        2.9216   -5.0816    6.6015 C.ar      1 RES1    0.0000
     15 C15        3.3386   -5.9117    7.6148 C.ar      1 RES1    0.0000
     16 C16        3.7096   -5.3924    8.8418 C.ar      1 RES1    0.0000
     17 O1         0.9375   -3.4227   10.1449 O.3       1 RES1    0.0000
     18 C17        0.3358   -2.5680    9.3220 C.2       1 RES1    0.0000
     19 O2         0.3374   -1.3844    9.4299 O.2       1 RES1    0.0000
     20 C18       -0.3483   -3.2958    8.1987 C.ar      1 RES1    0.0000
     21 C19       -1.1024   -2.5382    7.3070 C.ar      1 RES1    0.0000
     22 C20       -1.7574   -3.1883    6.2863 C.ar      1 RES1    0.0000
     23 C21       -1.7094   -4.5506    6.1054 C.ar      1 RES1    0.0000
     24 C22       -0.9492   -5.2668    7.0150 C.ar      1 RES1    0.0000
     25 C23       -0.2665   -4.6698    8.0569 C.ar      1 RES1    0.0000
     26 N1        -0.8740   -6.7301    6.8670 N.pl3     1 RES1    0.0000
     27 O3        -0.2499   -7.3673    7.6867 O.2       1 RES1    0.0000
     28 O4        -1.4438   -7.2378    5.9118 O.2       1 RES1    0.0000
     29 N2        -2.5799   -2.3983    5.3607 N.pl3     1 RES1    0.0000
     30 O5        -3.0108   -2.9604    4.3622 O.2       1 RES1    0.0000
     31 O6        -2.8026   -1.2419    5.6495 O.2       1 RES1    0.0000
     32 H1         1.8590   -1.9270   11.1583 H         1 RES1    0.0000
     33 H2         3.2722   -3.3294   12.3863 H         1 RES1    0.0000
     34 H3         3.3393   -5.6281   12.0510 H         1 RES1    0.0000
     35 H4         2.0994   -5.5206   11.0948 H         1 RES1    0.0000
     36 H5         1.3620   -6.1422   13.2304 H         1 RES1    0.0000
     37 H6         2.0544   -4.8834   13.8619 H         1 RES1    0.0000
     38 H7        -0.1574   -4.8057   12.1081 H         1 RES1    0.0000
     39 H8         1.0433   -2.5330   13.2685 H         1 RES1    0.0000
     40 H9        -0.1652   -2.5084   12.2710 H         1 RES1    0.0000
     41 H10       -0.8090   -5.3820   14.2829 H         1 RES1    0.0000
     42 H11       -1.4101   -3.9873   13.8936 H         1 RES1    0.0000
     43 H12       -0.1606   -4.0663   14.8372 H         1 RES1    0.0000
     44 H13        5.1325   -1.8454    9.8467 H         1 RES1    0.0000
     45 H14        4.5661   -1.6485   11.2947 H         1 RES1    0.0000
     46 H15        3.6174   -1.5022   10.0550 H         1 RES1    0.0000
     47 H16        5.1452   -5.1204   11.0737 H         1 RES1    0.0000
     48 H17        5.5348   -3.8267   11.8691 H         1 RES1    0.0000
     49 H18        6.0287   -4.0184   10.3935 H         1 RES1    0.0000
     50 H19        3.2707   -2.2818    8.1807 H         1 RES1    0.0000
     51 H20        2.6356   -3.1520    6.1339 H         1 RES1    0.0000
     52 H21        2.6565   -5.4338    5.7828 H         1 RES1    0.0000
     53 H22        3.3716   -6.8311    7.4741 H         1 RES1    0.0000
     54 H23        3.9906   -5.9725    9.5124 H         1 RES1    0.0000
     55 H24       -1.1623   -1.6149    7.3990 H         1 RES1    0.0000
     56 H25       -2.1631   -4.9676    5.4104 H         1 RES1    0.0000
     57 H26        0.2370   -5.1787    8.6493 H         1 RES1    0.0000
@<TRIPOS>BOND
     1    1    2 1
     2    2    3 1
     3    3    4 1
     4    4    5 1
     5    5    6 1
     6    6    1 1
     7    7    5 1
     8    8    2 1
     9    9    8 1
    10   10    8 1
    11   11    8 1
    12   12   11 ar
    13   13   12 ar
    14   14   13 ar
    15   15   14 ar
    16   16   11 ar
    17   17    1 1
    18   18   17 1
    19   19   18 2
    20   20   18 1
    21   21   20 ar
    22   22   21 ar
    23   23   22 ar
    24   24   23 ar
    25   25   20 ar
    26   26   24 1
    27   27   26 2
    28   28   26 2
    29   29   22 1
    30   30   29 2
    31   31   29 2
    32   32    1 1
    33   33    2 1
    34   34    3 1
    35   35    3 1
    36   36    4 1
    37   37    4 1
    38   38    5 1
    39   39    6 1
    40   40    6 1
    41   41    7 1
    42   42    7 1
    43   43    7 1
    44   44    9 1
    45   45    9 1
    46   46    9 1
    47   47   10 1
    48   48   10 1
    49   49   10 1
    50   50   12 1
    51   51   13 1
    52   52   14 1
    53   53   15 1
    54   54   16 1
    55   55   21 1
    56   56   23 1
    57   57   25 1
    58   15   16 ar
    59   24   25 ar
@<TRIPOS>SUBSTRUCTURE
     1 RES1 1

@<TRIPOS>CRYSIN
   8.1244   12.9500   10.6447  90.0000  96.4380  90.0000   4 1

