# MOL2 file generated by ConQuest
# Please check atom types

@<TRIPOS>MOLECULE
IDEHAD
    34    34     2
SMALL
NO_CHARGES
****
Generated from CSD

@<TRIPOS>ATOM
      1 O1        13.9661   -0.5271    3.6078 O.2       1 RES1    0.0000
      2 O2        15.6648    1.7094    3.2776 O.2       1 RES1    0.0000
      3 O3        16.0592    1.5061    1.1646 O.2       1 RES1    0.0000
      4 N1        12.0654   -0.1948    2.4247 N.am      1 RES1    0.0000
      5 N2        15.3113    1.4798    2.1384 N.pl3     1 RES1    0.0000
      6 C1        13.3687    0.0980    2.7251 C.2       1 RES1    0.0000
      7 C2        13.9163    1.1475    1.9011 C.2       1 RES1    0.0000
      8 C3        13.2024    1.8062    0.9230 C.2       1 RES1    0.0000
      9 C4        11.8683    1.4320    0.7294 C.2       1 RES1    0.0000
     10 C5        11.3272    0.4279    1.4694 C.2       1 RES1    0.0000
     11 C6        13.7694    2.9059    0.0832 C.3       1 RES1    0.0000
     12 H1        11.6606   -0.8630    2.8967 H         1 RES1    0.0000
     13 H2        11.3486    1.8851    0.0727 H         1 RES1    0.0000
     14 H3        10.4316    0.1542    1.3284 H         1 RES1    0.0000
     15 H4        14.1296    3.5861    0.6462 H         1 RES1    0.0000
     16 H5        14.4708    2.5604   -0.4667 H         1 RES1    0.0000
     17 H6        13.0930    3.2741   -0.4659 H         1 RES1    0.0000
     18 O4        11.7317    2.3524    5.0202 O.2       2 RES2    0.0000
     19 O5        13.1477    4.9547    4.9396 O.2       2 RES2    0.0000
     20 O6        13.9642    4.3559    3.0421 O.2       2 RES2    0.0000
     21 N3         9.9095    2.6011    3.6761 N.am      2 RES2    0.0000
     22 N4        13.0326    4.4897    3.8232 N.pl3     2 RES2    0.0000
     23 C7        11.1481    2.9609    4.1078 C.2       2 RES2    0.0000
     24 C8        11.7106    4.0654    3.3766 C.2       2 RES2    0.0000
     25 C9        11.0722    4.7133    2.3529 C.2       2 RES2    0.0000
     26 C10        9.8017    4.2483    2.0009 C.2       2 RES2    0.0000
     27 C11        9.2533    3.2119    2.6673 C.2       2 RES2    0.0000
     28 C12       11.6749    5.8883    1.6393 C.3       2 RES2    0.0000
     29 H7         9.4930    1.9090    4.0990 H         2 RES2    0.0000
     30 H8         9.3399    4.6655    1.2864 H         2 RES2    0.0000
     31 H9         8.3838    2.9059    2.4221 H         2 RES2    0.0000
     32 H10       11.0094    6.3019    1.1077 H         2 RES2    0.0000
     33 H11       12.0007    6.5135    2.2820 H         2 RES2    0.0000
     34 H12       12.3890    5.5942    1.0937 H         2 RES2    0.0000
@<TRIPOS>BOND
     1    1    6 2
     2    2    5 2
     3    3    5 2
     4    4    6 1
     5    5    7 1
     6    6    7 1
     7    7    8 2
     8    8    9 1
     9    9   10 2
    10   10    4 1
    11   11    8 1
    12   12    4 1
    13   13    9 1
    14   14   10 1
    15   15   11 1
    16   16   11 1
    17   17   11 1
    18   18   23 2
    19   19   22 2
    20   20   22 2
    21   21   23 1
    22   22   24 1
    23   23   24 1
    24   24   25 2
    25   25   26 1
    26   26   27 2
    27   27   21 1
    28   28   25 1
    29   29   21 1
    30   30   26 1
    31   31   27 1
    32   32   28 1
    33   33   28 1
    34   34   28 1
@<TRIPOS>SUBSTRUCTURE
     1 RES1 1
     2 RES2 18

@<TRIPOS>CRYSIN
  12.8133   11.9535    9.2390  90.0000 108.5950  90.0000 231 1

