# MOL2 file generated by ConQuest
# Please check atom types

@<TRIPOS>MOLECULE
IDEHEH
    58    58     2
SMALL
NO_CHARGES
****
Generated from CSD

@<TRIPOS>ATOM
      1 O1        10.2779    2.1860    7.0718 O.2       1 RES1    0.0000
      2 O2        11.5240    3.2430    9.6573 O.2       1 RES1    0.0000
      3 O3        12.0398    1.2262   10.4023 O.3       1 RES1    0.0000
      4 O4         9.1326    4.7423    5.7366 O.2       1 RES1    0.0000
      5 O5         9.4443    3.4874    4.1547 O.2       1 RES1    0.0000
      6 N1        12.5196    2.6146    7.1310 N.am      1 RES1    0.0000
      7 N2         9.8394    4.0530    5.0764 N.pl3     1 RES1    0.0000
      8 C1        11.2339    2.8231    6.6392 C.2       1 RES1    0.0000
      9 C2        11.1900    3.7974    5.5937 C.2       1 RES1    0.0000
     10 C3        12.2624    4.4300    5.0572 C.2       1 RES1    0.0000
     11 C4        13.5096    4.1266    5.6201 C.2       1 RES1    0.0000
     12 C5        13.6136    3.2449    6.6310 C.2       1 RES1    0.0000
     13 C6        12.6390    1.6612    8.2311 C.3       1 RES1    0.0000
     14 C7        12.0075    2.1627    9.4879 C.2       1 RES1    0.0000
     15 C8        11.5092    1.5698   11.7155 C.3       1 RES1    0.0000
     16 C9        12.2497    0.9400   12.7009 C.3       1 RES1    0.0000
     17 C10       12.1677    5.4125    3.9225 C.3       1 RES1    0.0000
     18 H1        14.2917    4.5496    5.2831 H         1 RES1    0.0000
     19 H2        14.4683    3.0574    7.0025 H         1 RES1    0.0000
     20 H3        13.5606    1.4993    8.3969 H         1 RES1    0.0000
     21 H4        12.2153    0.8484    7.9797 H         1 RES1    0.0000
     22 H5        10.6025    1.2878   11.7693 H         1 RES1    0.0000
     23 H6        11.5553    2.5122   11.8348 H         1 RES1    0.0000
     24 H7        11.8409    0.1128   12.9159 H         1 RES1    0.0000
     25 H8        12.2740    1.4946   13.4705 H         1 RES1    0.0000
     26 H9        13.1301    0.7920   12.3840 H         1 RES1    0.0000
     27 H10       12.2850    6.2910    4.2604 H         1 RES1    0.0000
     28 H11       11.3157    5.3392    3.5136 H         1 RES1    0.0000
     29 H12       12.8465    5.2217    3.2868 H         1 RES1    0.0000
     30 O6         4.7500    1.7895    8.8267 O.2       2 RES2    0.0000
     31 O7         6.1048    2.9991    6.2339 O.2       2 RES2    0.0000
     32 O8         6.9279    1.1029    5.3887 O.3       2 RES2    0.0000
     33 O9         3.4826    4.4133   10.0607 O.2       2 RES2    0.0000
     34 O10        3.8365    3.2054   11.6773 O.2       2 RES2    0.0000
     35 N3         6.9689    2.3413    8.7621 N.am      2 RES2    0.0000
     36 N4         4.1975    3.7365   10.7146 N.pl3     2 RES2    0.0000
     37 C11        5.6760    2.5013    9.2438 C.2       2 RES2    0.0000
     38 C12        5.5558    3.5118   10.2320 C.2       2 RES2    0.0000
     39 C13        6.5848    4.2650   10.7238 C.2       2 RES2    0.0000
     40 C14        7.8575    4.0021   10.1855 C.2       2 RES2    0.0000
     41 C15        8.0105    3.0731    9.2283 C.2       2 RES2    0.0000
     42 C16        7.1591    1.3900    7.6719 C.3       2 RES2    0.0000
     43 C17        6.6518    1.9538    6.3659 C.2       2 RES2    0.0000
     44 C18        6.5352    1.5181    4.0327 C.3       2 RES2    0.0000
     45 C19        7.1769    0.5546    3.1037 C.3       2 RES2    0.0000
     46 C20        6.4050    5.3322   11.7829 C.3       2 RES2    0.0000
     47 H13        8.6123    4.4862   10.5006 H         2 RES2    0.0000
     48 H14        8.8759    2.9234    8.8668 H         2 RES2    0.0000
     49 H15        6.6841    0.5922    7.8714 H         2 RES2    0.0000
     50 H16        8.0851    1.1962    7.5881 H         2 RES2    0.0000
     51 H17        5.5906    1.4852    3.9380 H         2 RES2    0.0000
     52 H18        6.8418    2.3994    3.8560 H         2 RES2    0.0000
     53 H19        6.8734   -0.3243    3.2986 H         2 RES2    0.0000
     54 H20        8.1203    0.5946    3.2103 H         2 RES2    0.0000
     55 H21        6.9496    0.7779    2.2094 H         2 RES2    0.0000
     56 H22        6.6905    6.1711   11.4405 H         2 RES2    0.0000
     57 H23        6.9227    5.1089   12.5479 H         2 RES2    0.0000
     58 H24        5.4880    5.3839   12.0270 H         2 RES2    0.0000
@<TRIPOS>BOND
     1    1    8 2
     2    2   14 2
     3    3   14 1
     4    4    7 2
     5    5    7 2
     6    6    8 1
     7    7    9 1
     8    8    9 1
     9    9   10 2
    10   10   11 1
    11   11   12 2
    12   12    6 1
    13   13    6 1
    14   14   13 1
    15   15    3 1
    16   16   15 1
    17   17   10 1
    18   18   11 1
    19   19   12 1
    20   20   13 1
    21   21   13 1
    22   22   15 1
    23   23   15 1
    24   24   16 1
    25   25   16 1
    26   26   16 1
    27   27   17 1
    28   28   17 1
    29   29   17 1
    30   30   37 2
    31   31   43 2
    32   32   43 1
    33   33   36 2
    34   34   36 2
    35   35   37 1
    36   36   38 1
    37   37   38 1
    38   38   39 2
    39   39   40 1
    40   40   41 2
    41   41   35 1
    42   42   35 1
    43   43   42 1
    44   44   32 1
    45   45   44 1
    46   46   39 1
    47   47   40 1
    48   48   41 1
    49   49   42 1
    50   50   42 1
    51   51   44 1
    52   52   44 1
    53   53   45 1
    54   54   45 1
    55   55   45 1
    56   56   46 1
    57   57   46 1
    58   58   46 1
@<TRIPOS>SUBSTRUCTURE
     1 RES1 1
     2 RES2 30

@<TRIPOS>CRYSIN
  11.0630   23.5000    9.1080  90.0000  90.7500  90.0000  14 1

