# MOL2 file generated by ConQuest
# Please check atom types

@<TRIPOS>MOLECULE
IDENOX
    48    48     2
SMALL
NO_CHARGES
****
Generated from CSD

@<TRIPOS>ATOM
      1 O1         2.4680    1.3037   14.9223 O.2       1 RES1    0.0000
      2 O2         2.2148    4.0177   12.9294 O.2       1 RES1    0.0000
      3 O3        -0.6560    4.1165   12.3575 O.2       1 RES1    0.0000
      4 O4         1.2098    4.0952   14.8596 O.2       1 RES1    0.0000
      5 O5         4.6390   -0.1566   10.3478 O.2       1 RES1    0.0000
      6 O6         2.6691   -0.8686   14.8842 O.2       1 RES1    0.0000
      7 O7        -1.4421    2.0877   12.3454 O.2       1 RES1    0.0000
      8 O8         4.4420   -1.1029   12.2822 O.2       1 RES1    0.0000
      9 N1         1.3929    1.5710   11.3186 N.2       1 RES1    0.0000
     10 N2         2.3280    0.2032   14.4047 N.pl3     1 RES1    0.0000
     11 N3         2.5903   -0.5694   11.1403 N.3       1 RES1    0.0000
     12 N4         1.6582    0.1717   13.1880 N.3       1 RES1    0.0000
     13 N5         1.4224    3.6077   13.7589 N.pl3     1 RES1    0.0000
     14 N6        -0.6068    2.9328   12.6130 N.pl3     1 RES1    0.0000
     15 N7         3.9892   -0.5859   11.2804 N.pl3     1 RES1    0.0000
     16 C1         1.3064    1.3797   12.5620 C.2       1 RES1    0.0000
     17 C2         1.8360   -0.9781   12.3135 C.3       1 RES1    0.0000
     18 H1         2.3227   -1.6943   12.7931 H         1 RES1    0.0000
     19 H2         0.9532   -1.3327   12.0401 H         1 RES1    0.0000
     20 C3         0.5774    2.4042   13.4135 C.3       1 RES1    0.0000
     21 H3         0.2488    1.9716   14.2527 H         1 RES1    0.0000
     22 C4         2.0186    0.5908   10.4449 C.3       1 RES1    0.0000
     23 H4         2.7373    1.0379    9.9325 H         1 RES1    0.0000
     24 H5         1.3437    0.2696    9.7952 H         1 RES1    0.0000
     25 O9         5.0988    6.2175   15.3455 O.2       2 RES2    0.0000
     26 O10        2.1926    3.1016   17.8326 O.2       2 RES2    0.0000
     27 O11        4.1559    3.4440   15.2641 O.2       2 RES2    0.0000
     28 O12        5.0221    3.3200   17.2545 O.2       2 RES2    0.0000
     29 O13        7.4809    7.3325   19.8373 O.2       2 RES2    0.0000
     30 O14        7.1386    8.2332   17.8940 O.2       2 RES2    0.0000
     31 O15        5.0839    8.3930   15.5078 O.2       2 RES2    0.0000
     32 O16        1.3385    5.0910   17.9711 O.2       2 RES2    0.0000
     33 N8         4.3261    7.1801   17.2012 N.pl3     2 RES2    0.0000
     34 N9         5.3855    7.8034   19.2297 N.3       2 RES2    0.0000
     35 N10        4.1962    5.6684   18.9840 N.2       2 RES2    0.0000
     36 N11        4.2675    3.7918   16.4241 N.pl3     2 RES2    0.0000
     37 N12        4.8872    7.2681   15.9291 N.pl3     2 RES2    0.0000
     38 N13        2.1987    4.2917   17.6415 N.pl3     2 RES2    0.0000
     39 N14        6.7638    7.7661   18.9527 N.pl3     2 RES2    0.0000
     40 C5         4.5578    8.2792   18.1425 C.3       2 RES2    0.0000
     41 H6         5.0093    9.0291   17.6806 H         2 RES2    0.0000
     42 H7         3.6936    8.6068   18.4962 H         2 RES2    0.0000
     43 C6         4.8313    6.6163   19.8864 C.3       2 RES2    0.0000
     44 H8         5.5604    6.1528   20.3697 H         2 RES2    0.0000
     45 H9         4.1660    6.9088   20.5574 H         2 RES2    0.0000
     46 C7         4.0504    5.9189   17.7557 C.2       2 RES2    0.0000
     47 C8         3.3562    4.9180   16.8691 C.3       2 RES2    0.0000
     48 H10        2.9968    5.3874   16.0636 H         2 RES2    0.0000
@<TRIPOS>BOND
     1    1   10 2
     2    2   13 2
     3    3   14 2
     4    4   13 2
     5    5   15 2
     6    6   10 2
     7    7   14 2
     8    8   15 2
     9    9   16 2
    10   10   12 1
    11   11   15 1
    12   12   16 1
    13   13   20 1
    14   14   20 1
    15   16   20 1
    16   17   11 1
    17   18   17 1
    18   19   17 1
    19   20   21 1
    20   22    9 1
    21   23   22 1
    22   24   22 1
    23   25   37 2
    24   26   38 2
    25   27   36 2
    26   28   36 2
    27   29   39 2
    28   30   39 2
    29   31   37 2
    30   32   38 2
    31   33   37 1
    32   34   39 1
    33   35   43 1
    34   36   47 1
    35   38   47 1
    36   40   33 1
    37   41   40 1
    38   42   40 1
    39   43   34 1
    40   44   43 1
    41   45   43 1
    42   46   33 1
    43   47   46 1
    44   48   47 1
    45   11   22 1
    46   12   17 1
    47   34   40 1
    48   35   46 2
@<TRIPOS>SUBSTRUCTURE
     1 RES1 1
     2 RES2 25

@<TRIPOS>CRYSIN
   5.8860    8.1340   20.4600  99.2750  90.6560  93.3530   2 1

