# MOL2 file generated by ConQuest
# Please check atom types

@<TRIPOS>MOLECULE
IDEYAR
    51    52     1
SMALL
NO_CHARGES
****
Generated from CSD

@<TRIPOS>ATOM
      1 O1        -0.2735    9.4555   -0.0371 O.2       1 RES1    0.0000
      2 O2         0.2585   11.4987    0.6279 O.2       1 RES1    0.0000
      3 N1        -1.5287    8.3470    3.5780 N.3       1 RES1    0.0000
      4 N2        -1.1943   10.9578    4.3103 N.2       1 RES1    0.0000
      5 N3        -0.2173   10.3548    0.8450 N.pl3     1 RES1    0.0000
      6 C1        -0.7120   10.0695    2.1498 C.2       1 RES1    0.0000
      7 C2        -1.0814    8.7261    2.4025 C.2       1 RES1    0.0000
      8 C3        -0.7778   11.1604    3.1105 C.2       1 RES1    0.0000
      9 C4        -1.8159    6.9685    3.9003 C.ar      1 RES1    0.0000
     10 C5        -2.6710    6.1676    3.0810 C.ar      1 RES1    0.0000
     11 C6        -2.9025    4.8430    3.4820 C.ar      1 RES1    0.0000
     12 C7        -2.3458    4.3074    4.6651 C.ar      1 RES1    0.0000
     13 C8        -1.5125    5.1368    5.4510 C.ar      1 RES1    0.0000
     14 C9        -1.2314    6.4718    5.0872 C.ar      1 RES1    0.0000
     15 C10       -3.3337    6.6724    1.7988 C.3       1 RES1    0.0000
     16 C11       -2.6299    2.8593    5.0652 C.3       1 RES1    0.0000
     17 C12       -0.2903    7.3382    5.9314 C.3       1 RES1    0.0000
     18 C13       -1.3167   12.1085    5.1855 C.ar      1 RES1    0.0000
     19 C14       -0.1882   12.8235    5.6568 C.ar      1 RES1    0.0000
     20 C15       -0.3832   13.9530    6.4866 C.ar      1 RES1    0.0000
     21 C16       -1.6549   14.3727    6.8663 C.ar      1 RES1    0.0000
     22 C17       -2.7535   13.5956    6.4389 C.ar      1 RES1    0.0000
     23 C18       -2.6063   12.4643    5.5978 C.ar      1 RES1    0.0000
     24 C19        1.2119   12.3622    5.3375 C.3       1 RES1    0.0000
     25 C20       -1.8558   15.6142    7.7295 C.3       1 RES1    0.0000
     26 C21       -3.8146   11.6597    5.1076 C.3       1 RES1    0.0000
     27 H1        -1.0237    8.1185    1.7066 H         1 RES1    0.0000
     28 H2        -0.5533   12.0267    2.8965 H         1 RES1    0.0000
     29 H3        -3.5155    4.3205    3.1302 H         1 RES1    0.0000
     30 H4        -1.0396    4.7064    6.2309 H         1 RES1    0.0000
     31 H5        -2.8195    6.5209    0.9456 H         1 RES1    0.0000
     32 H6        -3.4409    7.6497    1.7134 H         1 RES1    0.0000
     33 H7        -4.1314    6.1250    1.6846 H         1 RES1    0.0000
     34 H8        -2.0519    2.3801    4.5871 H         1 RES1    0.0000
     35 H9        -3.6060    2.6834    5.0577 H         1 RES1    0.0000
     36 H10       -2.3205    2.6932    6.0199 H         1 RES1    0.0000
     37 H11        0.4680    7.5934    5.4268 H         1 RES1    0.0000
     38 H12        0.0959    6.7479    6.7476 H         1 RES1    0.0000
     39 H13       -0.7431    8.1689    6.1855 H         1 RES1    0.0000
     40 H14        0.4742   14.4545    6.8497 H         1 RES1    0.0000
     41 H15       -3.7978   13.8386    6.7567 H         1 RES1    0.0000
     42 H16        1.3537   12.5759    4.4638 H         1 RES1    0.0000
     43 H17        1.4242   11.2698    5.5463 H         1 RES1    0.0000
     44 H18        1.8372   12.6923    6.0494 H         1 RES1    0.0000
     45 H19       -2.0694   16.4774    6.9579 H         1 RES1    0.0000
     46 H20       -2.4860   15.4914    8.1221 H         1 RES1    0.0000
     47 H21       -1.0290   15.8032    8.2227 H         1 RES1    0.0000
     48 H22       -3.8226   11.9198    4.1257 H         1 RES1    0.0000
     49 H23       -4.7531   11.8826    5.6795 H         1 RES1    0.0000
     50 H24       -3.7011   10.8184    5.3179 H         1 RES1    0.0000
     51 H25       -1.6293    9.0826    4.1696 H         1 RES1    0.0000
@<TRIPOS>BOND
     1    1    5 2
     2    2    5 2
     3    3    7 1
     4    4    8 2
     5    5    6 1
     6    6    7 2
     7    7   27 1
     8    8    6 1
     9    9    3 1
    10   10    9 ar
    11   11   10 ar
    12   12   11 ar
    13   13   12 ar
    14   14    9 ar
    15   15   10 1
    16   16   12 1
    17   17   14 1
    18   18    4 1
    19   19   18 ar
    20   20   19 ar
    21   21   20 ar
    22   22   21 ar
    23   23   18 ar
    24   24   19 1
    25   25   21 1
    26   26   23 1
    27   28    8 1
    28   29   11 1
    29   30   13 1
    30   31   15 1
    31   32   15 1
    32   33   15 1
    33   34   16 1
    34   35   16 1
    35   36   16 1
    36   37   17 1
    37   38   17 1
    38   39   17 1
    39   40   20 1
    40   41   22 1
    41   42   24 1
    42   43   24 1
    43   44   24 1
    44   45   25 1
    45   46   25 1
    46   47   25 1
    47   48   26 1
    48   49   26 1
    49   50   26 1
    50   51    3 1
    51   13   14 ar
    52   22   23 ar
@<TRIPOS>SUBSTRUCTURE
     1 RES1 1

@<TRIPOS>CRYSIN
   8.9540   14.5360    8.2200 105.5500 109.6100  77.7000   2 1

