# MOL2 file generated by ConQuest
# Please check atom types

@<TRIPOS>MOLECULE
IDIBEE
    38    40     1
SMALL
NO_CHARGES
****
Generated from CSD

@<TRIPOS>ATOM
      1 O1         5.5364    1.6283    5.6184 O.3       1 RES1    0.0000
      2 O2         6.5209    3.1790    6.9094 O.2       1 RES1    0.0000
      3 N1         9.8634    8.8888    6.0991 N.3       1 RES1    0.0000
      4 N2         5.3439    1.3551    4.2122 N.2       1 RES1    0.0000
      5 C1         5.9350    2.3450    2.0844 C.ar      1 RES1    0.0000
      6 C2         5.4135    3.4496    1.4167 C.ar      1 RES1    0.0000
      7 H1         5.0520    4.1747    1.9122 H         1 RES1    0.0000
      8 C3         5.4231    3.4953    0.0328 C.ar      1 RES1    0.0000
      9 H2         5.0336    4.2328   -0.4215 H         1 RES1    0.0000
     10 C4         5.9989    2.4623   -0.6878 C.ar      1 RES1    0.0000
     11 H3         6.0328    2.5093   -1.6354 H         1 RES1    0.0000
     12 C5         6.5227    1.3707   -0.0391 C.ar      1 RES1    0.0000
     13 H4         6.9113    0.6612   -0.5378 H         1 RES1    0.0000
     14 C6         6.4854    1.3081    1.3491 C.ar      1 RES1    0.0000
     15 H5         6.8385    0.5484    1.7971 H         1 RES1    0.0000
     16 C7         5.9526    2.3143    3.5688 C.2       1 RES1    0.0000
     17 C8         6.5631    3.2879    4.4394 C.2       1 RES1    0.0000
     18 C9         6.2580    2.8040    5.7906 C.2       1 RES1    0.0000
     19 C10        7.3360    4.3273    3.9893 C.2       1 RES1    0.0000
     20 H6         7.4520    4.3149    3.0458 H         1 RES1    0.0000
     21 C11        8.0057    5.4229    4.6116 C.ar      1 RES1    0.0000
     22 C12        7.9640    5.7509    5.9882 C.ar      1 RES1    0.0000
     23 H7         7.4791    5.1920    6.5830 H         1 RES1    0.0000
     24 C13        8.6066    6.8536    6.4805 C.ar      1 RES1    0.0000
     25 H8         8.5810    7.0264    7.4134 H         1 RES1    0.0000
     26 C14        9.3112    7.7450    5.6321 C.ar      1 RES1    0.0000
     27 C15        9.3975    7.3922    4.2650 C.ar      1 RES1    0.0000
     28 H9         9.9009    7.9393    3.6734 H         1 RES1    0.0000
     29 C16        8.7686    6.2758    3.7780 C.ar      1 RES1    0.0000
     30 H10        8.8472    6.0691    2.8546 H         1 RES1    0.0000
     31 C17        9.8703    9.2148    7.5127 C.3       1 RES1    0.0000
     32 H11       10.4230    8.5647    7.9955 H         1 RES1    0.0000
     33 H12        8.9543    9.1868    7.8592 H         1 RES1    0.0000
     34 H13       10.2398   10.1141    7.6384 H         1 RES1    0.0000
     35 C18       10.6263    9.7704    5.2264 C.3       1 RES1    0.0000
     36 H14       10.1008    9.9713    4.4246 H         1 RES1    0.0000
     37 H15       11.4636    9.3289    4.9665 H         1 RES1    0.0000
     38 H16       10.8316   10.6031    5.7008 H         1 RES1    0.0000
@<TRIPOS>BOND
     1    1    4 1
     2    2   18 2
     3    3   26 1
     4    4   16 2
     5    5    6 ar
     6    6    7 1
     7    8    6 ar
     8    9    8 1
     9   10    8 ar
    10   11   10 1
    11   12   10 ar
    12   13   12 1
    13   14    5 ar
    14   15   14 1
    15   16    5 1
    16   17   16 1
    17   18    1 1
    18   19   17 2
    19   20   19 1
    20   21   19 1
    21   22   21 ar
    22   23   22 1
    23   24   22 ar
    24   25   24 1
    25   26   24 ar
    26   27   26 ar
    27   28   27 1
    28   29   21 ar
    29   30   29 1
    30   31    3 1
    31   32   31 1
    32   33   31 1
    33   34   31 1
    34   35    3 1
    35   36   35 1
    36   37   35 1
    37   38   35 1
    38   12   14 ar
    39   17   18 1
    40   27   29 ar
@<TRIPOS>SUBSTRUCTURE
     1 RES1 1

@<TRIPOS>CRYSIN
  21.0920    6.5210   12.1490  90.0000 119.5870  90.0000   9 1

