# MOL2 file generated by ConQuest
# Please check atom types

@<TRIPOS>MOLECULE
IDIKEL
    28    30     1
SMALL
NO_CHARGES
****
Generated from CSD

@<TRIPOS>ATOM
      1 O1         0.7448    7.0762   15.3879 O.3       1 RES1    0.0000
      2 C1         1.0797    6.7254   16.6598 C.2       1 RES1    0.0000
      3 C2         1.8379    5.6689   16.9271 C.2       1 RES1    0.0000
      4 H1         2.0561    5.4872   17.8132 H         1 RES1    0.0000
      5 C3         2.3312    4.8000   15.9066 C.2       1 RES1    0.0000
      6 C4         1.9391    5.1651   14.5498 C.ar      1 RES1    0.0000
      7 C5         1.1617    6.2989   14.3446 C.ar      1 RES1    0.0000
      8 C6         0.7527    6.7242   13.0916 C.ar      1 RES1    0.0000
      9 H2         0.2583    7.5043   12.9801 H         1 RES1    0.0000
     10 C7         1.1130    5.9372   12.0181 C.ar      1 RES1    0.0000
     11 C8         1.8787    4.7971   12.2285 C.ar      1 RES1    0.0000
     12 C9         2.3035    4.3833   13.4482 C.ar      1 RES1    0.0000
     13 H3         2.8149    3.6129   13.5486 H         1 RES1    0.0000
     14 O2         2.1048    4.1471   11.0292 O.3       1 RES1    0.0000
     15 C10        1.4849    4.8682   10.0541 C.2       1 RES1    0.0000
     16 C11        0.8964    5.9464   10.6025 C.2       1 RES1    0.0000
     17 O3         3.0504    3.8250   16.1347 O.2       1 RES1    0.0000
     18 C12        0.5072    7.6666   17.6361 C.3       1 RES1    0.0000
     19 H4         0.0010    8.3389   17.1746 H         1 RES1    0.0000
     20 H5         1.2157    8.0833   18.1325 H         1 RES1    0.0000
     21 H6        -0.0684    7.1908   18.2389 H         1 RES1    0.0000
     22 N1         0.1454    6.9277    9.8882 N.pl3     1 RES1    0.0000
     23 O4        -0.0231    6.7907    8.6814 O.2       1 RES1    0.0000
     24 O5        -0.2901    7.8557   10.5345 O.2       1 RES1    0.0000
     25 C13        1.5789    4.3116    8.6937 C.3       1 RES1    0.0000
     26 H7         2.1016    3.5068    8.7131 H         1 RES1    0.0000
     27 H8         1.9988    4.9524    8.1156 H         1 RES1    0.0000
     28 H9         0.6986    4.1139    8.3672 H         1 RES1    0.0000
@<TRIPOS>BOND
     1    1    2 1
     2    2    3 2
     3    3    4 1
     4    5    3 1
     5    6    5 1
     6    7    1 1
     7    8    7 ar
     8    9    8 1
     9   10    8 ar
    10   11   10 ar
    11   12    6 ar
    12   13   12 1
    13   14   11 1
    14   15   14 1
    15   16   10 1
    16   17    5 2
    17   18    2 1
    18   19   18 1
    19   20   18 1
    20   21   18 1
    21   22   16 1
    22   23   22 2
    23   24   22 2
    24   25   15 1
    25   26   25 1
    26   27   25 1
    27   28   25 1
    28    6    7 ar
    29   11   12 ar
    30   15   16 2
@<TRIPOS>SUBSTRUCTURE
     1 RES1 1

@<TRIPOS>CRYSIN
   8.1110    5.7320   24.2350  90.0000  93.5100  90.0000  14 1

