# MOL2 file generated by ConQuest
# Please check atom types

@<TRIPOS>MOLECULE
IDITAR
    21    21     1
SMALL
NO_CHARGES
****
Generated from CSD

@<TRIPOS>ATOM
      1 O1         9.4527   -3.0483   -2.5706 O.2       1 RES1    0.0000
      2 O2         9.9049   -1.2006   -1.5773 O.2       1 RES1    0.0000
      3 O3         6.8027   -4.3069   -2.9893 O.2       1 RES1    0.0000
      4 O4         5.7472   -5.9518   -0.7815 O.2       1 RES1    0.0000
      5 O5         5.0771   -5.4702    1.2781 O.3       1 RES1    0.0000
      6 H1         4.6774   -6.1815    1.1980 H         1 RES1    0.0000
      7 N1         9.2688   -2.2376   -1.6840 N.pl3     1 RES1    0.0000
      8 N2         8.2551   -5.6123   -1.9148 N.am      1 RES1    0.0000
      9 H2         8.3011   -6.1836   -2.5564 H         1 RES1    0.0000
     10 H3         8.7152   -5.7324   -1.1980 H         1 RES1    0.0000
     11 C1         8.2415   -2.5377   -0.6681 C.ar      1 RES1    0.0000
     12 C2         8.1248   -1.6677    0.3906 C.ar      1 RES1    0.0000
     13 H4         8.6427   -0.8963    0.4279 H         1 RES1    0.0000
     14 C3         7.2236   -1.9582    1.4007 C.ar      1 RES1    0.0000
     15 H5         7.1178   -1.3717    2.1148 H         1 RES1    0.0000
     16 C4         6.4789   -3.1249    1.3448 C.ar      1 RES1    0.0000
     17 H6         5.8965   -3.3340    2.0401 H         1 RES1    0.0000
     18 C5         6.5941   -3.9874    0.2600 C.ar      1 RES1    0.0000
     19 C6         7.4723   -3.6921   -0.7888 C.ar      1 RES1    0.0000
     20 C7         7.4842   -4.5621   -2.0290 C.2       1 RES1    0.0000
     21 C8         5.7703   -5.2376    0.1966 C.2       1 RES1    0.0000
@<TRIPOS>BOND
     1    1    7 2
     2    2    7 2
     3    3   20 2
     4    4   21 2
     5    5    6 1
     6    7   11 1
     7    8    9 1
     8   10    8 1
     9   11   12 ar
    10   12   13 1
    11   14   12 ar
    12   15   14 1
    13   16   14 ar
    14   17   16 1
    15   18   16 ar
    16   19   11 ar
    17   20    8 1
    18   21    5 1
    19   18   19 ar
    20   18   21 1
    21   19   20 1
@<TRIPOS>SUBSTRUCTURE
     1 RES1 1

@<TRIPOS>CRYSIN
   9.6080    6.8998   15.3291  90.0000 125.7550  90.0000  14 1

