# MOL2 file generated by ConQuest
# Please check atom types

@<TRIPOS>MOLECULE
IDOBOU
    48    49     2
SMALL
NO_CHARGES
****
Generated from CSD

@<TRIPOS>ATOM
      1 O1         0.9543    6.0792    5.0408 O.2       1 RES1    0.0000
      2 O2         1.2388    7.0536    6.9450 O.2       1 RES1    0.0000
      3 O3         1.6758   -0.4653   10.6342 O.3       1 RES1    0.0000
      4 O4         3.7809    0.4425    7.1669 O.3       1 RES1    0.0000
      5 N1         1.1402    6.0390    6.2562 N.pl3     1 RES1    0.0000
      6 N2         2.2491   -3.8496    5.3912 N.pl3     1 RES1    0.0000
      7 C1         1.1849    4.7088    6.9102 C.ar      1 RES1    0.0000
      8 C2         1.2310    3.5553    6.0762 C.ar      1 RES1    0.0000
      9 H1         1.2076    3.6412    5.1508 H         1 RES1    0.0000
     10 C3         1.3119    2.3125    6.6607 C.ar      1 RES1    0.0000
     11 H2         1.3402    1.5564    6.1188 H         1 RES1    0.0000
     12 C4         1.3537    2.1555    8.0797 C.ar      1 RES1    0.0000
     13 C5         1.4956    0.8678    8.7016 C.ar      1 RES1    0.0000
     14 C6         1.4928    0.7909   10.0973 C.ar      1 RES1    0.0000
     15 C7         1.3175    1.9662   10.8978 C.ar      1 RES1    0.0000
     16 H3         1.2892    1.8955   11.8251 H         1 RES1    0.0000
     17 C8         1.1913    3.1958   10.3036 C.ar      1 RES1    0.0000
     18 H4         1.0777    3.9485   10.8374 H         1 RES1    0.0000
     19 C9         1.2310    3.3456    8.8927 C.ar      1 RES1    0.0000
     20 C10        1.1565    4.6253    8.2642 C.ar      1 RES1    0.0000
     21 H5         1.0884    5.3959    8.7800 H         1 RES1    0.0000
     22 C11        1.5205   -0.6434   12.0509 C.3       1 RES1    0.0000
     23 H6         0.6740   -0.2846   12.3270 H         1 RES1    0.0000
     24 H7         2.2278   -0.1847   12.5109 H         1 RES1    0.0000
     25 H8         1.5552   -1.5791   12.2609 H         1 RES1    0.0000
     26 C12        1.9717   -2.6739    6.2699 C.ar      1 RES1    0.0000
     27 C13        0.7585   -2.5871    7.0409 C.ar      1 RES1    0.0000
     28 C14       -0.2923   -3.5658    7.0806 C.ar      1 RES1    0.0000
     29 H9        -0.2221   -4.3316    6.5582 H         1 RES1    0.0000
     30 C15       -1.4062   -3.3914    7.8816 C.ar      1 RES1    0.0000
     31 H10       -2.0625   -4.0499    7.9084 H         1 RES1    0.0000
     32 C16       -1.5566   -2.2226    8.6583 C.ar      1 RES1    0.0000
     33 H11       -2.3179   -2.1045    9.1800 H         1 RES1    0.0000
     34 C17       -0.5733   -1.2531    8.6453 C.ar      1 RES1    0.0000
     35 H12       -0.6875   -0.4875    9.1604 H         1 RES1    0.0000
     36 C18        0.6293   -1.3932    7.8523 C.ar      1 RES1    0.0000
     37 C19        1.6609   -0.3853    7.8755 C.ar      1 RES1    0.0000
     38 C20        2.8132   -0.5467    7.0824 C.ar      1 RES1    0.0000
     39 C21        2.9629   -1.7032    6.2801 C.ar      1 RES1    0.0000
     40 H13        3.7263   -1.8123    5.7599 H         1 RES1    0.0000
     41 C22        4.8338    0.4709    6.1744 C.3       1 RES1    0.0000
     42 H14        4.4471    0.5647    5.3008 H         1 RES1    0.0000
     43 H15        5.3361   -0.3452    6.2171 H         1 RES1    0.0000
     44 H16        5.4163    1.2142    6.3474 H         1 RES1    0.0000
     45 O5         3.1786   -3.8516    4.6382 O.2       1 RES1    0.0000
     46 O6         1.2927   -4.3830    4.7883 O.2       1 RES1    0.0000
     47 O7         3.3985   -4.1726    5.2383 Du        2 SUP2    0.0000
     48 O8         1.7738   -4.9886    5.7724 Du        2 SUP2    0.0000
@<TRIPOS>BOND
     1    1    5 2
     2    2    5 2
     3    3   14 1
     4    4   38 1
     5    5    7 1
     6    6   26 1
     7    7    8 ar
     8    8    9 1
     9   10    8 ar
    10   11   10 1
    11   12   10 ar
    12   13   12 ar
    13   14   13 ar
    14   15   14 ar
    15   16   15 1
    16   17   15 ar
    17   18   17 1
    18   19   12 ar
    19   20    7 ar
    20   21   20 1
    21   22    3 1
    22   23   22 1
    23   24   22 1
    24   25   22 1
    25   26   27 ar
    26   27   28 ar
    27   28   29 1
    28   30   28 ar
    29   31   30 1
    30   32   30 ar
    31   33   32 1
    32   34   32 ar
    33   35   34 1
    34   36   27 ar
    35   37   13 1
    36   38   37 ar
    37   39   26 ar
    38   40   39 1
    39   41    4 1
    40   42   41 1
    41   43   41 1
    42   44   41 1
    43   45    6 2
    44   46    6 2
    45   17   19 ar
    46   19   20 ar
    47   34   36 ar
    48   36   37 ar
    49   38   39 ar
@<TRIPOS>SUBSTRUCTURE
     1 RES1 1
     2 SUP2 47

@<TRIPOS>CRYSIN
   7.0950   15.1400   17.8600  90.0000  90.0000  90.0000  19 1

