# MOL2 file generated by ConQuest
# Please check atom types

@<TRIPOS>MOLECULE
IDODEL
    64    69     1
SMALL
NO_CHARGES
****
Generated from CSD

@<TRIPOS>ATOM
      1 O1         2.2007    4.8800   21.2458 O.3       1 RES1    0.0000
      2 O2         7.8096    3.3021   18.3089 O.2       1 RES1    0.0000
      3 O3         3.8986    2.4742   17.2540 O.2       1 RES1    0.0000
      4 O4         3.4808    6.5771   14.9199 O.3       1 RES1    0.0000
      5 N1         2.5301    4.3629   22.5335 N.2       1 RES1    0.0000
      6 N2         2.8836    2.8275   20.9421 N.2       1 RES1    0.0000
      7 N3         4.6344    6.8782   14.1439 N.2       1 RES1    0.0000
      8 N4         5.1534    5.5164   15.8505 N.2       1 RES1    0.0000
      9 N5         5.5890    3.7092   18.2650 N.am      1 RES1    0.0000
     10 C1         4.6288   -0.3589   26.5385 C.3       1 RES1    0.0000
     11 H1         4.5140   -1.2740   26.2712 H         1 RES1    0.0000
     12 H2         4.0812   -0.1784   27.3062 H         1 RES1    0.0000
     13 H3         5.5504   -0.2042   26.7617 H         1 RES1    0.0000
     14 C2         4.2219    0.5576   25.3992 C.ar      1 RES1    0.0000
     15 C3         4.3054    1.9278   25.5182 C.ar      1 RES1    0.0000
     16 H4         4.6537    2.2944   26.2981 H         1 RES1    0.0000
     17 C4         3.8942    2.7578   24.5204 C.ar      1 RES1    0.0000
     18 H5         3.9526    3.6785   24.6401 H         1 RES1    0.0000
     19 C5         3.3960    2.2609   23.3404 C.ar      1 RES1    0.0000
     20 C6         3.3223    0.8928   23.1932 C.ar      1 RES1    0.0000
     21 H6         2.9951    0.5248   22.4032 H         1 RES1    0.0000
     22 C7         3.7342    0.0725   24.2207 C.ar      1 RES1    0.0000
     23 H7         3.6778   -0.8489   24.1054 H         1 RES1    0.0000
     24 C8         2.9462    3.1572   22.2698 C.2       1 RES1    0.0000
     25 C9         2.4541    3.9183   20.3817 C.2       1 RES1    0.0000
     26 C10        2.1787    4.2193   18.9726 C.3       1 RES1    0.0000
     27 H8         1.5009    4.9114   18.9326 H         1 RES1    0.0000
     28 H9         1.8112    3.4255   18.5524 H         1 RES1    0.0000
     29 C11        3.4107    4.6863   18.1512 C.3       1 RES1    0.0000
     30 C12        4.3817    5.5784   18.8909 C.ar      1 RES1    0.0000
     31 C13        4.1759    6.8106   19.4644 C.ar      1 RES1    0.0000
     32 H10        3.3365    7.2099   19.4305 H         1 RES1    0.0000
     33 C14        5.2310    7.4497   20.0915 C.ar      1 RES1    0.0000
     34 H11        5.1053    8.2853   20.4803 H         1 RES1    0.0000
     35 C15        6.4721    6.8413   20.1364 C.ar      1 RES1    0.0000
     36 H12        7.1760    7.2789   20.5612 H         1 RES1    0.0000
     37 C16        6.7009    5.5888   19.5637 C.ar      1 RES1    0.0000
     38 H13        7.5404    5.1888   19.5973 H         1 RES1    0.0000
     39 C17        5.6380    4.9686   18.9446 C.ar      1 RES1    0.0000
     40 C18        4.2841    3.4645   17.8149 C.2       1 RES1    0.0000
     41 C19        6.5682    1.8678   16.9022 C.3       1 RES1    0.0000
     42 H14        7.4239    1.4692   16.7251 H         1 RES1    0.0000
     43 H15        6.1967    2.2038   16.0825 H         1 RES1    0.0000
     44 H16        5.9783    1.2078   17.2746 H         1 RES1    0.0000
     45 C20        6.7334    2.9857   17.8686 C.2       1 RES1    0.0000
     46 C21        2.8584    5.3024   16.8603 C.3       1 RES1    0.0000
     47 H17        2.2949    4.6459   16.4210 H         1 RES1    0.0000
     48 H18        2.2973    6.0586   17.0931 H         1 RES1    0.0000
     49 C22        3.8970    5.7610   15.8932 C.2       1 RES1    0.0000
     50 C23        5.5687    6.2203   14.7495 C.2       1 RES1    0.0000
     51 C24        6.9849    6.2907   14.3166 C.ar      1 RES1    0.0000
     52 C25        7.3222    6.8998   13.1214 C.ar      1 RES1    0.0000
     53 H19        6.6562    7.2218   12.5580 H         1 RES1    0.0000
     54 C26        8.6568    7.0315   12.7628 C.ar      1 RES1    0.0000
     55 H20        8.8730    7.4441   11.9570 H         1 RES1    0.0000
     56 C27        9.6640    6.5653   13.5707 C.ar      1 RES1    0.0000
     57 C28        9.3151    5.9290   14.7426 C.ar      1 RES1    0.0000
     58 H21        9.9833    5.5847   15.2903 H         1 RES1    0.0000
     59 C29        7.9841    5.7903   15.1250 C.ar      1 RES1    0.0000
     60 H22        7.7698    5.3616   15.9231 H         1 RES1    0.0000
     61 C30       11.1238    6.7081   13.1761 C.3       1 RES1    0.0000
     62 H23       11.6779    6.3318   13.8628 H         1 RES1    0.0000
     63 H24       11.3347    7.6379   13.0681 H         1 RES1    0.0000
     64 H25       11.2781    6.2447   12.3495 H         1 RES1    0.0000
@<TRIPOS>BOND
     1    1    5 1
     2    2   45 2
     3    3   40 2
     4    4    7 1
     5    5   24 2
     6    6   24 1
     7    7   50 2
     8    8   49 2
     9    9   39 1
    10   10   11 1
    11   12   10 1
    12   13   10 1
    13   14   10 1
    14   15   14 ar
    15   16   15 1
    16   17   15 ar
    17   18   17 1
    18   19   17 ar
    19   20   19 ar
    20   21   20 1
    21   22   14 ar
    22   23   22 1
    23   24   19 1
    24   25    1 1
    25   26   25 1
    26   27   26 1
    27   28   26 1
    28   29   26 1
    29   30   29 1
    30   31   30 ar
    31   32   31 1
    32   33   31 ar
    33   34   33 1
    34   35   33 ar
    35   36   35 1
    36   37   35 ar
    37   38   37 1
    38   39   30 ar
    39   40    9 1
    40   41   42 1
    41   43   41 1
    42   44   41 1
    43   45    9 1
    44   46   29 1
    45   47   46 1
    46   48   46 1
    47   49    4 1
    48   50    8 1
    49   51   50 1
    50   52   51 ar
    51   53   52 1
    52   54   52 ar
    53   55   54 1
    54   56   54 ar
    55   57   56 ar
    56   58   57 1
    57   59   51 ar
    58   60   59 1
    59   61   56 1
    60   62   61 1
    61   63   61 1
    62   64   61 1
    63    6   25 2
    64   20   22 ar
    65   29   40 1
    66   37   39 ar
    67   41   45 1
    68   46   49 1
    69   57   59 ar
@<TRIPOS>SUBSTRUCTURE
     1 RES1 1

@<TRIPOS>CRYSIN
  15.5510    6.9695   25.2200  90.0000 103.4600  90.0000   5 1

