# MOL2 file generated by ConQuest
# Please check atom types

@<TRIPOS>MOLECULE
IDODIO
    69    70     1
SMALL
NO_CHARGES
****
Generated from CSD

@<TRIPOS>ATOM
      1 N1        12.9973    2.9855    4.1241 N.3       1 RES1    0.0000
      2 O1         6.5792    4.4764    6.1925 O.2       1 RES1    0.0000
      3 O2         5.1345    3.7624    4.6098 O.3       1 RES1    0.0000
      4 O3         5.7806    7.0568    4.4854 O.3       1 RES1    0.0000
      5 H1         6.4423    7.4792    4.8990 H         1 RES1    0.0000
      6 O4        12.3609    2.9031    5.4279 O.3       1 RES1    0.0000
      7 C1         6.9681    4.9870    3.8630 C.3       1 RES1    0.0000
      8 H2         6.9258    4.3347    3.1056 H         1 RES1    0.0000
      9 C2         8.4365    5.3460    4.1092 C.3       1 RES1    0.0000
     10 H3         8.5036    5.8766    4.9540 H         1 RES1    0.0000
     11 C3         8.7390    6.2592    2.9269 C.3       1 RES1    0.0000
     12 H4         8.9670    5.7275    2.1246 H         1 RES1    0.0000
     13 H5         9.4955    6.8618    3.1369 H         1 RES1    0.0000
     14 C4         7.4617    7.0618    2.6957 C.3       1 RES1    0.0000
     15 H6         7.5560    7.9737    3.0706 H         1 RES1    0.0000
     16 H7         7.2755    7.1376    1.7272 H         1 RES1    0.0000
     17 C5         6.3308    6.3188    3.3943 C.3       1 RES1    0.0000
     18 H8         5.6073    6.1225    2.7320 H         1 RES1    0.0000
     19 C6         9.3408    4.1571    4.2104 C.2       1 RES1    0.0000
     20 H9         9.3547    3.5582    3.4731 H         1 RES1    0.0000
     21 C7        10.1179    3.8676    5.2315 C.2       1 RES1    0.0000
     22 H10       10.1546    4.4851    5.9526 H         1 RES1    0.0000
     23 C8        10.9399    2.6364    5.3265 C.3       1 RES1    0.0000
     24 H11       10.7682    2.0636    4.5254 H         1 RES1    0.0000
     25 C9        10.5891    1.8586    6.5825 C.3       1 RES1    0.0000
     26 H12       11.1100    1.0299    6.6087 H         1 RES1    0.0000
     27 H13        9.6328    1.6437    6.5762 H         1 RES1    0.0000
     28 H14       10.7977    2.4016    7.3711 H         1 RES1    0.0000
     29 C10       13.7525    1.7195    3.9217 C.3       1 RES1    0.0000
     30 C11       12.7647    0.5827    3.7593 C.3       1 RES1    0.0000
     31 H15       12.2787    0.4497    4.6003 H         1 RES1    0.0000
     32 H16       13.2459   -0.2385    3.5268 H         1 RES1    0.0000
     33 H17       12.1280    0.8013    3.0469 H         1 RES1    0.0000
     34 C12       14.7049    1.3443    5.0915 C.3       1 RES1    0.0000
     35 H18       15.4939    1.9245    5.0690 H         1 RES1    0.0000
     36 H19       14.9834    0.4087    4.9978 H         1 RES1    0.0000
     37 H20       14.2351    1.4611    5.9438 H         1 RES1    0.0000
     38 C13       14.5332    1.8624    2.6095 C.3       1 RES1    0.0000
     39 H21       15.0988    1.0585    2.4858 H         1 RES1    0.0000
     40 H22       13.8914    1.8959    1.8571 H         1 RES1    0.0000
     41 C14       15.4074    3.0812    2.5520 C.3       1 RES1    0.0000
     42 H23       15.8651    3.1321    1.6759 H         1 RES1    0.0000
     43 H24       16.0945    3.0414    3.2631 H         1 RES1    0.0000
     44 C15       14.5124    4.3049    2.7520 C.3       1 RES1    0.0000
     45 H25       15.0722    5.1212    2.7232 H         1 RES1    0.0000
     46 H26       13.8654    4.3559    2.0046 H         1 RES1    0.0000
     47 C16       13.7469    4.2739    4.0730 C.3       1 RES1    0.0000
     48 C17       14.7027    4.5248    5.2527 C.3       1 RES1    0.0000
     49 H27       14.2501    4.2975    6.0926 H         1 RES1    0.0000
     50 H28       14.9627    5.4690    5.2665 H         1 RES1    0.0000
     51 H29       15.5006    3.9657    5.1502 H         1 RES1    0.0000
     52 C18       12.7373    5.4094    4.0605 C.3       1 RES1    0.0000
     53 H30       12.0614    5.2367    3.3718 H         1 RES1    0.0000
     54 H31       13.1953    6.2518    3.8642 H         1 RES1    0.0000
     55 H32       12.3028    5.4690    4.9365 H         1 RES1    0.0000
     56 C19        6.2430    4.3931    5.0428 C.2       1 RES1    0.0000
     57 C20        4.1288    3.2104    5.5677 C.3       1 RES1    0.0000
     58 C21        3.5545    4.3509    6.3738 C.3       1 RES1    0.0000
     59 H33        4.2393    4.6988    6.9824 H         1 RES1    0.0000
     60 H34        2.7890    4.0303    6.8936 H         1 RES1    0.0000
     61 H35        3.2626    5.0640    5.7676 H         1 RES1    0.0000
     62 C22        3.0935    2.6351    4.6328 C.3       1 RES1    0.0000
     63 H36        2.7693    3.3371    4.0317 H         1 RES1    0.0000
     64 H37        2.3436    2.2798    5.1552 H         1 RES1    0.0000
     65 H38        3.4935    1.9133    4.1054 H         1 RES1    0.0000
     66 C23        4.7620    2.1518    6.4075 C.3       1 RES1    0.0000
     67 H39        5.1616    1.4710    5.8276 H         1 RES1    0.0000
     68 H40        4.0828    1.7369    6.9786 H         1 RES1    0.0000
     69 H41        5.4601    2.5531    6.9686 H         1 RES1    0.0000
@<TRIPOS>BOND
     1    1    6 1
     2    2   56 2
     3    3   56 1
     4    4    5 1
     5    6   23 1
     6    7    8 1
     7    9    7 1
     8   10    9 1
     9   11    9 1
    10   12   11 1
    11   13   11 1
    12   14   11 1
    13   15   14 1
    14   16   14 1
    15   17    4 1
    16   18   17 1
    17   19    9 1
    18   20   19 1
    19   21   19 2
    20   22   21 1
    21   23   21 1
    22   24   23 1
    23   25   23 1
    24   26   25 1
    25   27   25 1
    26   28   25 1
    27   29    1 1
    28   30   29 1
    29   31   30 1
    30   32   30 1
    31   33   30 1
    32   34   29 1
    33   35   34 1
    34   36   34 1
    35   37   34 1
    36   38   29 1
    37   39   38 1
    38   40   38 1
    39   41   38 1
    40   42   41 1
    41   43   41 1
    42   44   41 1
    43   45   44 1
    44   46   44 1
    45   47    1 1
    46   48   47 1
    47   49   48 1
    48   50   48 1
    49   51   48 1
    50   52   47 1
    51   53   52 1
    52   54   52 1
    53   55   52 1
    54   56    7 1
    55   57    3 1
    56   58   57 1
    57   59   58 1
    58   60   58 1
    59   61   58 1
    60   62   57 1
    61   63   62 1
    62   64   62 1
    63   65   62 1
    64   66   57 1
    65   67   66 1
    66   68   66 1
    67   69   66 1
    68    7   17 1
    69   14   17 1
    70   44   47 1
@<TRIPOS>SUBSTRUCTURE
     1 RES1 1

@<TRIPOS>CRYSIN
  15.8550   12.4240   12.5760  90.0000  96.4030  90.0000  14 1

