# MOL2 file generated by ConQuest
# Please check atom types

@<TRIPOS>MOLECULE
IDOGAL
    43    46     1
SMALL
NO_CHARGES
****
Generated from CSD

@<TRIPOS>ATOM
      1 O1         1.2697    1.5430    9.5738 O.2       1 RES1    0.0000
      2 O2        -0.4931    1.1521    8.4192 O.2       1 RES1    0.0000
      3 O3        -0.5821    2.1754    3.8361 O.2       1 RES1    0.0000
      4 O4         0.9045    3.4083    2.8858 O.2       1 RES1    0.0000
      5 N1         0.6278    1.6385    8.5487 N.pl3     1 RES1    0.0000
      6 N2         0.4446    2.8502    3.8913 N.pl3     1 RES1    0.0000
      7 N3         2.8955    4.4030    4.2630 N.pl3     1 RES1    0.0000
      8 H1         2.5191    4.3940    3.4881 H         1 RES1    0.0000
      9 N4         4.0598    5.1202    4.4440 N.2       1 RES1    0.0000
     10 C1         2.3376    3.7127    5.2862 C.ar      1 RES1    0.0000
     11 C2         1.1372    2.9758    5.1434 C.ar      1 RES1    0.0000
     12 C3         0.5748    2.3239    6.2355 C.ar      1 RES1    0.0000
     13 H2        -0.2243    1.8563    6.1483 H         1 RES1    0.0000
     14 C4         1.2105    2.3834    7.4254 C.ar      1 RES1    0.0000
     15 C5         2.3928    3.0648    7.6167 C.ar      1 RES1    0.0000
     16 H3         2.8082    3.0770    8.4479 H         1 RES1    0.0000
     17 C6         2.9389    3.7233    6.5475 C.ar      1 RES1    0.0000
     18 H4         3.7341    4.1916    6.6634 H         1 RES1    0.0000
     19 C7         4.3867    5.8521    3.4296 C.2       1 RES1    0.0000
     20 H5         3.8293    5.8228    2.6860 H         1 RES1    0.0000
     21 C8         5.5549    6.7187    3.3545 C.ar      1 RES1    0.0000
     22 C9         5.8203    7.2997    2.0755 C.ar      1 RES1    0.0000
     23 C10        4.9722    7.1299    0.9390 C.ar      1 RES1    0.0000
     24 H6         4.2137    6.5955    1.0082 H         1 RES1    0.0000
     25 C11        5.2579    7.7370   -0.2381 C.ar      1 RES1    0.0000
     26 H7         4.6690    7.6334   -0.9493 H         1 RES1    0.0000
     27 C12        6.4132    8.5187   -0.4231 C.ar      1 RES1    0.0000
     28 H8         6.6071    8.8982   -1.2473 H         1 RES1    0.0000
     29 C13        7.2326    8.7015    0.6365 C.ar      1 RES1    0.0000
     30 H9         7.9923    9.2278    0.5335 H         1 RES1    0.0000
     31 C14        6.9677    8.1140    1.8989 C.ar      1 RES1    0.0000
     32 C15        7.8102    8.3441    2.9829 C.ar      1 RES1    0.0000
     33 H10        8.5710    8.8631    2.8589 H         1 RES1    0.0000
     34 C16        6.3907    7.0010    4.4513 C.ar      1 RES1    0.0000
     35 C17        7.5533    7.8227    4.2534 C.ar      1 RES1    0.0000
     36 C18        8.4380    8.0871    5.3248 C.ar      1 RES1    0.0000
     37 H11        9.1881    8.6166    5.1769 H         1 RES1    0.0000
     38 C19        8.2154    7.5893    6.5457 C.ar      1 RES1    0.0000
     39 H12        8.8212    7.7444    7.2337 H         1 RES1    0.0000
     40 C20        7.0506    6.8264    6.7789 C.ar      1 RES1    0.0000
     41 H13        6.8764    6.5033    7.6348 H         1 RES1    0.0000
     42 C21        6.1867    6.5604    5.7781 C.ar      1 RES1    0.0000
     43 H14        5.4230    6.0651    5.9680 H         1 RES1    0.0000
@<TRIPOS>BOND
     1    1    5 2
     2    2    5 2
     3    3    6 2
     4    4    6 2
     5    5   14 1
     6    6   11 1
     7    7    8 1
     8    9    7 1
     9   10    7 1
    10   11   10 ar
    11   12   11 ar
    12   13   12 1
    13   14   12 ar
    14   15   14 ar
    15   16   15 1
    16   17   10 ar
    17   18   17 1
    18   19    9 2
    19   20   19 1
    20   21   19 1
    21   22   21 ar
    22   23   22 ar
    23   24   23 1
    24   25   23 ar
    25   26   25 1
    26   27   25 ar
    27   28   27 1
    28   29   27 ar
    29   30   29 1
    30   31   22 ar
    31   32   31 ar
    32   33   32 1
    33   34   21 ar
    34   35   32 ar
    35   36   35 ar
    36   37   36 1
    37   38   36 ar
    38   39   38 1
    39   40   38 ar
    40   41   40 1
    41   42   34 ar
    42   43   42 1
    43   15   17 ar
    44   29   31 ar
    45   34   35 ar
    46   40   42 ar
@<TRIPOS>SUBSTRUCTURE
     1 RES1 1

@<TRIPOS>CRYSIN
   5.6355    8.1597   36.7940  90.0000  90.0000  90.0000  19 1

