# MOL2 file generated by ConQuest
# Please check atom types

@<TRIPOS>MOLECULE
IDOMEV
    30    31     1
SMALL
NO_CHARGES
****
Generated from CSD

@<TRIPOS>ATOM
      1 N1         5.0155   10.9919    2.3620 N.2       1 RES1    0.0000
      2 O1         4.2395   10.0802    3.0924 O.3       1 RES1    0.0000
      3 O2         1.8122    7.7711    2.0169 O.2       1 RES1    0.0000
      4 O3         2.4754    8.3891    4.0586 O.3       1 RES1    0.0000
      5 C1         4.8092   11.6134   -1.2272 C.ar      1 RES1    0.0000
      6 H1         4.1731   10.9783   -1.4629 H         1 RES1    0.0000
      7 C2         5.3011   12.4852   -2.1839 C.ar      1 RES1    0.0000
      8 H2         4.9866   12.4404   -3.0578 H         1 RES1    0.0000
      9 C3         6.2426   13.4082   -1.8481 C.ar      1 RES1    0.0000
     10 H3         6.5659   13.9954   -2.4916 H         1 RES1    0.0000
     11 C4         6.7130   13.4748   -0.5718 C.ar      1 RES1    0.0000
     12 H4         7.3650   14.1000   -0.3492 H         1 RES1    0.0000
     13 C5         6.2260   12.6206    0.3865 C.ar      1 RES1    0.0000
     14 H5         6.5503   12.6727    1.2568 H         1 RES1    0.0000
     15 C6         5.2597   11.6849    0.0719 C.ar      1 RES1    0.0000
     16 C7         4.6789   10.8256    1.1110 C.2       1 RES1    0.0000
     17 C8         3.7035    9.8170    0.9785 C.2       1 RES1    0.0000
     18 H6         3.3119    9.5062    0.1950 H         1 RES1    0.0000
     19 C9         3.4669    9.4096    2.2190 C.2       1 RES1    0.0000
     20 C10        2.5039    8.4306    2.7398 C.2       1 RES1    0.0000
     21 C11        1.4992    7.4933    4.6791 C.3       1 RES1    0.0000
     22 H7         0.6868    7.4699    4.1322 H         1 RES1    0.0000
     23 C12        1.1845    8.0965    6.0043 C.3       1 RES1    0.0000
     24 H8         1.9805    8.1254    6.5404 H         1 RES1    0.0000
     25 H9         0.5200    7.5645    6.4476 H         1 RES1    0.0000
     26 H10        0.8498    8.9884    5.8797 H         1 RES1    0.0000
     27 C13        2.0841    6.1254    4.7521 C.3       1 RES1    0.0000
     28 H11        2.2896    5.8169    3.8663 H         1 RES1    0.0000
     29 H12        1.4521    5.5281    5.1593 H         1 RES1    0.0000
     30 H13        2.8872    6.1488    5.2773 H         1 RES1    0.0000
@<TRIPOS>BOND
     1    1    2 1
     2    2   19 1
     3    3   20 2
     4    4   20 1
     5    5    6 1
     6    7    5 ar
     7    8    7 1
     8    9    7 ar
     9   10    9 1
    10   11    9 ar
    11   12   11 1
    12   13   11 ar
    13   14   13 1
    14   15    5 ar
    15   16    1 2
    16   17   16 1
    17   18   17 1
    18   19   17 2
    19   20   19 1
    20   21    4 1
    21   22   21 1
    22   23   21 1
    23   24   23 1
    24   25   23 1
    25   26   23 1
    26   27   21 1
    27   28   27 1
    28   29   27 1
    29   30   27 1
    30   13   15 ar
    31   15   16 1
@<TRIPOS>SUBSTRUCTURE
     1 RES1 1

@<TRIPOS>CRYSIN
   4.6311   16.5960   15.8970  90.0000  98.3210  90.0000 231 1

