# MOL2 file generated by ConQuest
# Please check atom types

@<TRIPOS>MOLECULE
IDOREZ
   132   140     2
SMALL
NO_CHARGES
****
Generated from CSD

@<TRIPOS>ATOM
      1 N1         0.0054   11.4719   10.3246 N.am      1 RES1    0.0000
      2 N2         9.5640   11.6101   14.0718 N.pl3     1 RES1    0.0000
      3 O1        -2.3398   11.5170    8.3149 O.3       1 RES1    0.0000
      4 O2        -0.3673   11.7162    7.2957 O.3       1 RES1    0.0000
      5 O3         0.8192    8.6378    9.9402 O.3       1 RES1    0.0000
      6 O4         2.7131    8.4720   11.2243 O.3       1 RES1    0.0000
      7 O5        -0.6566   13.0497   11.8001 O.2       1 RES1    0.0000
      8 N3         4.7060   14.4850   11.8160 N.am      1 RES1    0.0000
      9 O6         4.9022   12.2805   12.2982 O.2       1 RES1    0.0000
     10 O7         9.2468   10.5791   13.5435 O.2       1 RES1    0.0000
     11 O8        10.5623   11.7293   14.7541 O.2       1 RES1    0.0000
     12 C1        -1.2905   10.7536   10.3606 C.3       1 RES1    0.0000
     13 H1        -1.9914   11.3047   10.7449 H         1 RES1    0.0000
     14 H2        -1.2239    9.9262   10.8630 H         1 RES1    0.0000
     15 C2        -1.5404   10.4875    8.8778 C.3       1 RES1    0.0000
     16 H3        -1.9446    9.6062    8.7382 H         1 RES1    0.0000
     17 C3        -0.1667   10.5994    8.1609 C.3       1 RES1    0.0000
     18 H4         0.0718    9.7837    7.6758 H         1 RES1    0.0000
     19 C4         0.8437   10.9557    9.2377 C.3       1 RES1    0.0000
     20 H5         1.4325   11.6683    8.9109 H         1 RES1    0.0000
     21 C5         1.6877    9.7299    9.6379 C.3       1 RES1    0.0000
     22 H6         2.2655    9.4812    8.8865 H         1 RES1    0.0000
     23 C6         1.4800    7.8016   10.9047 C.3       1 RES1    0.0000
     24 C7         2.5191    9.8360   10.8788 C.3       1 RES1    0.0000
     25 H7         3.3633   10.2795   10.7018 H         1 RES1    0.0000
     26 H8         2.0485   10.3130   11.5785 H         1 RES1    0.0000
     27 C8        -1.7619   11.8515    7.0539 C.3       1 RES1    0.0000
     28 C9        -2.2339   10.9325    5.9454 C.3       1 RES1    0.0000
     29 H9        -2.0694   10.0192    6.1959 H         1 RES1    0.0000
     30 H10       -1.7563   11.1331    5.1378 H         1 RES1    0.0000
     31 H11       -3.1742   11.0604    5.8015 H         1 RES1    0.0000
     32 C10       -2.0288   13.3129    6.7703 C.3       1 RES1    0.0000
     33 H12       -2.9768   13.4642    6.7372 H         1 RES1    0.0000
     34 H13       -1.6379   13.5514    5.9267 H         1 RES1    0.0000
     35 H14       -1.6416   13.8495    7.4656 H         1 RES1    0.0000
     36 C11        0.6167    7.6780   12.1197 C.3       1 RES1    0.0000
     37 H15        0.4506    8.5491   12.4839 H         1 RES1    0.0000
     38 H16        1.0635    7.1356   12.7747 H         1 RES1    0.0000
     39 H17       -0.2174    7.2665   11.8793 H         1 RES1    0.0000
     40 C12        1.8376    6.4841   10.2972 C.3       1 RES1    0.0000
     41 H18        1.0363    5.9999   10.0871 H         1 RES1    0.0000
     42 H19        2.3638    5.9766   10.9206 H         1 RES1    0.0000
     43 H20        2.3442    6.6281    9.4954 H         1 RES1    0.0000
     44 C13        0.1651   12.6426   10.9666 C.2       1 RES1    0.0000
     45 C14        1.3228   13.5325   10.5938 C.ar      1 RES1    0.0000
     46 C15        2.4997   13.4991   11.3352 C.ar      1 RES1    0.0000
     47 H21        2.6235   12.8476   11.9873 H         1 RES1    0.0000
     48 C16        3.4924   14.4472   11.0948 C.ar      1 RES1    0.0000
     49 C17        3.2678   15.4418   10.1504 C.ar      1 RES1    0.0000
     50 H22        3.9053   16.1078   10.0208 H         1 RES1    0.0000
     51 C18        2.0995   15.4491    9.3975 C.ar      1 RES1    0.0000
     52 H23        1.9796   16.0831    8.7267 H         1 RES1    0.0000
     53 C19        1.1267   14.5213    9.6451 C.ar      1 RES1    0.0000
     54 H24        0.3260   14.5548    9.1744 H         1 RES1    0.0000
     55 C20        5.3425   13.4249   12.3659 C.2       1 RES1    0.0000
     56 C21        6.6526   13.6736   13.0267 C.ar      1 RES1    0.0000
     57 C22        7.4774   12.5960   13.2570 C.ar      1 RES1    0.0000
     58 H25        7.2074   11.7439   13.0007 H         1 RES1    0.0000
     59 C23        8.7022   12.7734   13.8688 C.ar      1 RES1    0.0000
     60 C24        9.1571   14.0240   14.2575 C.ar      1 RES1    0.0000
     61 H26        9.9938   14.1316   14.6505 H         1 RES1    0.0000
     62 C25        8.3313   15.0928   14.0444 C.ar      1 RES1    0.0000
     63 H27        8.5997   15.9392   14.3208 H         1 RES1    0.0000
     64 C26        7.1023   14.9372   13.4225 C.ar      1 RES1    0.0000
     65 H28        6.5683   15.6832   13.2671 H         1 RES1    0.0000
     66 H29        5.1183   15.2397   11.7757 H         1 RES1    0.0000
     67 N4         3.0868   11.4778    4.3633 N.am      2 RES2    0.0000
     68 N5        -6.3534   11.5912    0.5341 N.pl3     2 RES2    0.0000
     69 O9         3.5742   11.3978    7.4325 O.3       2 RES2    0.0000
     70 O10        5.4305   11.7860    6.2578 O.3       2 RES2    0.0000
     71 O11        2.9369   14.4530    4.1762 O.3       2 RES2    0.0000
     72 O12        2.2668   14.4719    2.0125 O.3       2 RES2    0.0000
     73 O13        3.9602   10.0294    2.8849 O.2       2 RES2    0.0000
     74 N6        -1.4811    8.6479    2.6646 N.am      2 RES2    0.0000
     75 O14       -1.6520   10.8961    2.3595 O.2       2 RES2    0.0000
     76 O15       -6.0550   12.6382    1.0811 O.2       2 RES2    0.0000
     77 O16       -7.3520   11.4850   -0.1468 O.2       2 RES2    0.0000
     78 C27        2.2249   11.8166    5.4977 C.3       2 RES2    0.0000
     79 H30        1.7845   11.0255    5.8475 H         2 RES2    0.0000
     80 H31        1.5513   12.4651    5.2400 H         2 RES2    0.0000
     81 C28        3.1800   12.3997    6.5140 C.3       2 RES2    0.0000
     82 H32        2.8018   13.1835    6.9646 H         2 RES2    0.0000
     83 C29        4.4830   12.7443    5.7439 C.3       2 RES2    0.0000
     84 H33        4.7696   13.6721    5.8763 H         2 RES2    0.0000
     85 C30        4.2005   12.4157    4.2856 C.3       2 RES2    0.0000
     86 H34        4.9785   11.9649    3.8984 H         2 RES2    0.0000
     87 C31        3.8626   13.6459    3.4535 C.3       2 RES2    0.0000
     88 H35        4.6787   14.1593    3.2851 H         2 RES2    0.0000
     89 C32        2.1486   15.1728    3.2218 C.3       2 RES2    0.0000
     90 C33        3.1452   13.3973    2.1464 C.3       2 RES2    0.0000
     91 H36        3.7740   13.3711    1.4093 H         2 RES2    0.0000
     92 H37        2.6601   12.5568    2.1752 H         2 RES2    0.0000
     93 C34        4.9863   11.3643    7.5333 C.3       2 RES2    0.0000
     94 C35        5.4934   12.2776    8.6115 C.3       2 RES2    0.0000
     95 H38        5.2137   13.1777    8.4272 H         2 RES2    0.0000
     96 H39        6.4529   12.2412    8.6374 H         2 RES2    0.0000
     97 H40        5.1393   11.9998    9.4594 H         2 RES2    0.0000
     98 C36        5.4257    9.9422    7.7406 C.3       2 RES2    0.0000
     99 H41        5.0435    9.6033    8.5539 H         2 RES2    0.0000
    100 H42        6.3837    9.9073    7.7981 H         2 RES2    0.0000
    101 H43        5.1317    9.4041    7.0006 H         2 RES2    0.0000
    102 C37        0.6991   15.0565    3.5673 C.3       2 RES2    0.0000
    103 H44        0.1934   15.6745    3.0346 H         2 RES2    0.0000
    104 H45        0.5754   15.2586    4.4972 H         2 RES2    0.0000
    105 H46        0.3991   14.1622    3.3902 H         2 RES2    0.0000
    106 C38        2.7924   16.4903    2.9022 C.3       2 RES2    0.0000
    107 H47        3.7476   16.3929    2.9180 H         2 RES2    0.0000
    108 H48        2.5250   17.1432    3.5529 H         2 RES2    0.0000
    109 H49        2.5157   16.7782    2.0284 H         2 RES2    0.0000
    110 C39        3.0786   10.3217    3.7227 C.2       2 RES2    0.0000
    111 C40        1.9323    9.3779    3.9358 C.ar      2 RES2    0.0000
    112 C41        0.7341    9.5655    3.2923 C.ar      2 RES2    0.0000
    113 H50        0.5842   10.3391    2.7985 H         2 RES2    0.0000
    114 C42       -0.2505    8.5941    3.3830 C.ar      2 RES2    0.0000
    115 C43       -0.0255    7.4555    4.1287 C.ar      2 RES2    0.0000
    116 H51       -0.6855    6.8026    4.1906 H         2 RES2    0.0000
    117 C44        1.1741    7.2854    4.7837 C.ar      2 RES2    0.0000
    118 H52        1.3100    6.5263    5.3034 H         2 RES2    0.0000
    119 C45        2.1682    8.2190    4.6772 C.ar      2 RES2    0.0000
    120 H53        2.9889    8.0837    5.0932 H         2 RES2    0.0000
    121 C46       -2.0902    9.7793    2.1953 C.2       2 RES2    0.0000
    122 C47       -3.3936    9.5277    1.4712 C.ar      2 RES2    0.0000
    123 C48       -4.2408   10.6169    1.3258 C.ar      2 RES2    0.0000
    124 H54       -3.9989   11.4516    1.6584 H         2 RES2    0.0000
    125 C49       -5.4513   10.4395    0.6752 C.ar      2 RES2    0.0000
    126 C50       -5.8375    9.2500    0.1526 C.ar      2 RES2    0.0000
    127 H55       -6.6562    9.1613   -0.2793 H         2 RES2    0.0000
    128 C51       -4.9949    8.1913    0.2778 C.ar      2 RES2    0.0000
    129 H56       -5.2406    7.3712   -0.0849 H         2 RES2    0.0000
    130 C52       -3.7768    8.3062    0.9343 C.ar      2 RES2    0.0000
    131 H57       -3.2196    7.5660    1.0135 H         2 RES2    0.0000
    132 H58       -1.9139    7.6344    2.5480 H         2 RES2    0.0000
@<TRIPOS>BOND
     1    1   12 1
     2    2   10 2
     3    3   15 1
     4    4   17 1
     5    5   21 1
     6    6   23 1
     7    7   44 2
     8    8   48 1
     9    9   55 2
    10   11    2 2
    11   12   13 1
    12   14   12 1
    13   15   12 1
    14   16   15 1
    15   17   15 1
    16   18   17 1
    17   19    1 1
    18   20   19 1
    19   21   19 1
    20   22   21 1
    21   23    5 1
    22   24    6 1
    23   25   24 1
    24   26   24 1
    25   27    3 1
    26   28   27 1
    27   29   28 1
    28   30   28 1
    29   31   28 1
    30   32   27 1
    31   33   32 1
    32   34   32 1
    33   35   32 1
    34   36   23 1
    35   37   36 1
    36   38   36 1
    37   39   36 1
    38   40   23 1
    39   41   40 1
    40   42   40 1
    41   43   40 1
    42   44    1 1
    43   45   44 1
    44   46   45 ar
    45   47   46 1
    46   48   46 ar
    47   49   48 ar
    48   50   49 1
    49   51   49 ar
    50   52   51 1
    51   53   45 ar
    52   54   53 1
    53   55    8 1
    54   56   55 1
    55   57   56 ar
    56   58   57 1
    57   59    2 1
    58   60   59 ar
    59   61   60 1
    60   62   60 ar
    61   63   62 1
    62   64   56 ar
    63   65   64 1
    64   66    8 1
    65   67   78 1
    66   68   76 2
    67   69   81 1
    68   70   83 1
    69   71   87 1
    70   72   89 1
    71   73  110 2
    72   74  114 1
    73   75  121 2
    74   77   68 2
    75   78   79 1
    76   80   78 1
    77   81   78 1
    78   82   81 1
    79   83   81 1
    80   84   83 1
    81   85   67 1
    82   86   85 1
    83   87   85 1
    84   88   87 1
    85   89   71 1
    86   90   72 1
    87   91   90 1
    88   92   90 1
    89   93   69 1
    90   94   93 1
    91   95   94 1
    92   96   94 1
    93   97   94 1
    94   98   93 1
    95   99   98 1
    96  100   98 1
    97  101   98 1
    98  102   89 1
    99  103  102 1
   100  104  102 1
   101  105  102 1
   102  106   89 1
   103  107  106 1
   104  108  106 1
   105  109  106 1
   106  110   67 1
   107  111  110 1
   108  112  111 ar
   109  113  112 1
   110  114  112 ar
   111  115  114 ar
   112  116  115 1
   113  117  115 ar
   114  118  117 1
   115  119  111 ar
   116  120  119 1
   117  121   74 1
   118  122  121 1
   119  123  122 ar
   120  124  123 1
   121  125   68 1
   122  126  125 ar
   123  127  126 1
   124  128  126 ar
   125  129  128 1
   126  130  122 ar
   127  131  130 1
   128  132   74 1
   129    4   27 1
   130   17   19 1
   131   21   24 1
   132   51   53 ar
   133   57   59 ar
   134   62   64 ar
   135   70   93 1
   136   83   85 1
   137   87   90 1
   138  117  119 ar
   139  123  125 ar
   140  128  130 ar
@<TRIPOS>SUBSTRUCTURE
     1 RES1 1
     2 RES2 67

@<TRIPOS>CRYSIN
  12.5459   14.5417   14.6939  90.0000 101.5630  90.0000   4 1

