# MOL2 file generated by ConQuest
# Please check atom types

@<TRIPOS>MOLECULE
IDOTAX
    44    46     2
SMALL
NO_CHARGES
****
Generated from CSD

@<TRIPOS>ATOM
      1 O1        10.4402    6.0225   14.5951 O.2       1 RES1    0.0000
      2 O2        11.6469    7.6633   15.3237 O.2       1 RES1    0.0000
      3 O3        17.2756    4.8196   16.2308 O.2       1 RES1    0.0000
      4 O4        16.1259    8.0845   13.2702 O.2       1 RES1    0.0000
      5 N1        11.5199    6.5343   14.8583 N.pl3     1 RES1    0.0000
      6 N2        16.3920    6.2231   14.6170 N.am      1 RES1    0.0000
      7 C1        12.7358    5.7486   14.5906 C.ar      1 RES1    0.0000
      8 C2        12.6018    4.4224   14.1951 C.ar      1 RES1    0.0000
      9 H1        11.7458    4.0259   14.0910 H         1 RES1    0.0000
     10 C3        13.7578    3.6980   13.9587 C.ar      1 RES1    0.0000
     11 H2        13.6971    2.7843   13.7059 H         1 RES1    0.0000
     12 C4        15.0144    4.2965   14.0865 C.ar      1 RES1    0.0000
     13 H3        15.8040    3.7980   13.9036 H         1 RES1    0.0000
     14 C5        15.1041    5.6307   14.4821 C.ar      1 RES1    0.0000
     15 C6        13.9561    6.3691   14.7527 C.ar      1 RES1    0.0000
     16 H4        14.0121    7.2728   15.0397 H         1 RES1    0.0000
     17 C7        17.3648    5.7959   15.5349 C.2       1 RES1    0.0000
     18 C8        18.4671    6.7949   15.4531 C.2       1 RES1    0.0000
     19 H5        19.2890    6.7469   15.9290 H         1 RES1    0.0000
     20 C9        18.1262    7.7559   14.6174 C.2       1 RES1    0.0000
     21 H6        18.6531    8.5170   14.4033 H         1 RES1    0.0000
     22 C10       16.7673    7.4447   14.0642 C.2       1 RES1    0.0000
     23 O5        15.5064    3.8440   10.9296 O.2       2 RES2    0.0000
     24 O6        16.7815    2.2105   10.2887 O.2       2 RES2    0.0000
     25 O7        22.3391    5.2775    9.3563 O.2       2 RES2    0.0000
     26 O8        21.2002    1.9460   12.2504 O.2       2 RES2    0.0000
     27 N3        16.6088    3.3588   10.7214 N.pl3     2 RES2    0.0000
     28 N4        21.4506    3.8326   10.9232 N.am      2 RES2    0.0000
     29 C11       17.7980    4.1878   10.9757 C.ar      2 RES2    0.0000
     30 C12       17.6177    5.5234   11.3326 C.ar      2 RES2    0.0000
     31 H7        16.7493    5.8906   11.4441 H         2 RES2    0.0000
     32 C13       18.7442    6.2904   11.5185 C.ar      2 RES2    0.0000
     33 H8        18.6550    7.2108   11.7370 H         2 RES2    0.0000
     34 C14       20.0076    5.7380   11.3921 C.ar      2 RES2    0.0000
     35 H9        20.7753    6.2778   11.5348 H         2 RES2    0.0000
     36 C15       20.1561    4.4038   11.0590 C.ar      2 RES2    0.0000
     37 C16       19.0407    3.6140   10.8285 C.ar      2 RES2    0.0000
     38 H10       19.1315    2.7024   10.5742 H         2 RES2    0.0000
     39 C17       22.4363    4.2898   10.0404 C.2       2 RES2    0.0000
     40 C18       23.5464    3.3122   10.1073 C.2       2 RES2    0.0000
     41 H11       24.3647    3.3728    9.6285 H         2 RES2    0.0000
     42 C19       23.2132    2.3372   10.9460 C.2       2 RES2    0.0000
     43 H12       23.7553    1.5901   11.1690 H         2 RES2    0.0000
     44 C20       21.8488    2.6091   11.4813 C.2       2 RES2    0.0000
@<TRIPOS>BOND
     1    1    5 2
     2    2    5 2
     3    3   17 2
     4    4   22 2
     5    5    7 1
     6    6   14 1
     7    7    8 ar
     8    8    9 1
     9   10    8 ar
    10   11   10 1
    11   12   10 ar
    12   13   12 1
    13   14   12 ar
    14   15    7 ar
    15   16   15 1
    16   17    6 1
    17   18   17 1
    18   19   18 1
    19   20   18 2
    20   21   20 1
    21   22    6 1
    22   23   27 2
    23   24   27 2
    24   25   39 2
    25   26   44 2
    26   27   29 1
    27   28   36 1
    28   29   30 ar
    29   30   31 1
    30   32   30 ar
    31   33   32 1
    32   34   32 ar
    33   35   34 1
    34   36   34 ar
    35   37   29 ar
    36   38   37 1
    37   39   28 1
    38   40   39 1
    39   41   40 1
    40   42   40 2
    41   43   42 1
    42   44   28 1
    43   14   15 ar
    44   20   22 1
    45   36   37 ar
    46   42   44 1
@<TRIPOS>SUBSTRUCTURE
     1 RES1 1
     2 RES2 23

@<TRIPOS>CRYSIN
  18.9815    6.6643   14.8702  90.0000  90.0000  90.0000  33 1

