# MOL2 file generated by ConQuest
# Please check atom types

@<TRIPOS>MOLECULE
IDOTIG
    42    45     1
SMALL
NO_CHARGES
****
Generated from CSD

@<TRIPOS>ATOM
      1 C1        10.0972    0.7766    6.2817 C.ar      1 RES1    0.0000
      2 C2         9.5944   -0.2561    5.4914 C.ar      1 RES1    0.0000
      3 H1         9.8719   -1.1334    5.6268 H         1 RES1    0.0000
      4 C3         8.6793    0.0459    4.5054 C.ar      1 RES1    0.0000
      5 H2         8.3264   -0.6375    3.9833 H         1 RES1    0.0000
      6 C4         8.2793    1.3501    4.2815 C.ar      1 RES1    0.0000
      7 H3         7.6809    1.5381    3.5960 H         1 RES1    0.0000
      8 C5         8.7600    2.3698    5.0642 C.ar      1 RES1    0.0000
      9 H4         8.4836    3.2440    4.9106 H         1 RES1    0.0000
     10 C6         9.6673    2.0911    6.0951 C.ar      1 RES1    0.0000
     11 C7        10.1737    3.0985    7.0137 C.2       1 RES1    0.0000
     12 C8        10.9682    2.6452    8.2093 C.3       1 RES1    0.0000
     13 C9        11.8342    1.4781    7.7515 C.3       1 RES1    0.0000
     14 H5        12.4384    1.7723    7.0523 H         1 RES1    0.0000
     15 H6        12.3657    1.1528    8.4947 H         1 RES1    0.0000
     16 C10       10.0045    2.2401    9.3302 C.2       1 RES1    0.0000
     17 C11        9.7507    1.0764   11.3520 C.3       1 RES1    0.0000
     18 H7         9.6950    1.8212   11.9550 H         1 RES1    0.0000
     19 H8        10.1416    0.3263   11.8054 H         1 RES1    0.0000
     20 H9         8.8700    0.8442   11.0485 H         1 RES1    0.0000
     21 C12       11.6565    3.9847    8.5657 C.3       1 RES1    0.0000
     22 H10       11.6638    4.1000    9.5388 H         1 RES1    0.0000
     23 C13       13.0623    4.1222    8.0316 C.ar      1 RES1    0.0000
     24 C14       13.3516    4.8059    6.8648 C.ar      1 RES1    0.0000
     25 H11       12.6658    5.2141    6.3866 H         1 RES1    0.0000
     26 C15       14.6575    4.8875    6.4021 C.ar      1 RES1    0.0000
     27 H12       14.8467    5.3436    5.6139 H         1 RES1    0.0000
     28 C16       15.6662    4.2930    7.1128 C.ar      1 RES1    0.0000
     29 H13       16.5399    4.3529    6.8017 H         1 RES1    0.0000
     30 C17       15.4092    3.6072    8.2827 C.ar      1 RES1    0.0000
     31 H14       16.1025    3.2063    8.7542 H         1 RES1    0.0000
     32 C18       14.0999    3.5221    8.7469 C.ar      1 RES1    0.0000
     33 C19       14.7207    2.2018   10.6444 C.3       1 RES1    0.0000
     34 H15       15.0963    1.4887   10.1233 H         1 RES1    0.0000
     35 H16       14.3279    1.8422   11.4428 H         1 RES1    0.0000
     36 H17       15.4123    2.8239   10.8801 H         1 RES1    0.0000
     37 N1        10.0731    4.3659    6.8877 N.2       1 RES1    0.0000
     38 O1        10.9950    0.4239    7.2572 O.3       1 RES1    0.0000
     39 O2        10.7756    4.9716    7.9668 O.3       1 RES1    0.0000
     40 O3         8.8852    2.6415    9.4106 O.2       1 RES1    0.0000
     41 O4        10.5760    1.4369   10.2119 O.3       1 RES1    0.0000
     42 O5        13.7166    2.8729    9.8793 O.3       1 RES1    0.0000
@<TRIPOS>BOND
     1    1    2 ar
     2    2    3 1
     3    4    2 ar
     4    5    4 1
     5    6    4 ar
     6    7    6 1
     7    8    6 ar
     8    9    8 1
     9   10    1 ar
    10   11   10 1
    11   12   11 1
    12   13   12 1
    13   14   13 1
    14   15   13 1
    15   16   12 1
    16   17   18 1
    17   19   17 1
    18   20   17 1
    19   21   12 1
    20   22   21 1
    21   23   21 1
    22   24   23 ar
    23   25   24 1
    24   26   24 ar
    25   27   26 1
    26   28   26 ar
    27   29   28 1
    28   30   28 ar
    29   31   30 1
    30   32   23 ar
    31   33   34 1
    32   35   33 1
    33   36   33 1
    34   37   11 2
    35   38    1 1
    36   39   21 1
    37   40   16 2
    38   41   16 1
    39   42   32 1
    40    8   10 ar
    41   13   38 1
    42   17   41 1
    43   30   32 ar
    44   33   42 1
    45   37   39 1
@<TRIPOS>SUBSTRUCTURE
     1 RES1 1

@<TRIPOS>CRYSIN
   9.4804    9.6401   10.7013  81.3080  67.8010  69.0850   2 1

