# MOL2 file generated by ConQuest
# Please check atom types

@<TRIPOS>MOLECULE
IDOWOO
    44    47     1
SMALL
NO_CHARGES
****
Generated from CSD

@<TRIPOS>ATOM
      1 O1         1.7424    2.9710   -2.3207 O.3       1 RES1    0.0000
      2 O2         2.9884    1.8905   -3.8353 O.2       1 RES1    0.0000
      3 O3         5.9053    1.3691   -0.8886 O.3       1 RES1    0.0000
      4 O4        -1.5066    2.8691    0.7225 O.2       1 RES1    0.0000
      5 O5        -1.9782    1.1319    1.9079 O.2       1 RES1    0.0000
      6 N1         5.2603    0.7809   -2.9268 N.pl3     1 RES1    0.0000
      7 H1         4.7269    0.7500   -3.6007 H         1 RES1    0.0000
      8 H2         6.0187    0.3750   -2.9590 H         1 RES1    0.0000
      9 N2        -1.1920    1.8460    1.3076 N.pl3     1 RES1    0.0000
     10 C1         0.7086    3.2553   -3.3306 C.3       1 RES1    0.0000
     11 H3        -0.0146    3.7356   -2.9211 H         1 RES1    0.0000
     12 H4         0.3790    2.4290   -3.6919 H         1 RES1    0.0000
     13 H5         1.0871    3.7853   -4.0359 H         1 RES1    0.0000
     14 C2         2.8478    2.2903   -2.6841 C.2       1 RES1    0.0000
     15 C3         3.7683    2.1508   -1.6049 C.2       1 RES1    0.0000
     16 C4         4.9103    1.4632   -1.8212 C.2       1 RES1    0.0000
     17 C5         5.8444    2.1996    0.2383 C.ar      1 RES1    0.0000
     18 C6         7.0254    2.2604    0.9668 C.ar      1 RES1    0.0000
     19 H6         7.7704    1.7749    0.6950 H         1 RES1    0.0000
     20 C7         7.0816    3.0301    2.0765 C.ar      1 RES1    0.0000
     21 H7         7.8726    3.0729    2.5633 H         1 RES1    0.0000
     22 C8         5.9553    3.7741    2.5079 C.ar      1 RES1    0.0000
     23 C9         5.9819    4.5670    3.6618 C.ar      1 RES1    0.0000
     24 H8         6.7619    4.6081    4.1667 H         1 RES1    0.0000
     25 C10        4.8927    5.2793    4.0628 C.ar      1 RES1    0.0000
     26 H9         4.9294    5.7939    4.8376 H         1 RES1    0.0000
     27 C11        3.7275    5.2340    3.3093 C.ar      1 RES1    0.0000
     28 H10        2.9870    5.7288    3.5783 H         1 RES1    0.0000
     29 C12        3.6535    4.4754    2.1809 C.ar      1 RES1    0.0000
     30 H11        2.8629    4.4599    1.6928 H         1 RES1    0.0000
     31 C13        4.7627    3.7073    1.7357 C.ar      1 RES1    0.0000
     32 C14        4.7154    2.8845    0.5718 C.ar      1 RES1    0.0000
     33 C15        3.4649    2.7244   -0.2434 C.3       1 RES1    0.0000
     34 H12        3.0710    3.6123   -0.3716 H         1 RES1    0.0000
     35 C16        2.4354    1.8511    0.4913 C.ar      1 RES1    0.0000
     36 C17        2.7899    0.5942    0.9851 C.ar      1 RES1    0.0000
     37 H13        3.6687    0.3022    0.9015 H         1 RES1    0.0000
     38 C18        1.8609   -0.2226    1.5958 C.ar      1 RES1    0.0000
     39 H14        2.1217   -1.0531    1.9216 H         1 RES1    0.0000
     40 C19        0.5502    0.1798    1.7291 C.ar      1 RES1    0.0000
     41 H15       -0.0841   -0.3639    2.1367 H         1 RES1    0.0000
     42 C20        0.2167    1.4204    1.2342 C.ar      1 RES1    0.0000
     43 C21        1.1241    2.2518    0.6157 C.ar      1 RES1    0.0000
     44 H16        0.8533    3.0772    0.2839 H         1 RES1    0.0000
@<TRIPOS>BOND
     1    1   10 1
     2    2   14 2
     3    3   16 1
     4    4    9 2
     5    5    9 2
     6    6    7 1
     7    8    6 1
     8    9   42 1
     9   10   11 1
    10   12   10 1
    11   13   10 1
    12   14    1 1
    13   15   14 1
    14   16    6 1
    15   17    3 1
    16   18   17 ar
    17   19   18 1
    18   20   18 ar
    19   21   20 1
    20   22   20 ar
    21   23   22 ar
    22   24   23 1
    23   25   23 ar
    24   26   25 1
    25   27   25 ar
    26   28   27 1
    27   29   27 ar
    28   30   29 1
    29   31   22 ar
    30   32   17 ar
    31   33   15 1
    32   34   33 1
    33   35   33 1
    34   36   35 ar
    35   37   36 1
    36   38   36 ar
    37   39   38 1
    38   40   38 ar
    39   41   40 1
    40   42   40 ar
    41   43   35 ar
    42   44   43 1
    43   15   16 2
    44   29   31 ar
    45   31   32 ar
    46   32   33 1
    47   42   43 ar
@<TRIPOS>SUBSTRUCTURE
     1 RES1 1

@<TRIPOS>CRYSIN
  12.0940    8.5620   18.1860  90.0000 108.9200  90.0000  14 1

