# MOL2 file generated by ConQuest
# Please check atom types

@<TRIPOS>MOLECULE
IDUDUI
   189   201     3
SMALL
USER_CHARGES
****
Generated from CSD

@<TRIPOS>ATOM
      1 O1         6.5276    8.2307   17.2735 O.2       1 RES1   -1.0000
      2 N1         7.1481    8.3526   16.1372 N.pl3     1 RES1    1.0000
      3 C1         2.0633    9.0781   14.5745 C.3       1 RES1    0.0000
      4 C2         0.5913    8.7464   14.9520 C.3       1 RES1    0.0000
      5 H1         0.6381    8.0495   15.6407 H         1 RES1    0.0000
      6 C3         2.8362    9.5217   15.8176 C.3       1 RES1    0.0000
      7 H2         2.4913   10.3793   16.1098 H         1 RES1    0.0000
      8 H3         2.6766    8.8821   16.5291 H         1 RES1    0.0000
      9 C4         6.4254    8.3915   14.9601 C.ar      1 RES1    0.0000
     10 C5         4.2151    7.8877   13.8210 C.3       1 RES1    0.0000
     11 H4         4.5694    7.0349   13.5231 H         1 RES1    0.0000
     12 H5         4.3786    8.5422   13.1249 H         1 RES1    0.0000
     13 C6        -0.1963    8.1284   13.7705 C.3       1 RES1    0.0000
     14 H6        -0.2621    8.8002   13.0598 H         1 RES1    0.0000
     15 C7         4.9271    8.3165   15.1012 C.3       1 RES1    0.0000
     16 H7         4.7334    7.6398   15.7824 H         1 RES1    0.0000
     17 C8         2.7126    7.7626   14.0588 C.3       1 RES1    0.0000
     18 H8         2.6058    7.1067   14.7791 H         1 RES1    0.0000
     19 C9         7.1223    8.4916   13.7751 C.ar      1 RES1    0.0000
     20 H9         6.6513    8.5108   12.9736 H         1 RES1    0.0000
     21 C10       -0.1677    9.9241   15.5900 C.3       1 RES1    0.0000
     22 H10       -0.1624   10.6707   14.9706 H         1 RES1    0.0000
     23 H11        0.3041   10.2023   16.3913 H         1 RES1    0.0000
     24 C11       -1.6008    7.7916   14.2423 C.3       1 RES1    0.0000
     25 H12       -1.4879    7.1988   15.0146 H         1 RES1    0.0000
     26 C12        8.5193    8.4026   16.1366 C.ar      1 RES1    0.0000
     27 C13        1.9782    7.1897   12.8545 C.3       1 RES1    0.0000
     28 H13        2.4130    6.3692   12.5696 H         1 RES1    0.0000
     29 H14        2.0159    7.8209   12.1197 H         1 RES1    0.0000
     30 C14        9.1840    8.5210   14.9392 C.ar      1 RES1    0.0000
     31 H15       10.1121    8.5705   14.9342 H         1 RES1    0.0000
     32 C15       -2.3614    9.0207   14.7663 C.3       1 RES1    0.0000
     33 C16        2.1161   10.2023   13.5273 C.3       1 RES1    0.0000
     34 H16        3.0096   10.2792   13.1862 H         1 RES1    0.0000
     35 H17        1.8561   11.0318   13.9348 H         1 RES1    0.0000
     36 H18        1.5154    9.9969   12.8071 H         1 RES1    0.0000
     37 C17        0.5237    6.9013   13.2034 C.3       1 RES1    0.0000
     38 H19        0.4892    6.1831   13.8544 H         1 RES1    0.0000
     39 H20        0.0592    6.6009   12.4069 H         1 RES1    0.0000
     40 O2        -4.5085    8.7638   15.8839 O.2       1 RES1    0.0000
     41 C18        4.3438    9.6466   15.5980 C.3       1 RES1    0.0000
     42 H21        4.7722    9.8988   16.4315 H         1 RES1    0.0000
     43 H22        4.5209   10.3419   14.9457 H         1 RES1    0.0000
     44 C19        8.5000    8.5645   13.7504 C.ar      1 RES1    0.0000
     45 H23        8.9564    8.6424   12.9430 H         1 RES1    0.0000
     46 C20       -2.5997   10.0920   13.6863 C.3       1 RES1    0.0000
     47 H24       -1.7566   10.4542   13.4044 H         1 RES1    0.0000
     48 H25       -3.1460   10.7941   14.0477 H         1 RES1    0.0000
     49 H26       -3.0452    9.6945   12.9334 H         1 RES1    0.0000
     50 C21       -1.6268    9.5983   15.9630 C.3       1 RES1    0.0000
     51 H27       -1.6401    8.9590   16.6919 H         1 RES1    0.0000
     52 H28       -2.0745   10.4056   16.2611 H         1 RES1    0.0000
     53 C22        9.1826    8.3024   17.4604 C.3       1 RES1    0.0000
     54 H29        8.8524    8.9954   18.0379 H         1 RES1    0.0000
     55 H30       10.1321    8.4016   17.3505 H         1 RES1    0.0000
     56 H31        8.9932    7.4456   17.8502 H         1 RES1    0.0000
     57 C23       -2.6015    7.0875   13.3169 C.3       1 RES1    0.0000
     58 H32       -2.6255    7.5073   12.4433 H         1 RES1    0.0000
     59 H33       -2.3834    6.1487   13.2130 H         1 RES1    0.0000
     60 C24       -3.7212    8.4107   15.0324 C.2       1 RES1    0.0000
     61 C25       -3.9293    7.2696   14.0560 C.3       1 RES1    0.0000
     62 H34       -4.6397    7.4840   13.4312 H         1 RES1    0.0000
     63 H35       -4.1679    6.4582   14.5302 H         1 RES1    0.0000
     64 O3         8.0854    8.4039   10.6688 O.2       2 RES2   -1.0000
     65 N2         8.6235    8.4630    9.4832 N.pl3     2 RES2    1.0000
     66 C26        1.9844    8.7566    8.7549 C.3       2 RES2    0.0000
     67 H36        2.0755    8.0758    9.4545 H         2 RES2    0.0000
     68 C27        4.2882    9.5473    9.4733 C.3       2 RES2    0.0000
     69 H37        3.9557   10.4046    9.7838 H         2 RES2    0.0000
     70 H38        4.1857    8.9114   10.1974 H         2 RES2    0.0000
     71 C28        3.4310    9.0861    8.2833 C.3       2 RES2    0.0000
     72 C29        4.0586    7.7653    7.7482 C.3       2 RES2    0.0000
     73 H39        4.0063    7.1219    8.4857 H         2 RES2    0.0000
     74 C30        7.8170    8.4339    8.3643 C.ar      2 RES2    0.0000
     75 C31       -0.2370    7.7724    8.2121 C.3       2 RES2    0.0000
     76 H40       -0.0678    7.1856    8.9797 H         2 RES2    0.0000
     77 C32        1.1283    8.1102    7.6394 C.3       2 RES2    0.0000
     78 H41        1.0086    8.7668    6.9214 H         2 RES2    0.0000
     79 C33        5.5337    7.8978    7.4110 C.3       2 RES2    0.0000
     80 H42        5.6410    8.5371    6.6898 H         2 RES2    0.0000
     81 H43        5.8703    7.0420    7.1052 H         2 RES2    0.0000
     82 C34        8.4244    8.4623    7.1179 C.ar      2 RES2    0.0000
     83 H44        7.8972    8.4350    6.3509 H         2 RES2    0.0000
     84 C35        9.9871    8.5483    9.3816 C.ar      2 RES2    0.0000
     85 C36        3.4120   10.1932    7.2161 C.3       2 RES2    0.0000
     86 H45        4.2834   10.2701    6.8180 H         2 RES2    0.0000
     87 H46        3.1729   11.0278    7.6260 H         2 RES2    0.0000
     88 H47        2.7690    9.9737    6.5385 H         2 RES2    0.0000
     89 C37        6.3468    8.3564    8.6142 C.3       2 RES2    0.0000
     90 H48        6.2123    7.6884    9.3186 H         2 RES2    0.0000
     91 C38        5.7781    9.6843    9.1445 C.3       2 RES2    0.0000
     92 H49        6.2630    9.9474    9.9427 H         2 RES2    0.0000
     93 H50        5.8986   10.3773    8.4780 H         2 RES2    0.0000
     94 C39        3.2440    7.1684    6.6122 C.3       2 RES2    0.0000
     95 H51        3.2284    7.7875    5.8665 H         2 RES2    0.0000
     96 H52        3.6626    6.3470    6.3126 H         2 RES2    0.0000
     97 C40        1.2591    9.9494    9.4139 C.3       2 RES2    0.0000
     98 H53        1.7846   10.2579   10.1687 H         2 RES2    0.0000
     99 H54        1.2048   10.6767    8.7748 H         2 RES2    0.0000
    100 C41       -0.1598    9.6105    9.9010 C.3       2 RES2    0.0000
    101 H55       -0.1082    8.9833   10.6397 H         2 RES2    0.0000
    102 H56       -0.5943   10.4168   10.2204 H         2 RES2    0.0000
    103 C42        1.8209    6.8771    7.0535 C.3       2 RES2    0.0000
    104 H57        1.8338    6.1720    7.7198 H         2 RES2    0.0000
    105 H58        1.3112    6.5574    6.2934 H         2 RES2    0.0000
    106 C43       10.5568    8.5857    8.1242 C.ar      2 RES2    0.0000
    107 H59       11.4811    8.6494    8.0453 H         2 RES2    0.0000
    108 C44       -0.9767    9.0035    8.7771 C.3       2 RES2    0.0000
    109 C45       -1.3170   10.0516    7.7049 C.3       2 RES2    0.0000
    110 H60       -0.5062   10.3864    7.3159 H         2 RES2    0.0000
    111 H61       -1.8029   10.7759    8.1085 H         2 RES2    0.0000
    112 H62       -1.8565    9.6459    7.0210 H         2 RES2    0.0000
    113 C46        9.7922    8.5311    6.9957 C.ar      2 RES2    0.0000
    114 H63       10.1901    8.5402    6.1556 H         2 RES2    0.0000
    115 C47       -1.3110    7.0632    7.3685 C.3       2 RES2    0.0000
    116 H64       -1.4239    7.4962    6.5079 H         2 RES2    0.0000
    117 H65       -1.0862    6.1305    7.2278 H         2 RES2    0.0000
    118 C48       10.7349    8.5766   10.6588 C.3       2 RES2    0.0000
    119 H66       10.5784    7.7602   11.1394 H         2 RES2    0.0000
    120 H67       10.4373    9.3212   11.1873 H         2 RES2    0.0000
    121 H68       11.6729    8.6666   10.4788 H         2 RES2    0.0000
    122 O4        -3.0403    8.7516   10.0402 O.2       2 RES2    0.0000
    123 C49       -2.5567    7.2048    8.2194 C.3       2 RES2    0.0000
    124 H69       -2.7112    6.3945    8.7289 H         2 RES2    0.0000
    125 H70       -3.3317    7.3707    7.6605 H         2 RES2    0.0000
    126 C50       -2.3137    8.3844    9.1556 C.2       2 RES2    0.0000
    127 O5         1.2620   13.5821   15.2413 O.2       3 RES3   -1.0000
    128 N3         0.8573   13.4891   16.4822 N.pl3     3 RES3    1.0000
    129 C51        5.5796   12.6387   17.6517 C.3       3 RES3    0.0000
    130 H71        5.5665   12.0991   16.8335 H         3 RES3    0.0000
    131 C52        5.1744   14.6302   16.2159 C.3       3 RES3    0.0000
    132 H72        5.4711   15.5295   16.0045 H         3 RES3    0.0000
    133 H73        5.2140   14.1072   15.3995 H         3 RES3    0.0000
    134 C53        7.5264   13.7638   16.5833 C.3       3 RES3    0.0000
    135 H74        7.3555   13.1664   15.8245 H         3 RES3    0.0000
    136 C54        6.1381   14.0213   17.2391 C.3       3 RES3    0.0000
    137 C55       10.4596   14.0202   16.2592 C.3       3 RES3    0.0000
    138 C56        8.5002   12.9963   17.5106 C.3       3 RES3    0.0000
    139 H75        8.7058   13.5629   18.2829 H         3 RES3    0.0000
    140 C57        9.7827   12.7415   16.7462 C.3       3 RES3    0.0000
    141 H76        9.5222   12.2508   15.9394 H         3 RES3    0.0000
    142 C58        6.4982   11.9028   18.6239 C.3       3 RES3    0.0000
    143 H77        6.5800   12.4167   19.4432 H         3 RES3    0.0000
    144 H78        6.1095   11.0419   18.8478 H         3 RES3    0.0000
    145 O6        12.4071   13.9473   14.7822 O.2       3 RES3    0.0000
    146 C59        8.1774   15.0237   15.9834 C.3       3 RES3    0.0000
    147 H79        7.5744   15.4051   15.3267 H         3 RES3    0.0000
    148 H80        8.2969   15.6793   16.6880 H         3 RES3    0.0000
    149 C60        9.5341   14.7607   15.3160 C.3       3 RES3    0.0000
    150 H81        9.4035   14.2346   14.5111 H         3 RES3    0.0000
    151 H82        9.9392   15.6044   15.0606 H         3 RES3    0.0000
    152 C61       10.9329   14.9478   17.3951 C.3       3 RES3    0.0000
    153 H83       11.5710   14.4835   17.9421 H         3 RES3    0.0000
    154 H84       10.1806   15.2078   17.9306 H         3 RES3    0.0000
    155 H85       11.3434   15.7298   17.0193 H         3 RES3    0.0000
    156 C62        3.2162   13.2979   17.0847 C.3       3 RES3    0.0000
    157 H86        3.2850   12.7324   16.2879 H         3 RES3    0.0000
    158 C63       -0.4883   13.5700   16.7449 C.ar      3 RES3    0.0000
    159 C64        1.7708   13.3090   17.4935 C.ar      3 RES3    0.0000
    160 C65        1.3037   13.1522   18.7758 C.ar      3 RES3    0.0000
    161 H87        1.9111   13.0136   19.4662 H         3 RES3    0.0000
    162 C66       -0.9200   13.4294   18.0536 C.ar      3 RES3    0.0000
    163 H88       -1.8286   13.4951   18.2446 H         3 RES3    0.0000
    164 C67        4.1327   12.6970   18.1382 C.3       3 RES3    0.0000
    165 H89        3.8291   11.8007   18.3538 H         3 RES3    0.0000
    166 H90        4.0868   13.2311   18.9473 H         3 RES3    0.0000
    167 C68        3.7201   14.6919   16.6913 C.3       3 RES3    0.0000
    168 H91        3.1637   15.0500   15.9815 H         3 RES3    0.0000
    169 H92        3.6536   15.2878   17.4539 H         3 RES3    0.0000
    170 C69       11.7561   13.4709   15.6733 C.2       3 RES3    0.0000
    171 C70        7.8670   11.6975   18.0170 C.3       3 RES3    0.0000
    172 H93        7.7938   11.0733   17.2777 H         3 RES3    0.0000
    173 H94        8.4500   11.2999   18.6831 H         3 RES3    0.0000
    174 C71       10.9236   11.9281   17.3850 C.3       3 RES3    0.0000
    175 H95       11.1289   12.2488   18.2772 H         3 RES3    0.0000
    176 H96       10.7040   10.9843   17.4271 H         3 RES3    0.0000
    177 C72        6.2800   14.9752   18.4438 C.3       3 RES3    0.0000
    178 H97        6.5405   15.8452   18.1336 H         3 RES3    0.0000
    179 H98        6.9486   14.6353   19.0430 H         3 RES3    0.0000
    180 H99        5.4396   15.0359   18.9033 H         3 RES3    0.0000
    181 C73       -1.3651   13.7683   15.5661 C.3       3 RES3    0.0000
    182 H100      -1.1770   13.0935   14.9093 H         3 RES3    0.0000
    183 H101      -1.2021   14.6363   15.1889 H         3 RES3    0.0000
    184 H102      -2.2835   13.7046   15.8360 H         3 RES3    0.0000
    185 C74       -0.0407   13.1947   19.0649 C.ar      3 RES3    0.0000
    186 H103      -0.3417   13.0662   19.9353 H         3 RES3    0.0000
    187 C75       12.0823   12.1891   16.4163 C.3       3 RES3    0.0000
    188 H104      12.9152   12.2862   16.9044 H         3 RES3    0.0000
    189 H105      12.1723   11.4517   15.7939 H         3 RES3    0.0000
@<TRIPOS>BOND
     1    1    2 1
     2    2    9 ar
     3    3    4 1
     4    4    5 1
     5    6    3 1
     6    7    6 1
     7    8    6 1
     8    9   15 1
     9   10   11 1
    10   12   10 1
    11   13    4 1
    12   14   13 1
    13   15   10 1
    14   16   15 1
    15   17    3 1
    16   18   17 1
    17   19    9 ar
    18   20   19 1
    19   21    4 1
    20   22   21 1
    21   23   21 1
    22   24   13 1
    23   25   24 1
    24   26    2 ar
    25   27   17 1
    26   28   27 1
    27   29   27 1
    28   30   26 ar
    29   31   30 1
    30   32   24 1
    31   33    3 1
    32   34   33 1
    33   35   33 1
    34   36   33 1
    35   37   13 1
    36   38   37 1
    37   39   37 1
    38   40   60 2
    39   41    6 1
    40   42   41 1
    41   43   41 1
    42   44   19 ar
    43   45   44 1
    44   46   32 1
    45   47   46 1
    46   48   46 1
    47   49   46 1
    48   50   21 1
    49   51   50 1
    50   52   50 1
    51   53   26 1
    52   54   53 1
    53   55   53 1
    54   56   53 1
    55   57   24 1
    56   58   57 1
    57   59   57 1
    58   60   32 1
    59   61   57 1
    60   62   61 1
    61   63   61 1
    62   64   65 1
    63   65   74 ar
    64   66   67 1
    65   68   69 1
    66   70   68 1
    67   71   66 1
    68   72   71 1
    69   73   72 1
    70   74   82 ar
    71   75   76 1
    72   77   66 1
    73   78   77 1
    74   79   72 1
    75   80   79 1
    76   81   79 1
    77   82   83 1
    78   84   65 ar
    79   85   71 1
    80   86   85 1
    81   87   85 1
    82   88   85 1
    83   89   74 1
    84   90   89 1
    85   91   68 1
    86   92   91 1
    87   93   91 1
    88   94   72 1
    89   95   94 1
    90   96   94 1
    91   97   66 1
    92   98   97 1
    93   99   97 1
    94  100   97 1
    95  101  100 1
    96  102  100 1
    97  103   77 1
    98  104  103 1
    99  105  103 1
   100  106   84 ar
   101  107  106 1
   102  108   75 1
   103  109  108 1
   104  110  109 1
   105  111  109 1
   106  112  109 1
   107  113   82 ar
   108  114  113 1
   109  115   75 1
   110  116  115 1
   111  117  115 1
   112  118   84 1
   113  119  118 1
   114  120  118 1
   115  121  118 1
   116  122  126 2
   117  123  115 1
   118  124  123 1
   119  125  123 1
   120  126  108 1
   121  127  128 1
   122  128  158 ar
   123  129  130 1
   124  131  132 1
   125  133  131 1
   126  134  135 1
   127  136  129 1
   128  137  140 1
   129  138  134 1
   130  139  138 1
   131  140  138 1
   132  141  140 1
   133  142  129 1
   134  143  142 1
   135  144  142 1
   136  145  170 2
   137  146  134 1
   138  147  146 1
   139  148  146 1
   140  149  137 1
   141  150  149 1
   142  151  149 1
   143  152  137 1
   144  153  152 1
   145  154  152 1
   146  155  152 1
   147  156  157 1
   148  158  162 ar
   149  159  128 ar
   150  160  159 ar
   151  161  160 1
   152  162  163 1
   153  164  129 1
   154  165  164 1
   155  166  164 1
   156  167  131 1
   157  168  167 1
   158  169  167 1
   159  170  137 1
   160  171  138 1
   161  172  171 1
   162  173  171 1
   163  174  140 1
   164  175  174 1
   165  176  174 1
   166  177  136 1
   167  178  177 1
   168  179  177 1
   169  180  177 1
   170  181  158 1
   171  182  181 1
   172  183  181 1
   173  184  181 1
   174  185  160 ar
   175  186  185 1
   176  187  170 1
   177  188  187 1
   178  189  187 1
   179   10   17 1
   180   15   41 1
   181   27   37 1
   182   30   44 ar
   183   32   50 1
   184   60   61 1
   185   68   71 1
   186   75   77 1
   187   79   89 1
   188   89   91 1
   189   94  103 1
   190  100  108 1
   191  106  113 ar
   192  123  126 1
   193  131  136 1
   194  134  136 1
   195  142  171 1
   196  146  149 1
   197  156  159 1
   198  156  164 1
   199  156  167 1
   200  162  185 ar
   201  174  187 1
@<TRIPOS>SUBSTRUCTURE
     1 RES1 1
     2 RES2 64
     3 RES3 127

@<TRIPOS>CRYSIN
  17.0864   10.1163   20.2250  90.0000 108.7960  90.0000   4 1

