# MOL2 file generated by ConQuest
# Please check atom types

@<TRIPOS>MOLECULE
IDUFEU
    39    42     1
SMALL
USER_CHARGES
****
Generated from CSD

@<TRIPOS>ATOM
      1 O1         7.1143    1.7932    9.4509 O.2       1 RES1   -1.0000
      2 N1         7.1375    2.9756    9.9995 N.pl3     1 RES1    1.0000
      3 C1         6.3550    3.2350   11.1032 C.ar      1 RES1    0.0000
      4 C2         5.4434    2.1840   11.6016 C.ar      1 RES1    0.0000
      5 C3         7.2916    5.4447   11.2093 C.ar      1 RES1    0.0000
      6 H1         7.3585    6.2724   11.6293 H         1 RES1    0.0000
      7 C4         4.5601    1.5148   10.7580 C.ar      1 RES1    0.0000
      8 H2         4.5607    1.7054    9.8487 H         1 RES1    0.0000
      9 C5         7.9690    3.9363    9.4653 C.ar      1 RES1    0.0000
     10 C6         3.6840    0.5730   11.2543 C.ar      1 RES1    0.0000
     11 H3         3.0962    0.1367   10.6813 H         1 RES1    0.0000
     12 C7         6.4514    4.4778   11.7012 C.ar      1 RES1    0.0000
     13 H4         5.9361    4.6619   12.4522 H         1 RES1    0.0000
     14 C8         8.7142    3.5179    8.2261 C.3       1 RES1    0.0000
     15 H5         9.1694    2.6665    8.3931 H         1 RES1    0.0000
     16 C9         8.8176    5.4402    6.8445 C.3       1 RES1    0.0000
     17 H6         8.1199    5.8585    7.3741 H         1 RES1    0.0000
     18 H7         9.3057    6.1126    6.3453 H         1 RES1    0.0000
     19 C10        3.6782    0.2772   12.6011 C.ar      1 RES1    0.0000
     20 H8         3.0949   -0.3670   12.9329 H         1 RES1    0.0000
     21 C11        5.4125    1.8831   12.9631 C.ar      1 RES1    0.0000
     22 H9         5.9871    2.3252   13.5463 H         1 RES1    0.0000
     23 C12        9.5763    3.7310    5.4110 C.3       1 RES1    0.0000
     24 H10        9.9025    4.2385    4.6513 H         1 RES1    0.0000
     25 H11        9.4433    2.8083    5.1436 H         1 RES1    0.0000
     26 C13        9.7360    4.5484    7.6832 C.3       1 RES1    0.0000
     27 H12       10.2670    5.0129    8.3643 H         1 RES1    0.0000
     28 C14        8.0329    5.1669   10.0843 C.ar      1 RES1    0.0000
     29 H13        8.5900    5.8239    9.7334 H         1 RES1    0.0000
     30 C15        4.5345    0.9335   13.4527 C.ar      1 RES1    0.0000
     31 H14        4.5238    0.7385   14.3616 H         1 RES1    0.0000
     32 C16        7.7400    3.3537    7.0174 C.3       1 RES1    0.0000
     33 H15        7.7504    2.4433    6.6838 H         1 RES1    0.0000
     34 H16        6.8328    3.5885    7.2683 H         1 RES1    0.0000
     35 C17        8.2938    4.3341    5.9671 C.3       1 RES1    0.0000
     36 H17        7.6462    4.6196    5.2897 H         1 RES1    0.0000
     37 C18       10.5400    3.8317    6.6015 C.3       1 RES1    0.0000
     38 H18       10.8129    2.9501    6.9010 H         1 RES1    0.0000
     39 H19       11.3300    4.3411    6.3646 H         1 RES1    0.0000
@<TRIPOS>BOND
     1    1    2 1
     2    2    3 ar
     3    3    4 1
     4    4    7 ar
     5    5    6 1
     6    7    8 1
     7    9    2 ar
     8   10    7 ar
     9   11   10 1
    10   12    3 ar
    11   13   12 1
    12   14    9 1
    13   15   14 1
    14   16   17 1
    15   18   16 1
    16   19   10 ar
    17   20   19 1
    18   21    4 ar
    19   22   21 1
    20   23   24 1
    21   25   23 1
    22   26   14 1
    23   27   26 1
    24   28    5 ar
    25   29   28 1
    26   30   19 ar
    27   31   30 1
    28   32   14 1
    29   33   32 1
    30   34   32 1
    31   35   16 1
    32   36   35 1
    33   37   23 1
    34   38   37 1
    35   39   37 1
    36    5   12 ar
    37    9   28 ar
    38   16   26 1
    39   21   30 ar
    40   23   35 1
    41   26   37 1
    42   32   35 1
@<TRIPOS>SUBSTRUCTURE
     1 RES1 1

@<TRIPOS>CRYSIN
  11.3232    6.4161   19.3960  90.0000  97.5400  90.0000  14 1

