# MOL2 file generated by ConQuest
# Please check atom types

@<TRIPOS>MOLECULE
IDUKOH
    50    53     1
SMALL
NO_CHARGES
****
Generated from CSD

@<TRIPOS>ATOM
      1 N1        -0.2965   -0.4757   -2.1744 N.pl3     1 RES1    0.0000
      2 H1        -1.0592   -0.1193   -2.3856 H         1 RES1    0.0000
      3 C1         0.7064    0.1918   -1.5628 C.2       1 RES1    0.0000
      4 C2         1.6872   -0.7471   -1.2723 C.2       1 RES1    0.0000
      5 C3         1.2342   -2.0175   -1.7616 C.2       1 RES1    0.0000
      6 C4         0.0087   -1.8215   -2.3193 C.2       1 RES1    0.0000
      7 C5         2.8301   -0.4263   -0.4572 C.2       1 RES1    0.0000
      8 O1         3.2511    0.6588   -0.1495 O.2       1 RES1    0.0000
      9 O2         3.4188   -1.5960    0.0123 O.3       1 RES1    0.0000
     10 N2         4.3939   -1.3928    0.9918 N.am      1 RES1    0.0000
     11 H2         5.2436   -1.2901    0.6848 H         1 RES1    0.0000
     12 C6         3.9614   -1.0741    2.2354 C.2       1 RES1    0.0000
     13 O3         2.7900   -0.9038    2.5001 O.2       1 RES1    0.0000
     14 C7         0.6194    1.6516   -1.2889 C.3       1 RES1    0.0000
     15 H3        -0.2103    1.9929   -1.6313 H         1 RES1    0.0000
     16 H4         1.3505    2.1012   -1.7174 H         1 RES1    0.0000
     17 H5         0.6611    1.8021   -0.3413 H         1 RES1    0.0000
     18 C8         1.9245   -3.3316   -1.6622 C.ar      1 RES1    0.0000
     19 C9         3.0717   -3.5928   -2.3856 C.ar      1 RES1    0.0000
     20 H6         3.4220   -2.9380   -2.9466 H         1 RES1    0.0000
     21 C10        3.7020   -4.8120   -2.2851 C.ar      1 RES1    0.0000
     22 H7         4.4609   -4.9805   -2.7953 H         1 RES1    0.0000
     23 C11        3.2272   -5.7767   -1.4457 C.ar      1 RES1    0.0000
     24 H8         3.6679   -6.5917   -1.3640 H         1 RES1    0.0000
     25 C12        2.0980   -5.5255   -0.7300 C.ar      1 RES1    0.0000
     26 H9         1.7602   -6.1788   -0.1601 H         1 RES1    0.0000
     27 C13        1.4518   -4.3237   -0.8383 C.ar      1 RES1    0.0000
     28 H10        0.6783   -4.1767   -0.3435 H         1 RES1    0.0000
     29 C14       -0.9319   -2.7057   -3.0140 C.ar      1 RES1    0.0000
     30 C15       -2.2935   -2.5475   -2.8726 C.ar      1 RES1    0.0000
     31 H11       -2.6232   -1.9177   -2.2740 H         1 RES1    0.0000
     32 C16       -3.1736   -3.3155   -3.6104 C.ar      1 RES1    0.0000
     33 H12       -4.0890   -3.1839   -3.5198 H         1 RES1    0.0000
     34 C17       -2.7116   -4.2574   -4.4641 C.ar      1 RES1    0.0000
     35 H13       -3.3107   -4.7676   -4.9600 H         1 RES1    0.0000
     36 C18       -1.3790   -4.4580   -4.5956 C.ar      1 RES1    0.0000
     37 H14       -1.0645   -5.1181   -5.1699 H         1 RES1    0.0000
     38 C19       -0.4845   -3.6862   -3.8799 C.ar      1 RES1    0.0000
     39 H15        0.4285   -3.8280   -3.9815 H         1 RES1    0.0000
     40 C20        5.0483   -0.9873    3.2493 C.ar      1 RES1    0.0000
     41 C21        6.1902   -1.7329    3.1841 C.ar      1 RES1    0.0000
     42 H16        6.3382   -2.2902    2.4552 H         1 RES1    0.0000
     43 C22        7.1254   -1.6608    4.1958 C.ar      1 RES1    0.0000
     44 H17        7.8987   -2.1764    4.1494 H         1 RES1    0.0000
     45 C23        6.9245   -0.8478    5.2516 C.ar      1 RES1    0.0000
     46 H18        7.5602   -0.7964    5.9275 H         1 RES1    0.0000
     47 C24        5.7965   -0.1099    5.3245 C.ar      1 RES1    0.0000
     48 H19        5.6587    0.4478    6.0567 H         1 RES1    0.0000
     49 C25        4.8514   -0.1721    4.3305 C.ar      1 RES1    0.0000
     50 H20        4.0772    0.3395    4.3923 H         1 RES1    0.0000
@<TRIPOS>BOND
     1    1    2 1
     2    3    1 1
     3    4    3 2
     4    5    4 1
     5    6    1 1
     6    7    4 1
     7    8    7 2
     8    9    7 1
     9   10    9 1
    10   11   10 1
    11   12   10 1
    12   13   12 2
    13   14    3 1
    14   15   14 1
    15   16   14 1
    16   17   14 1
    17   18    5 1
    18   19   18 ar
    19   20   19 1
    20   21   19 ar
    21   22   21 1
    22   23   21 ar
    23   24   23 1
    24   25   23 ar
    25   26   25 1
    26   27   18 ar
    27   28   27 1
    28   29    6 1
    29   30   29 ar
    30   31   30 1
    31   32   30 ar
    32   33   32 1
    33   34   32 ar
    34   35   34 1
    35   36   34 ar
    36   37   36 1
    37   38   29 ar
    38   39   38 1
    39   40   12 1
    40   41   40 ar
    41   42   41 1
    42   43   41 ar
    43   44   43 1
    44   45   43 ar
    45   46   45 1
    46   47   45 ar
    47   48   47 1
    48   49   40 ar
    49   50   49 1
    50    5    6 2
    51   25   27 ar
    52   36   38 ar
    53   47   49 ar
@<TRIPOS>SUBSTRUCTURE
     1 RES1 1

@<TRIPOS>CRYSIN
  10.2990   18.3510   11.6260  90.0000 108.2000  90.0000  14 1

