# MOL2 file generated by ConQuest
# Please check atom types

@<TRIPOS>MOLECULE
IDULEZ
    52    52     2
SMALL
NO_CHARGES
****
Generated from CSD

@<TRIPOS>ATOM
      1 O1         5.0995   -1.2491   10.0021 O.2       1 RES1    0.0000
      2 O2         7.4997    0.9650   11.1529 O.2       1 RES1    0.0000
      3 O3         6.9904    1.8091    9.1616 O.3       1 RES1    0.0000
      4 O4         4.3011   -4.1115   12.8367 O.2       1 RES1    0.0000
      5 O5         4.1571   -3.6690   10.7477 O.2       1 RES1    0.0000
      6 N1         4.8365    0.3358   11.5837 N.am      1 RES1    0.0000
      7 N2         4.3029   -3.3174   11.9130 N.pl3     1 RES1    0.0000
      8 C1         4.8032   -1.0066   11.1601 C.2       1 RES1    0.0000
      9 C2         4.4412   -1.9091   12.2121 C.2       1 RES1    0.0000
     10 C3         4.2183   -1.5141   13.4906 C.2       1 RES1    0.0000
     11 C4         4.2955   -0.1683   13.8179 C.2       1 RES1    0.0000
     12 C5         4.5947    0.7216   12.8517 C.2       1 RES1    0.0000
     13 C6         5.2142    1.3141   10.5637 C.3       1 RES1    0.0000
     14 C7         6.6975    1.3249   10.3534 C.2       1 RES1    0.0000
     15 C8         8.3826    1.9124    8.7777 C.3       1 RES1    0.0000
     16 C9         8.7167    0.9400    7.8064 C.3       1 RES1    0.0000
     17 H1         4.0100   -2.1557   14.1584 H         1 RES1    0.0000
     18 H2         4.1398    0.1208   14.7104 H         1 RES1    0.0000
     19 H3         4.6350    1.6449   13.0707 H         1 RES1    0.0000
     20 H4         4.7868    1.0900    9.7452 H         1 RES1    0.0000
     21 H5         4.9328    2.1774   10.8416 H         1 RES1    0.0000
     22 H6         8.5386    2.7791    8.4197 H         1 RES1    0.0000
     23 H7         8.9250    1.7874    9.5474 H         1 RES1    0.0000
     24 H8         9.5212    1.1983    7.3733 H         1 RES1    0.0000
     25 H9         8.0171    0.8775    7.1718 H         1 RES1    0.0000
     26 H10        8.8412    0.1017    8.2344 H         1 RES1    0.0000
     27 O6         2.2480   -1.8499    6.6951 O.2       2 RES2    0.0000
     28 O7        -0.7099   -2.9041    8.3158 O.2       2 RES2    0.0000
     29 O8         0.0397   -5.0031    8.1288 O.3       2 RES2    0.0000
     30 O9         2.9653    2.1441    7.0792 O.2       2 RES2    0.0000
     31 O10        2.2541    0.6591    5.6936 O.2       2 RES2    0.0000
     32 N3         1.7751   -1.9449    8.8984 N.am      2 RES2    0.0000
     33 N4         2.4857    1.0441    6.8189 N.pl3     2 RES2    0.0000
     34 C10        2.0760   -1.2341    7.7350 C.2       2 RES2    0.0000
     35 C11        2.1779    0.1842    7.9553 C.2       2 RES2    0.0000
     36 C12        1.9654    0.7466    9.1694 C.2       2 RES2    0.0000
     37 C13        1.6303   -0.0425   10.2608 C.2       2 RES2    0.0000
     38 C14        1.5479   -1.3733   10.0906 C.2       2 RES2    0.0000
     39 C15        1.5855   -3.3899    8.7576 C.3       2 RES2    0.0000
     40 C16        0.1754   -3.7057    8.3796 C.2       2 RES2    0.0000
     41 C17       -1.3241   -5.4764    7.8477 C.3       2 RES2    0.0000
     42 C18       -1.2397   -6.8664    7.3796 C.3       2 RES2    0.0000
     43 H11        2.0451    1.6874    9.2758 H         2 RES2    0.0000
     44 H12        1.4613    0.3483   11.1107 H         2 RES2    0.0000
     45 H13        1.3233   -1.9224   10.8316 H         2 RES2    0.0000
     46 H14        2.1694   -3.7157    8.0817 H         2 RES2    0.0000
     47 H15        1.7886   -3.8123    9.5824 H         2 RES2    0.0000
     48 H16       -1.8477   -5.4339    8.6387 H         2 RES2    0.0000
     49 H17       -1.7200   -4.9331    7.1756 H         2 RES2    0.0000
     50 H18       -2.1155   -7.2114    7.2632 H         2 RES2    0.0000
     51 H19       -0.7754   -7.3864    8.0229 H         2 RES2    0.0000
     52 H20       -0.7754   -6.8914    6.5523 H         2 RES2    0.0000
@<TRIPOS>BOND
     1    1    8 2
     2    2   14 2
     3    3   14 1
     4    4    7 2
     5    5    7 2
     6    6    8 1
     7    7    9 1
     8    8    9 1
     9    9   10 2
    10   10   11 1
    11   11   12 2
    12   12    6 1
    13   13    6 1
    14   14   13 1
    15   15    3 1
    16   16   15 1
    17   17   10 1
    18   18   11 1
    19   19   12 1
    20   20   13 1
    21   21   13 1
    22   22   15 1
    23   23   15 1
    24   24   16 1
    25   25   16 1
    26   26   16 1
    27   27   34 2
    28   28   40 2
    29   29   40 1
    30   30   33 2
    31   31   33 2
    32   32   34 1
    33   33   35 1
    34   34   35 1
    35   35   36 2
    36   36   37 1
    37   37   38 2
    38   38   32 1
    39   39   32 1
    40   40   39 1
    41   41   29 1
    42   42   41 1
    43   43   36 1
    44   44   37 1
    45   45   38 1
    46   46   39 1
    47   47   39 1
    48   48   41 1
    49   49   41 1
    50   50   42 1
    51   51   42 1
    52   52   42 1
@<TRIPOS>SUBSTRUCTURE
     1 RES1 1
     2 RES2 27

@<TRIPOS>CRYSIN
  20.1750    8.3330   12.7290  90.0000 100.4900  90.0000  14 1

