# MOL2 file generated by ConQuest
# Please check atom types

@<TRIPOS>MOLECULE
IDUWOT
    33    34     1
SMALL
NO_CHARGES
****
Generated from CSD

@<TRIPOS>ATOM
      1 O1         1.9989    4.1141    5.9315 O.3       1 RES1    0.0000
      2 N1         1.4918    3.9206    4.6184 N.am      1 RES1    0.0000
      3 C1         1.0463    5.1961    4.2086 C.2       1 RES1    0.0000
      4 N2         0.9999    6.0502    5.1443 N.2       1 RES1    0.0000
      5 C2         1.4284    5.3844    6.3581 C.3       1 RES1    0.0000
      6 H1         0.6801    5.2356    6.9400 H         1 RES1    0.0000
      7 C3         0.8464    2.7064    4.3757 C.2       1 RES1    0.0000
      8 O2         0.1563    2.5862    3.3889 O.2       1 RES1    0.0000
      9 C4         1.1089    1.6126    5.3467 C.3       1 RES1    0.0000
     10 H2         0.8442    0.7735    4.9624 H         1 RES1    0.0000
     11 H3         0.6061    1.7695    6.1488 H         1 RES1    0.0000
     12 H4         2.0454    1.5880    5.5551 H         1 RES1    0.0000
     13 C5         2.4829    6.1697    7.0884 C.3       1 RES1    0.0000
     14 H5         2.1193    7.0004    7.4039 H         1 RES1    0.0000
     15 H6         3.1767    6.3708    6.4574 H         1 RES1    0.0000
     16 C6         3.1041    5.4288    8.2354 C.3       1 RES1    0.0000
     17 H7         3.7315    6.0010    8.6835 H         1 RES1    0.0000
     18 H8         3.5604    4.6515    7.9041 H         1 RES1    0.0000
     19 H9         2.4195    5.1603    8.8516 H         1 RES1    0.0000
     20 C7         0.7566    5.5077    2.7982 C.ar      1 RES1    0.0000
     21 C8         1.4502    4.8638    1.7721 C.ar      1 RES1    0.0000
     22 H10        2.0828    4.1749    1.9864 H         1 RES1    0.0000
     23 C9         1.2297    5.2132    0.4423 C.ar      1 RES1    0.0000
     24 C10        0.2895    6.1887    0.1681 C.ar      1 RES1    0.0000
     25 H11        0.1114    6.4180   -0.7470 H         1 RES1    0.0000
     26 C11       -0.3953    6.8268    1.1824 C.ar      1 RES1    0.0000
     27 H12       -1.0389    7.5049    0.9652 H         1 RES1    0.0000
     28 C12       -0.1536    6.4980    2.5004 C.ar      1 RES1    0.0000
     29 H13       -0.6146    6.9516    3.2100 H         1 RES1    0.0000
     30 C13        1.9699    4.5268   -0.6693 C.3       1 RES1    0.0000
     31 H14        2.2799    3.6699   -0.3666 H         1 RES1    0.0000
     32 H15        2.7213    5.0639   -0.9327 H         1 RES1    0.0000
     33 H16        1.3834    4.4080   -1.4192 H         1 RES1    0.0000
@<TRIPOS>BOND
     1    1    2 1
     2    2    3 1
     3    3    4 2
     4    4    5 1
     5    5    1 1
     6    6    5 1
     7    7    2 1
     8    8    7 2
     9    9    7 1
    10   10    9 1
    11   11    9 1
    12   12    9 1
    13   13    5 1
    14   14   13 1
    15   15   13 1
    16   16   13 1
    17   17   16 1
    18   18   16 1
    19   19   16 1
    20   20    3 1
    21   21   20 ar
    22   22   21 1
    23   23   21 ar
    24   24   23 ar
    25   25   24 1
    26   26   24 ar
    27   27   26 1
    28   28   20 ar
    29   29   28 1
    30   30   23 1
    31   31   30 1
    32   32   30 1
    33   33   30 1
    34   26   28 ar
@<TRIPOS>SUBSTRUCTURE
     1 RES1 1

@<TRIPOS>CRYSIN
   7.6791    8.1984   10.1410 101.7430  97.7930  90.8790   2 1

