# MOL2 file generated by ConQuest
# Please check atom types

@<TRIPOS>MOLECULE
IEFNPZ
    51    54     1
SMALL
NO_CHARGES
****
Generated from CSD

@<TRIPOS>ATOM
      1 C1         3.4524    4.6499   -1.8429 C.2       1 RES1    0.0000
      2 C2         3.3781    6.0404   -1.3425 C.3       1 RES1    0.0000
      3 C3         2.5465    1.0654   -2.3182 C.2       1 RES1    0.0000
      4 C4         1.8152   -0.6156   -3.7812 C.3       1 RES1    0.0000
      5 C5         2.6078    3.5664   -1.4950 C.2       1 RES1    0.0000
      6 C6         4.3563    7.0031   -2.0560 C.3       1 RES1    0.0000
      7 C7         3.0414    2.5126   -2.2319 C.2       1 RES1    0.0000
      8 C8         3.4708    7.7677   -3.0831 C.3       1 RES1    0.0000
      9 C9         5.0273    2.2144   -3.7972 C.ar      1 RES1    0.0000
     10 C10        2.1058    7.0647   -2.9672 C.3       1 RES1    0.0000
     11 C11        5.4079    0.9176   -3.4196 C.ar      1 RES1    0.0000
     12 C12        4.4924    9.2753   -1.6744 C.3       1 RES1    0.0000
     13 C13        6.3350    0.2660   -4.2159 C.ar      1 RES1    0.0000
     14 C14        5.6628    9.7997   -2.4616 C.3       1 RES1    0.0000
     15 C15        6.8635    0.9138   -5.3162 C.ar      1 RES1    0.0000
     16 C16        4.1377   10.2340   -0.5381 C.3       1 RES1    0.0000
     17 C17        6.5051    2.1926   -5.6538 C.ar      1 RES1    0.0000
     18 C18        1.5535    3.6281   -0.4867 C.2       1 RES1    0.0000
     19 C19        5.5629    2.8441   -4.8643 C.ar      1 RES1    0.0000
     20 C20       -0.4684    2.6886    0.2919 C.3       1 RES1    0.0000
     21 H1         3.5678    5.8734   -0.3085 H         1 RES1    0.0000
     22 H2         2.6008   -1.0924   -3.5761 H         1 RES1    0.0000
     23 H3         1.1155   -0.9639   -2.9249 H         1 RES1    0.0000
     24 H4         1.5631   -0.7069   -4.4330 H         1 RES1    0.0000
     25 H5         5.4766    6.7216   -2.5193 H         1 RES1    0.0000
     26 H6         3.7419    7.7883   -4.2102 H         1 RES1    0.0000
     27 H7         2.1414    6.2075   -3.5476 H         1 RES1    0.0000
     28 H8         6.6427   -0.5655   -3.9189 H         1 RES1    0.0000
     29 H9         5.2085   10.7057   -3.1991 H         1 RES1    0.0000
     30 H10        5.9770    9.4719   -3.0106 H         1 RES1    0.0000
     31 H11        6.5343   10.3844   -2.2108 H         1 RES1    0.0000
     32 H12        3.3885    9.9603   -0.0571 H         1 RES1    0.0000
     33 H13        3.9018   11.0399   -0.8569 H         1 RES1    0.0000
     34 H14        5.0210   10.5001   -0.1143 H         1 RES1    0.0000
     35 H15        6.8972    2.5447   -6.6324 H         1 RES1    0.0000
     36 H16        5.1739    3.6500   -5.2271 H         1 RES1    0.0000
     37 H17       -1.3174    3.2259    0.0457 H         1 RES1    0.0000
     38 H18       -0.7257    1.7093    0.4570 H         1 RES1    0.0000
     39 H19        0.0233    3.1230    1.1882 H         1 RES1    0.0000
     40 N1         4.1148    2.9290   -2.9717 N.pl3     1 RES1    0.0000
     41 N2         4.3822    4.2643   -2.7192 N.2       1 RES1    0.0000
     42 N3         7.8988    0.1954   -6.1582 N.pl3     1 RES1    0.0000
     43 O1         8.2639   -0.8829   -5.7184 O.2       1 RES1    0.0000
     44 O2         2.0712    6.5532   -1.6412 O.3       1 RES1    0.0000
     45 O3         8.3221    0.7775   -7.1168 O.2       1 RES1    0.0000
     46 O4         4.7781    8.0068   -1.1282 O.3       1 RES1    0.0000
     47 O5         3.3685    9.0941   -2.5079 O.3       1 RES1    0.0000
     48 O6         0.5641    2.7966   -0.8083 O.3       1 RES1    0.0000
     49 O7         1.5846    4.3054    0.5004 O.2       1 RES1    0.0000
     50 O8         2.2533    0.7544   -3.5698 O.3       1 RES1    0.0000
     51 O9         2.4395    0.3766   -1.3670 O.2       1 RES1    0.0000
@<TRIPOS>BOND
     1    1    2 1
     2    2    6 1
     3    3    7 1
     4    4   22 1
     5    5    1 1
     6    6    8 1
     7    7    5 2
     8    8   10 1
     9    9   11 ar
    10   10   27 1
    11   11   13 ar
    12   12   14 1
    13   13   15 ar
    14   14   29 1
    15   15   17 ar
    16   16   12 1
    17   17   19 ar
    18   18    5 1
    19   19    9 ar
    20   20   37 1
    21   21    2 1
    22   23    4 1
    23   24    4 1
    24   25    6 1
    25   26    8 1
    26   28   13 1
    27   30   14 1
    28   31   14 1
    29   32   16 1
    30   33   16 1
    31   34   16 1
    32   35   17 1
    33   36   19 1
    34   38   20 1
    35   39   20 1
    36   40    7 1
    37   41    1 2
    38   42   15 1
    39   43   42 2
    40   44    2 1
    41   45   42 2
    42   46    6 1
    43   47    8 1
    44   48   18 1
    45   49   18 2
    46   50    3 1
    47   51    3 2
    48    4   50 1
    49    9   40 1
    50   10   44 1
    51   12   46 1
    52   12   47 1
    53   20   48 1
    54   40   41 1
@<TRIPOS>SUBSTRUCTURE
     1 RES1 1

@<TRIPOS>CRYSIN
  14.2760   12.8520    5.7350  90.0000  95.0600  90.0000   4 1

