# MOL2 file generated by ConQuest
# Please check atom types

@<TRIPOS>MOLECULE
IFAPUA
    84    56     2
SMALL
NO_CHARGES
****
Generated from CSD

@<TRIPOS>ATOM
      1 C1         2.1709    6.4712    9.2079 C.ar      1 RES1    0.0000
      2 C2         1.6342    5.2799    8.8560 C.ar      1 RES1    0.0000
      3 H1         1.5503    4.6057    9.4918 H         1 RES1    0.0000
      4 C3         1.2052    5.0547    7.5357 C.ar      1 RES1    0.0000
      5 H2         0.8574    4.2226    7.3090 H         1 RES1    0.0000
      6 C4         1.2863    6.0246    6.5779 C.ar      1 RES1    0.0000
      7 C5         1.8545    7.2646    6.9211 C.ar      1 RES1    0.0000
      8 C6         2.3122    7.4845    8.2545 C.ar      1 RES1    0.0000
      9 C7         2.9088    8.7238    8.5518 C.ar      1 RES1    0.0000
     10 H3         3.2254    8.8817    9.4114 H         1 RES1    0.0000
     11 C8         3.0307    9.7006    7.6052 C.ar      1 RES1    0.0000
     12 H4         3.4415   10.5080    7.8172 H         1 RES1    0.0000
     13 C9         2.5394    9.4808    6.3273 C.ar      1 RES1    0.0000
     14 H5         2.6062   10.1519    5.6874 H         1 RES1    0.0000
     15 C10        1.9639    8.3042    6.0037 C.ar      1 RES1    0.0000
     16 H6         1.6292    8.1850    5.1445 H         1 RES1    0.0000
     17 C11        0.7810    5.7622    5.1892 C.3       1 RES1    0.0000
     18 H7         0.5540    4.8333    5.1024 H         1 RES1    0.0000
     19 H8         1.4634    5.9859    4.5521 H         1 RES1    0.0000
     20 H9         0.0017    6.2986    5.0256 H         1 RES1    0.0000
     21 N1         4.0070    7.1369   14.7441 N.pl3     1 RES1    0.0000
     22 O1         4.9463    6.6253   15.0001 O.2       1 RES1    0.0000
     23 O2         3.1073    7.5317   15.4242 O.2       1 RES1    0.0000
     24 C12        3.4435    7.0084   13.2725 C.ar      1 RES1    0.0000
     25 C13        4.2656    6.3242   12.3840 C.ar      1 RES1    0.0000
     26 H10        5.0692    5.9634   12.6801 H         1 RES1    0.0000
     27 C14        3.8853    6.1802   11.0549 C.ar      1 RES1    0.0000
     28 H11        4.4355    5.7219   10.4626 H         1 RES1    0.0000
     29 C15        2.6822    6.7197   10.6143 C.ar      1 RES1    0.0000
     30 C16        1.8609    7.4040   11.5010 C.ar      1 RES1    0.0000
     31 C17        2.2409    7.5487   12.8300 C.ar      1 RES1    0.0000
     32 H12        1.6902    8.0062   13.4242 H         1 RES1    0.0000
     33 C18        0.5286    7.9327   11.1043 C.ar      1 RES1    0.0000
     34 C19        0.5196    9.2432   10.6399 C.ar      1 RES1    0.0000
     35 H13        1.3207    9.6952   10.5083 H         1 RES1    0.0000
     36 C20       -0.6882    9.8779   10.3748 C.ar      1 RES1    0.0000
     37 H14       -0.6930   10.7549   10.0640 H         1 RES1    0.0000
     38 C21       -1.8870    9.2029   10.5741 C.ar      1 RES1    0.0000
     39 C22       -1.8779    7.8924   11.0381 C.ar      1 RES1    0.0000
     40 C23       -0.6703    7.2577   11.3035 C.ar      1 RES1    0.0000
     41 C24       -0.6610    5.9472   11.7679 C.ar      1 RES1    0.0000
     42 H15        0.1460    5.5230   11.9452 H         1 RES1    0.0000
     43 C25       -1.8598    5.2722   11.9672 C.ar      1 RES1    0.0000
     44 H16       -1.8521    4.3959   12.2761 H         1 RES1    0.0000
     45 C26       -3.0671    5.9069   11.7002 C.ar      1 RES1    0.0000
     46 H17       -3.8693    5.4549   11.8337 H         1 RES1    0.0000
     47 C27       -3.0763    7.2174   11.2359 C.ar      1 RES1    0.0000
     48 H18       -3.8848    7.6416   11.0586 H         1 RES1    0.0000
     49 C28       -3.2040    9.9360   10.2505 C.3       1 RES1    0.0000
     50 H19       -3.0084   10.8145    9.9178 H         1 RES1    0.0000
     51 H20       -3.7368   10.0072   11.0476 H         1 RES1    0.0000
     52 H21       -3.6912    9.4429    9.5851 H         1 RES1    0.0000
     53 N2         4.0392    7.0363   14.3639 Du        2 SUP2    0.0000
     54 O3         5.2855    7.3808   14.6107 Du        2 SUP2    0.0000
     55 O4         3.3776    6.8590   15.4114 Du        2 SUP2    0.0000
     56 C29        3.6087    6.9465   13.1701 Du        2 SUP2    0.0000
     57 C30        4.4793    6.8915   12.0878 Du        2 SUP2    0.0000
     58 H22        5.3980    6.9504   12.2249 Du        2 SUP2    0.0000
     59 C31        3.9780    6.7476   10.7990 Du        2 SUP2    0.0000
     60 H23        4.5596    6.7104   10.0750 Du        2 SUP2    0.0000
     61 C32        2.6067    6.6586   10.5942 Du        2 SUP2    0.0000
     62 C33        1.7356    6.7143   11.6765 Du        2 SUP2    0.0000
     63 C34        2.2375    6.8583   12.9653 Du        2 SUP2    0.0000
     64 H24        1.6558    6.8954   13.6893 Du        2 SUP2    0.0000
     65 C35        0.1986    6.5239   11.5339 Du        2 SUP2    0.0000
     66 C36       -0.3483    5.3163   11.9525 Du        2 SUP2    0.0000
     67 H25        0.2084    4.6243   12.2268 Du        2 SUP2    0.0000
     68 C37       -1.7278    5.1445   11.9617 Du        2 SUP2    0.0000
     69 H26       -2.0945    4.3371   12.2414 Du        2 SUP2    0.0000
     70 C38       -2.5597    6.1794   11.5503 Du        2 SUP2    0.0000
     71 C39       -2.0125    7.3862   11.1315 Du        2 SUP2    0.0000
     72 C40       -0.6334    7.5588   11.1229 Du        2 SUP2    0.0000
     73 C41       -0.0861    8.7656   10.7039 Du        2 SUP2    0.0000
     74 H27        0.8379    8.8809   10.6984 Du        2 SUP2    0.0000
     75 C42       -0.9180    9.8005   10.2926 Du        2 SUP2    0.0000
     76 H28       -0.5510   10.6079   10.0128 Du        2 SUP2    0.0000
     77 C43       -2.2975    9.6287   10.3017 Du        2 SUP2    0.0000
     78 H29       -2.8539   10.3207   10.0275 Du        2 SUP2    0.0000
     79 C44       -2.8444    8.4211   10.7203 Du        2 SUP2    0.0000
     80 H30       -3.7675    8.3065   10.7258 Du        2 SUP2    0.0000
     81 C45       -4.0456    5.9418   11.6783 Du        2 SUP2    0.0000
     82 H31       -4.4408    6.6493   12.1938 Du        2 SUP2    0.0000
     83 H32       -4.1987    5.1019   12.1171 Du        2 SUP2    0.0000
     84 H33       -4.4449    5.9232   10.8044 Du        2 SUP2    0.0000
@<TRIPOS>BOND
     1    1    2 ar
     2    2    3 1
     3    4    2 ar
     4    5    4 1
     5    6    4 ar
     6    7    6 ar
     7    8    1 ar
     8    9    8 ar
     9   10    9 1
    10   11    9 ar
    11   12   11 1
    12   13   11 ar
    13   14   13 1
    14   15    7 ar
    15   16   15 1
    16   17    6 1
    17   18   17 1
    18   19   17 1
    19   20   17 1
    20   21   22 2
    21   23   21 2
    22   24   21 1
    23   25   24 ar
    24   26   25 1
    25   27   25 ar
    26   28   27 1
    27   29    1 1
    28   30   29 ar
    29   31   24 ar
    30   32   31 1
    31   33   30 1
    32   34   33 ar
    33   35   34 1
    34   36   34 ar
    35   37   36 1
    36   38   36 ar
    37   39   38 ar
    38   40   33 ar
    39   41   40 ar
    40   42   41 1
    41   43   41 ar
    42   44   43 1
    43   45   43 ar
    44   46   45 1
    45   47   39 ar
    46   48   47 1
    47   49   38 1
    48   50   49 1
    49   51   49 1
    50   52   49 1
    51    7    8 ar
    52   13   15 ar
    53   27   29 ar
    54   30   31 ar
    55   39   40 ar
    56   45   47 ar
@<TRIPOS>SUBSTRUCTURE
     1 RES1 1
     2 SUP2 53

@<TRIPOS>CRYSIN
  28.9890    7.7407   18.9990  90.0000 105.7950  90.0000  15 1

