# MOL2 file generated by ConQuest
# Please check atom types

@<TRIPOS>MOLECULE
IFAYAR
    44    46     1
SMALL
NO_CHARGES
****
Generated from CSD

@<TRIPOS>ATOM
      1 O1         2.4126    5.6025    2.3705 O.2       1 RES1    0.0000
      2 N1         2.7804    1.6655    1.5411 N.pl3     1 RES1    0.0000
      3 N2         1.9911    1.2452    3.5361 N.pl3     1 RES1    0.0000
      4 N3         2.0462    3.5563    2.9631 N.2       1 RES1    0.0000
      5 N4         2.6130    4.3906    2.1913 N.2       1 RES1    0.0000
      6 C1         2.2894    2.2572    2.6648 C.2       1 RES1    0.0000
      7 C2         2.7630    0.2744    1.7399 C.2       1 RES1    0.0000
      8 H1         3.0545   -0.3775    1.1120 H         1 RES1    0.0000
      9 C3         2.2697    0.0127    2.9553 C.2       1 RES1    0.0000
     10 H2         2.1372   -0.8439    3.3438 H         1 RES1    0.0000
     11 C4         3.2032    2.2762    0.2891 C.ar      1 RES1    0.0000
     12 C5         4.5543    2.6172    0.1583 C.ar      1 RES1    0.0000
     13 C6         4.9689    3.1232   -1.0675 C.ar      1 RES1    0.0000
     14 H3         5.8750    3.3818   -1.1852 H         1 RES1    0.0000
     15 C7         4.0689    3.2581   -2.1245 C.ar      1 RES1    0.0000
     16 H4         4.3745    3.5816   -2.9644 H         1 RES1    0.0000
     17 C8         2.7416    2.9234   -1.9623 C.ar      1 RES1    0.0000
     18 H5         2.1411    3.0360   -2.6897 H         1 RES1    0.0000
     19 C9         2.2579    2.4237   -0.7457 C.ar      1 RES1    0.0000
     20 C10        5.5230    2.4285    1.3095 C.3       1 RES1    0.0000
     21 H6         6.3937    2.8107    1.0688 H         1 RES1    0.0000
     22 H7         5.6263    1.4720    1.4966 H         1 RES1    0.0000
     23 H8         5.1761    2.8821    2.1062 H         1 RES1    0.0000
     24 C11        0.8064    2.0795   -0.5442 C.3       1 RES1    0.0000
     25 H9         0.4329    2.6410    0.1661 H         1 RES1    0.0000
     26 H10        0.7254    1.1357   -0.2904 H         1 RES1    0.0000
     27 H11        0.3146    2.2365   -1.3776 H         1 RES1    0.0000
     28 C12        1.4959    1.4514    4.8980 C.ar      1 RES1    0.0000
     29 C13        0.1242    1.3102    5.1308 C.ar      1 RES1    0.0000
     30 C14       -0.3139    1.5228    6.4469 C.ar      1 RES1    0.0000
     31 H12       -1.2375    1.4371    6.6536 H         1 RES1    0.0000
     32 C15        0.5880    1.8574    7.4542 C.ar      1 RES1    0.0000
     33 H13        0.2732    1.9986    8.3386 H         1 RES1    0.0000
     34 C16        1.9410    1.9891    7.1808 C.ar      1 RES1    0.0000
     35 H14        2.5421    2.2223    7.8781 H         1 RES1    0.0000
     36 C17        2.4276    1.7797    5.8909 C.ar      1 RES1    0.0000
     37 C18       -0.8315    0.9374    4.0110 C.3       1 RES1    0.0000
     38 H15       -0.6218    1.4672    3.2130 H         1 RES1    0.0000
     39 H16       -1.7518    1.1214    4.2923 H         1 RES1    0.0000
     40 H17       -0.7373   -0.0159    3.8056 H         1 RES1    0.0000
     41 C19        3.9097    1.8844    5.6005 C.3       1 RES1    0.0000
     42 H18        4.3944    2.0525    6.4364 H         1 RES1    0.0000
     43 H19        4.0689    2.6236    4.9765 H         1 RES1    0.0000
     44 H20        4.2241    1.0469    5.2028 H         1 RES1    0.0000
@<TRIPOS>BOND
     1    1    5 2
     2    2    6 1
     3    3    6 1
     4    4    5 1
     5    6    4 2
     6    7    2 1
     7    8    7 1
     8    9    3 1
     9   10    9 1
    10   11    2 1
    11   12   11 ar
    12   13   12 ar
    13   14   13 1
    14   15   13 ar
    15   16   15 1
    16   17   15 ar
    17   18   17 1
    18   19   11 ar
    19   20   12 1
    20   21   20 1
    21   22   20 1
    22   23   20 1
    23   24   19 1
    24   25   24 1
    25   26   24 1
    26   27   24 1
    27   28    3 1
    28   29   28 ar
    29   30   29 ar
    30   31   30 1
    31   32   30 ar
    32   33   32 1
    33   34   32 ar
    34   35   34 1
    35   36   28 ar
    36   37   29 1
    37   38   37 1
    38   39   37 1
    39   40   37 1
    40   41   36 1
    41   42   41 1
    42   43   41 1
    43   44   41 1
    44    7    9 2
    45   17   19 ar
    46   34   36 ar
@<TRIPOS>SUBSTRUCTURE
     1 RES1 1

@<TRIPOS>CRYSIN
   8.2250   15.8620   13.3080  90.0000 100.5700  90.0000 231 1

