# MOL2 file generated by ConQuest
# Please check atom types

@<TRIPOS>MOLECULE
IFAYOF
    21    21     1
SMALL
NO_CHARGES
****
Generated from CSD

@<TRIPOS>ATOM
      1 O1         1.5017    1.8884    1.0276 O.2       1 RES1    0.0000
      2 N1         4.1489    4.6765    2.3691 N.3       1 RES1    0.0000
      3 N2         2.7596    6.1877    1.6169 N.3       1 RES1    0.0000
      4 N3         2.0752    3.9672    1.1470 N.2       1 RES1    0.0000
      5 N4         2.3015    2.7340    1.5341 N.2       1 RES1    0.0000
      6 C1         2.9670    4.8502    1.7138 C.2       1 RES1    0.0000
      7 C2         4.6703    5.9295    2.6870 C.2       1 RES1    0.0000
      8 H1         5.5029    5.9982    3.1878 H         1 RES1    0.0000
      9 C3         3.8191    6.8647    2.2198 C.2       1 RES1    0.0000
     10 H2         3.8460    7.8274    2.2373 H         1 RES1    0.0000
     11 C4         4.8666    3.4262    2.6563 C.3       1 RES1    0.0000
     12 H3         4.3555    2.8748    3.2975 H         1 RES1    0.0000
     13 H4         5.7393    3.6684    3.0709 H         1 RES1    0.0000
     14 H5         5.0139    2.9423    1.8571 H         1 RES1    0.0000
     15 C5         1.5947    6.8155    0.9527 C.3       1 RES1    0.0000
     16 H6         0.8907    6.1645    1.0163 H         1 RES1    0.0000
     17 H7         1.8098    6.9334    0.0146 H         1 RES1    0.0000
     18 C6         1.2116    8.1197    1.6151 C.3       1 RES1    0.0000
     19 H8         1.0352    7.9772    2.5737 H         1 RES1    0.0000
     20 H9         0.3604    8.4531    1.1552 H         1 RES1    0.0000
     21 H10        1.8786    8.8219    1.4769 H         1 RES1    0.0000
@<TRIPOS>BOND
     1    1    5 2
     2    2    6 1
     3    3    6 1
     4    4    5 1
     5    6    4 2
     6    7    2 1
     7    8    7 1
     8    9    3 1
     9   10    9 1
    10   11    2 1
    11   12   11 1
    12   13   11 1
    13   14   11 1
    14   15    3 1
    15   16   15 1
    16   17   15 1
    17   18   15 1
    18   19   18 1
    19   20   18 1
    20   21   18 1
    21    7    9 2
@<TRIPOS>SUBSTRUCTURE
     1 RES1 1

@<TRIPOS>CRYSIN
   6.0781   16.4649    7.3469  90.0000  95.6230  90.0000  14 1

