# MOL2 file generated by ConQuest
# Please check atom types

@<TRIPOS>MOLECULE
IFECOM
   106   116     2
SMALL
NO_CHARGES
****
Generated from CSD

@<TRIPOS>ATOM
      1 O1         3.0334    6.9722    8.0013 O.3       1 RES1    0.0000
      2 O2         4.3536    8.4062    1.0838 O.3       1 RES1    0.0000
      3 O3         7.2658    5.4908    3.5257 O.3       1 RES1    0.0000
      4 H1         7.6320    5.4587    2.7701 H         1 RES1    0.0000
      5 O4         7.7019    6.0584    1.0980 O.2       1 RES1    0.0000
      6 O5         5.5823   10.6682    1.9145 O.2       1 RES1    0.0000
      7 O6         7.4797   10.0046    0.9353 O.3       1 RES1    0.0000
      8 O7         7.6578    6.4937   -1.5507 O.3       1 RES1    0.0000
      9 O8         3.8106    8.7305   -1.4590 O.3       1 RES1    0.0000
     10 H2         3.2944    8.4870   -0.8426 H         1 RES1    0.0000
     11 O9         3.1008    5.8463    9.9578 O.2       1 RES1    0.0000
     12 N1         3.8791    7.1133    6.8396 N.3       1 RES1    0.0000
     13 C1         3.5785    6.0280    8.8686 C.2       1 RES1    0.0000
     14 C2         3.1229    7.1252    5.5895 C.3       1 RES1    0.0000
     15 H3         2.5695    7.9441    5.5314 H         1 RES1    0.0000
     16 H4         2.5241    6.3384    5.5445 H         1 RES1    0.0000
     17 C3         4.1259    7.0881    4.4452 C.ar      1 RES1    0.0000
     18 C4         3.8039    7.7497    3.2675 C.ar      1 RES1    0.0000
     19 H5         2.9819    8.2190    3.1892 H         1 RES1    0.0000
     20 C5         4.6975    7.7151    2.2103 C.ar      1 RES1    0.0000
     21 C6         5.4822    8.8613    0.3002 C.3       1 RES1    0.0000
     22 C7         4.8406    9.5405   -0.9224 C.3       1 RES1    0.0000
     23 H6         4.4598   10.4250   -0.6483 H         1 RES1    0.0000
     24 C8         5.8751    9.7522   -2.0043 C.3       1 RES1    0.0000
     25 H7         6.5890   10.3471   -1.6649 H         1 RES1    0.0000
     26 H8         5.4509   10.1959   -2.7817 H         1 RES1    0.0000
     27 C9         6.4896    8.4348   -2.4525 C.3       1 RES1    0.0000
     28 H9         5.8469    7.9648   -3.0398 H         1 RES1    0.0000
     29 H10        7.3024    8.6245   -2.9862 H         1 RES1    0.0000
     30 C10        6.8543    7.5382   -1.3154 C.2       1 RES1    0.0000
     31 C11        6.3993    7.7130   -0.0435 C.2       1 RES1    0.0000
     32 C12        6.7472    6.8574    1.0892 C.2       1 RES1    0.0000
     33 C13        5.8896    6.9956    2.2799 C.ar      1 RES1    0.0000
     34 C14        6.1742    6.2715    3.4604 C.ar      1 RES1    0.0000
     35 C15        5.3168    6.3457    4.5800 C.ar      1 RES1    0.0000
     36 C16        5.5779    5.6569    5.8660 C.ar      1 RES1    0.0000
     37 C17        4.7733    6.0662    6.9281 C.ar      1 RES1    0.0000
     38 C18        4.7175    5.4461    8.1623 C.ar      1 RES1    0.0000
     39 C19        5.6231    4.4401    8.4596 C.ar      1 RES1    0.0000
     40 H11        5.6306    4.0202    9.3109 H         1 RES1    0.0000
     41 C20        6.5163    4.0703    7.4705 C.ar      1 RES1    0.0000
     42 H12        7.1747    3.4131    7.6648 H         1 RES1    0.0000
     43 C21        6.4767    4.6423    6.1826 C.ar      1 RES1    0.0000
     44 H13        7.0764    4.3294    5.5155 H         1 RES1    0.0000
     45 C22        6.1654    9.9442    1.1553 C.2       1 RES1    0.0000
     46 C23        8.1745   11.0403    1.6881 C.3       1 RES1    0.0000
     47 H14        7.8626   11.9208    1.3952 H         1 RES1    0.0000
     48 H15        9.1388   10.9656    1.5315 H         1 RES1    0.0000
     49 H16        7.9889   10.9289    2.6439 H         1 RES1    0.0000
     50 C24        8.1964    6.2607   -2.8875 C.3       1 RES1    0.0000
     51 H17        8.7576    5.4564   -2.8774 H         1 RES1    0.0000
     52 H18        8.7344    7.0324   -3.1617 H         1 RES1    0.0000
     53 H19        7.4582    6.1368   -3.5199 H         1 RES1    0.0000
     54 O10        1.8764    1.8497   -0.7734 O.3       2 RES2    0.0000
     55 O11        0.7352    0.7525    6.2337 O.3       2 RES2    0.0000
     56 O12       -2.3070    3.4335    3.7016 O.3       2 RES2    0.0000
     57 H20       -2.6805    3.4590    4.4539 H         2 RES2    0.0000
     58 O13       -2.7312    2.8773    6.1514 O.2       2 RES2    0.0000
     59 O14       -0.2033   -1.5845    5.3706 O.2       2 RES2    0.0000
     60 O15       -2.0924   -1.3547    6.5587 O.3       2 RES2    0.0000
     61 O16       -2.9260    2.2495    8.7294 O.3       2 RES2    0.0000
     62 O17        1.3637   -1.1712    8.1443 O.3       2 RES2    0.0000
     63 H21        1.9492   -0.8682    7.6242 H         2 RES2    0.0000
     64 O18        1.7249    2.8606   -2.7751 O.2       2 RES2    0.0000
     65 N2         1.0488    1.7586    0.4165 N.3       2 RES2    0.0000
     66 C25        1.2785    2.7413   -1.6707 C.2       2 RES2    0.0000
     67 C26        1.8487    1.8653    1.6403 C.3       2 RES2    0.0000
     68 H22        2.4035    2.6847    1.6185 H         2 RES2    0.0000
     69 H23        2.4468    1.0812    1.7302 H         2 RES2    0.0000
     70 C27        0.8685    1.9196    2.8020 C.ar      2 RES2    0.0000
     71 C28        1.2156    1.2931    3.9840 C.ar      2 RES2    0.0000
     72 H24        2.0454    0.8361    4.0579 H         2 RES2    0.0000
     73 C29        0.3502    1.3359    5.0528 C.ar      2 RES2    0.0000
     74 C30       -0.3356    0.2034    7.0137 C.3       2 RES2    0.0000
     75 C31        0.3485   -0.2011    8.3276 C.3       2 RES2    0.0000
     76 H25        0.7734    0.6162    8.7163 H         2 RES2    0.0000
     77 C32       -0.6655   -0.7053    9.3167 C.3       2 RES2    0.0000
     78 H26       -0.2062   -1.0217   10.1347 H         2 RES2    0.0000
     79 H27       -1.1614   -1.4683    8.9266 H         2 RES2    0.0000
     80 C33       -1.6377    0.4139    9.6706 C.3       2 RES2    0.0000
     81 H28       -2.4655    0.0115   10.0346 H         2 RES2    0.0000
     82 H29       -1.2355    0.9690   10.3856 H         2 RES2    0.0000
     83 C34       -2.0048    1.3091    8.5162 C.2       2 RES2    0.0000
     84 C35       -1.4213    1.2340    7.2791 C.2       2 RES2    0.0000
     85 C36       -1.7592    2.0914    6.1609 C.2       2 RES2    0.0000
     86 C37       -0.8749    2.0062    4.9803 C.ar      2 RES2    0.0000
     87 C38       -1.1928    2.6929    3.7809 C.ar      2 RES2    0.0000
     88 C39       -0.3392    2.6208    2.6715 C.ar      2 RES2    0.0000
     89 C40       -0.6307    3.2574    1.3633 C.ar      2 RES2    0.0000
     90 C41        0.1417    2.8038    0.3046 C.ar      2 RES2    0.0000
     91 C42        0.1583    3.3566   -0.9659 C.ar      2 RES2    0.0000
     92 C43       -0.7297    4.3798   -1.2821 C.ar      2 RES2    0.0000
     93 H30       -0.7588    4.7647   -2.1508 H         2 RES2    0.0000
     94 C44       -1.5714    4.8118   -0.2683 C.ar      2 RES2    0.0000
     95 H31       -2.2105    5.4885   -0.4554 H         2 RES2    0.0000
     96 C45       -1.5020    4.2738    1.0254 C.ar      2 RES2    0.0000
     97 H32       -2.0777    4.6226    1.6954 H         2 RES2    0.0000
     98 C46       -0.8475   -1.0200    6.2261 C.2       2 RES2    0.0000
     99 C47       -2.6512   -2.4861    5.8302 C.3       2 RES2    0.0000
    100 H33       -2.7093   -2.2655    4.8774 H         2 RES2    0.0000
    101 H34       -3.5467   -2.6870    6.1739 H         2 RES2    0.0000
    102 H35       -2.0733   -3.2688    5.9491 H         2 RES2    0.0000
    103 C48       -3.4141    2.5134   10.0723 C.3       2 RES2    0.0000
    104 H36       -4.0848    3.2276   10.0419 H         2 RES2    0.0000
    105 H37       -2.6667    2.7901   10.6423 H         2 RES2    0.0000
    106 H38       -3.8188    1.6997   10.4378 H         2 RES2    0.0000
@<TRIPOS>BOND
     1    1   12 1
     2    2   20 1
     3    3    4 1
     4    5   32 2
     5    6   45 2
     6    7   45 1
     7    8   30 1
     8    9   10 1
     9   11   13 2
    10   12   14 1
    11   13    1 1
    12   14   15 1
    13   16   14 1
    14   17   14 1
    15   18   17 ar
    16   19   18 1
    17   20   18 ar
    18   21    2 1
    19   22    9 1
    20   23   22 1
    21   24   22 1
    22   25   24 1
    23   26   24 1
    24   27   24 1
    25   28   27 1
    26   29   27 1
    27   30   27 1
    28   31   21 1
    29   32   31 1
    30   33   20 ar
    31   34    3 1
    32   35   17 ar
    33   36   35 1
    34   37   12 1
    35   38   13 1
    36   39   38 ar
    37   40   39 1
    38   41   39 ar
    39   42   41 1
    40   43   36 ar
    41   44   43 1
    42   45   21 1
    43   46    7 1
    44   47   46 1
    45   48   46 1
    46   49   46 1
    47   50    8 1
    48   51   50 1
    49   52   50 1
    50   53   50 1
    51   54   65 1
    52   55   73 1
    53   56   57 1
    54   58   85 2
    55   59   98 2
    56   60   98 1
    57   61   83 1
    58   62   63 1
    59   64   66 2
    60   65   67 1
    61   66   54 1
    62   67   68 1
    63   69   67 1
    64   70   67 1
    65   71   70 ar
    66   72   71 1
    67   73   71 ar
    68   74   55 1
    69   75   62 1
    70   76   75 1
    71   77   75 1
    72   78   77 1
    73   79   77 1
    74   80   77 1
    75   81   80 1
    76   82   80 1
    77   83   80 1
    78   84   74 1
    79   85   84 1
    80   86   73 ar
    81   87   56 1
    82   88   70 ar
    83   89   88 1
    84   90   65 1
    85   91   66 1
    86   92   91 ar
    87   93   92 1
    88   94   92 ar
    89   95   94 1
    90   96   89 ar
    91   97   96 1
    92   98   74 1
    93   99   60 1
    94  100   99 1
    95  101   99 1
    96  102   99 1
    97  103   61 1
    98  104  103 1
    99  105  103 1
   100  106  103 1
   101   21   22 1
   102   30   31 2
   103   32   33 1
   104   33   34 ar
   105   34   35 ar
   106   36   37 ar
   107   37   38 ar
   108   41   43 ar
   109   74   75 1
   110   83   84 2
   111   85   86 1
   112   86   87 ar
   113   87   88 ar
   114   89   90 ar
   115   90   91 ar
   116   94   96 ar
@<TRIPOS>SUBSTRUCTURE
     1 RES1 1
     2 RES2 54

@<TRIPOS>CRYSIN
   5.9784   22.9070   14.6390  90.0000  97.8160  90.0000   4 1

