# MOL2 file generated by ConQuest
# Please check atom types

@<TRIPOS>MOLECULE
IFIFOS
    31    32     1
SMALL
NO_CHARGES
****
Generated from CSD

@<TRIPOS>ATOM
      1 O1         0.6553    2.9303    5.2669 O.3       1 RES1    0.0000
      2 O2        -1.6522   10.5434    0.3467 O.2       1 RES1    0.0000
      3 O3        -2.9953    8.9379   -0.0444 O.2       1 RES1    0.0000
      4 N1         1.2810    4.5702    3.2566 N.2       1 RES1    0.0000
      5 N2        -1.9734    9.3816    0.4356 N.pl3     1 RES1    0.0000
      6 C1         1.9282    2.8248    4.8020 C.ar      1 RES1    0.0000
      7 C2         2.8708    1.9423    5.2853 C.ar      1 RES1    0.0000
      8 H1         2.6411    1.3418    5.9572 H         1 RES1    0.0000
      9 C3         4.1528    1.9467    4.7768 C.ar      1 RES1    0.0000
     10 H2         4.7811    1.3505    5.1144 H         1 RES1    0.0000
     11 C4         4.5142    2.8149    3.7813 C.ar      1 RES1    0.0000
     12 H3         5.3837    2.8171    3.4504 H         1 RES1    0.0000
     13 C5         3.5643    3.6912    3.2713 C.ar      1 RES1    0.0000
     14 H4         3.7951    4.2654    2.5764 H         1 RES1    0.0000
     15 C6         2.2830    3.7218    3.7810 C.ar      1 RES1    0.0000
     16 C7         1.5686    5.7838    3.0410 C.2       1 RES1    0.0000
     17 H5         2.4056    6.0982    3.2967 H         1 RES1    0.0000
     18 C8         0.6323    6.7103    2.4042 C.ar      1 RES1    0.0000
     19 C9        -0.6234    6.2865    1.9742 C.ar      1 RES1    0.0000
     20 H6        -0.8842    5.4058    2.1178 H         1 RES1    0.0000
     21 C10       -1.4800    7.1533    1.3405 C.ar      1 RES1    0.0000
     22 H7        -2.3163    6.8680    1.0493 H         1 RES1    0.0000
     23 C11       -1.0728    8.4550    1.1463 C.ar      1 RES1    0.0000
     24 C12        0.1505    8.9139    1.5638 C.ar      1 RES1    0.0000
     25 H8         0.3982    9.7997    1.4287 H         1 RES1    0.0000
     26 C13        1.0041    8.0313    2.1896 C.ar      1 RES1    0.0000
     27 H9         1.8403    8.3243    2.4732 H         1 RES1    0.0000
     28 C14        0.2871    2.0970    6.3510 C.3       1 RES1    0.0000
     29 H10        0.3483    1.1776    6.0820 H         1 RES1    0.0000
     30 H11       -0.6147    2.2940    6.6127 H         1 RES1    0.0000
     31 H12        0.8779    2.2546    7.0905 H         1 RES1    0.0000
@<TRIPOS>BOND
     1    1    6 1
     2    2    5 2
     3    3    5 2
     4    4   15 1
     5    5   23 1
     6    6    7 ar
     7    7    8 1
     8    9    7 ar
     9   10    9 1
    10   11    9 ar
    11   12   11 1
    12   13   11 ar
    13   14   13 1
    14   15    6 ar
    15   16    4 2
    16   17   16 1
    17   18   16 1
    18   19   18 ar
    19   20   19 1
    20   21   19 ar
    21   22   21 1
    22   23   21 ar
    23   24   23 ar
    24   25   24 1
    25   26   18 ar
    26   27   26 1
    27   28    1 1
    28   29   28 1
    29   30   28 1
    30   31   28 1
    31   13   15 ar
    32   24   26 ar
@<TRIPOS>SUBSTRUCTURE
     1 RES1 1

@<TRIPOS>CRYSIN
   7.2703    7.2963   24.0860  90.0000  94.5170  90.0000  14 1

