# MOL2 file generated by ConQuest
# Please check atom types

@<TRIPOS>MOLECULE
IFIJAL
    68    72     1
SMALL
NO_CHARGES
****
Generated from CSD

@<TRIPOS>ATOM
      1 O1         2.8384   14.9565    0.9621 O.2       1 RES1    0.0000
      2 O2         0.7744   15.0575    0.5223 O.2       1 RES1    0.0000
      3 O3         0.2995    6.5544    3.9417 O.3       1 RES1    0.0000
      4 O4        -5.3795    9.9124    9.1206 O.2       1 RES1    0.0000
      5 O5        -3.4343    9.8442    9.9987 O.2       1 RES1    0.0000
      6 O6        -2.9139    3.8461    6.0353 O.2       1 RES1    0.0000
      7 N1        -4.2206    9.5395    9.1450 N.pl3     1 RES1    0.0000
      8 N2         1.7147   14.5037    0.9666 N.pl3     1 RES1    0.0000
      9 N3        -0.1740    8.5726    2.8202 N.3       1 RES1    0.0000
     10 C1        -1.3817    5.2942    5.0343 C.2       1 RES1    0.0000
     11 C2        -2.4573    6.2980    4.7532 C.3       1 RES1    0.0000
     12 H1        -3.2464    5.7939    4.4637 H         1 RES1    0.0000
     13 C3        -0.6403    7.7096    3.8203 C.3       1 RES1    0.0000
     14 H2        -0.6438    8.1961    4.6708 H         1 RES1    0.0000
     15 C4        -2.8808    7.1239    5.9481 C.ar      1 RES1    0.0000
     16 C5        -2.0349    7.1824    3.5651 C.3       1 RES1    0.0000
     17 H3        -2.6417    7.9521    3.5406 H         1 RES1    0.0000
     18 C6        -0.1397    5.4487    4.5886 C.2       1 RES1    0.0000
     19 C7        -4.6178    8.4029    7.0170 C.ar      1 RES1    0.0000
     20 H4        -5.4906    8.7236    7.0287 H         1 RES1    0.0000
     21 C8        -3.7551    8.7077    8.0214 C.ar      1 RES1    0.0000
     22 C9        -4.1789    7.6159    5.9906 C.ar      1 RES1    0.0000
     23 H5        -4.7656    7.4031    5.3012 H         1 RES1    0.0000
     24 C10       -2.0383    7.4342    6.9908 C.ar      1 RES1    0.0000
     25 H6        -1.1694    7.1011    6.9912 H         1 RES1    0.0000
     26 C11       -2.0978    6.4981    2.1909 C.3       1 RES1    0.0000
     27 H7        -1.4760    5.7423    2.2033 H         1 RES1    0.0000
     28 C12        0.9266    4.4031    4.6843 C.3       1 RES1    0.0000
     29 H8         1.5242    4.6280    5.4138 H         1 RES1    0.0000
     30 H9         1.4460    4.4062    3.8648 H         1 RES1    0.0000
     31 C13       -1.7603    4.0609    5.7197 C.2       1 RES1    0.0000
     32 C14       -0.6574    3.0830    6.0186 C.3       1 RES1    0.0000
     33 H10       -1.0416    2.2036    6.1522 H         1 RES1    0.0000
     34 H11       -0.2180    3.3443    6.8426 H         1 RES1    0.0000
     35 C15        1.0670    9.2455    3.1336 C.3       1 RES1    0.0000
     36 H12        1.8049    8.6929    2.8307 H         1 RES1    0.0000
     37 H13        1.1396    9.3300    4.0975 H         1 RES1    0.0000
     38 C16       -0.2118    8.0022    1.4809 C.3       1 RES1    0.0000
     39 H14        0.4232    7.2706    1.4214 H         1 RES1    0.0000
     40 H15        0.0453    8.6783    0.8330 H         1 RES1    0.0000
     41 C17        1.2052   10.6095    2.5205 C.ar      1 RES1    0.0000
     42 C18        0.1273   11.3116    2.0352 C.ar      1 RES1    0.0000
     43 H16       -0.7214   10.9305    2.0622 H         1 RES1    0.0000
     44 C19       -2.4641    8.2357    8.0425 C.ar      1 RES1    0.0000
     45 H17       -1.8900    8.4481    8.7428 H         1 RES1    0.0000
     46 C20       -1.5919    7.4993    1.1622 C.3       1 RES1    0.0000
     47 H18       -1.5821    7.0785    0.2882 H         1 RES1    0.0000
     48 H19       -2.2028    8.2508    1.1227 H         1 RES1    0.0000
     49 C21        0.3726    3.0088    4.9125 C.3       1 RES1    0.0000
     50 C22        1.5358   13.1336    1.5084 C.ar      1 RES1    0.0000
     51 C23       -3.4596    5.9693    1.8296 C.3       1 RES1    0.0000
     52 H20       -4.1056    6.6766    1.8956 H         1 RES1    0.0000
     53 H21       -3.6975    5.2609    2.4315 H         1 RES1    0.0000
     54 H22       -3.4442    5.6333    0.9306 H         1 RES1    0.0000
     55 C24        2.4417   11.2025    2.4855 C.ar      1 RES1    0.0000
     56 H23        3.1796   10.7344    2.8022 H         1 RES1    0.0000
     57 C25        0.2953   12.5848    1.5084 C.ar      1 RES1    0.0000
     58 H24       -0.4300   13.0532    1.1617 H         1 RES1    0.0000
     59 C26        1.5081    2.0516    5.2757 C.3       1 RES1    0.0000
     60 H25        1.8969    2.3192    6.1117 H         1 RES1    0.0000
     61 H26        2.1783    2.0736    4.5883 H         1 RES1    0.0000
     62 H27        1.1615    1.1597    5.3552 H         1 RES1    0.0000
     63 C27        2.6177   12.4775    1.9902 C.ar      1 RES1    0.0000
     64 H28        3.4579   12.8770    1.9887 H         1 RES1    0.0000
     65 C28       -0.2916    2.4995    3.6232 C.3       1 RES1    0.0000
     66 H29       -0.6075    1.6029    3.7598 H         1 RES1    0.0000
     67 H30        0.3491    2.5071    2.9088 H         1 RES1    0.0000
     68 H31       -1.0308    3.0685    3.3981 H         1 RES1    0.0000
@<TRIPOS>BOND
     1    1    8 2
     2    2    8 2
     3    3   13 1
     4    4    7 2
     5    5    7 2
     6    6   31 2
     7    7   21 1
     8    8   50 1
     9    9   13 1
    10   10   11 1
    11   11   12 1
    12   13   14 1
    13   15   11 1
    14   16   11 1
    15   17   16 1
    16   18    3 1
    17   19   20 1
    18   21   19 ar
    19   22   15 ar
    20   23   22 1
    21   24   15 ar
    22   25   24 1
    23   26   16 1
    24   27   26 1
    25   28   18 1
    26   29   28 1
    27   30   28 1
    28   31   10 1
    29   32   31 1
    30   33   32 1
    31   34   32 1
    32   35    9 1
    33   36   35 1
    34   37   35 1
    35   38    9 1
    36   39   38 1
    37   40   38 1
    38   41   35 1
    39   42   41 ar
    40   43   42 1
    41   44   21 ar
    42   45   44 1
    43   46   26 1
    44   47   46 1
    45   48   46 1
    46   49   28 1
    47   50   57 ar
    48   51   26 1
    49   52   51 1
    50   53   51 1
    51   54   51 1
    52   55   41 ar
    53   56   55 1
    54   57   42 ar
    55   58   57 1
    56   59   49 1
    57   60   59 1
    58   61   59 1
    59   62   59 1
    60   63   50 ar
    61   64   63 1
    62   65   49 1
    63   66   65 1
    64   67   65 1
    65   68   65 1
    66   10   18 2
    67   13   16 1
    68   19   22 ar
    69   24   44 ar
    70   32   49 1
    71   38   46 1
    72   55   63 ar
@<TRIPOS>SUBSTRUCTURE
     1 RES1 1

@<TRIPOS>CRYSIN
   7.0079   12.5351   16.0320 104.9950 102.1660  95.7580   2 1

