# MOL2 file generated by ConQuest
# Please check atom types

@<TRIPOS>MOLECULE
IFIKUF
    66    71     1
SMALL
NO_CHARGES
****
Generated from CSD

@<TRIPOS>ATOM
      1 C1        -3.0455    8.4711    8.5369 C.ar      1 RES1    0.0000
      2 C2        -3.7861    8.4468    9.7017 C.ar      1 RES1    0.0000
      3 H1        -3.8821    9.2124   10.2212 H         1 RES1    0.0000
      4 C3        -4.3816    7.2592   10.0776 C.ar      1 RES1    0.0000
      5 H2        -4.8579    7.2159   10.8749 H         1 RES1    0.0000
      6 C4        -4.2773    6.1214    9.2734 C.ar      1 RES1    0.0000
      7 C5        -3.5756    6.2032    8.0687 C.ar      1 RES1    0.0000
      8 H3        -3.5376    5.4617    7.5089 H         1 RES1    0.0000
      9 C6        -2.9380    7.3710    7.6980 C.ar      1 RES1    0.0000
     10 H4        -2.4497    7.4189    6.9075 H         1 RES1    0.0000
     11 C7        -4.9201    4.8361    9.6746 C.ar      1 RES1    0.0000
     12 C8        -5.8225    4.2479    8.7792 C.ar      1 RES1    0.0000
     13 H5        -5.9616    4.6423    7.9489 H         1 RES1    0.0000
     14 C9        -6.5118    3.0909    9.1047 C.ar      1 RES1    0.0000
     15 H6        -7.1148    2.7208    8.5007 H         1 RES1    0.0000
     16 C10       -6.2986    2.4876   10.3348 C.ar      1 RES1    0.0000
     17 H7        -6.7531    1.7080   10.5594 H         1 RES1    0.0000
     18 C11       -5.4040    3.0542   11.2269 C.ar      1 RES1    0.0000
     19 H8        -5.2666    2.6434   12.0507 H         1 RES1    0.0000
     20 C12       -4.6981    4.2294   10.9258 C.ar      1 RES1    0.0000
     21 C13       -3.7964    4.7766   11.9910 C.ar      1 RES1    0.0000
     22 C14       -1.5024    2.4129   13.7483 C.ar      1 RES1    0.0000
     23 H9        -2.3652    2.1416   13.9636 H         1 RES1    0.0000
     24 C15       -4.3754    4.9471   13.2557 C.ar      1 RES1    0.0000
     25 H10       -5.2628    4.6995   13.3807 H         1 RES1    0.0000
     26 C16       -3.6717    5.4708   14.3229 C.ar      1 RES1    0.0000
     27 H11       -4.0851    5.5726   15.1493 H         1 RES1    0.0000
     28 C17       -2.3498    5.8436   14.1559 C.ar      1 RES1    0.0000
     29 H12       -1.8695    6.2083   14.8635 H         1 RES1    0.0000
     30 C18       -1.7518    5.6665   12.9186 C.ar      1 RES1    0.0000
     31 H13       -0.8625    5.9168   12.8119 H         1 RES1    0.0000
     32 C19       -2.4378    5.1228   11.8209 C.ar      1 RES1    0.0000
     33 C20       -1.6538    4.9903   10.5543 C.ar      1 RES1    0.0000
     34 C21       -0.9289    6.1156   10.1399 C.ar      1 RES1    0.0000
     35 H14       -0.9905    6.8987   10.6372 H         1 RES1    0.0000
     36 C22       -0.1229    6.1003    9.0132 C.ar      1 RES1    0.0000
     37 H15        0.3576    6.8589    8.7695 H         1 RES1    0.0000
     38 C23       -0.0389    4.9435    8.2504 C.ar      1 RES1    0.0000
     39 H16        0.4890    4.9238    7.4848 H         1 RES1    0.0000
     40 C24       -0.7463    3.8218    8.6381 C.ar      1 RES1    0.0000
     41 H17       -0.6901    3.0521    8.1187 H         1 RES1    0.0000
     42 C25       -1.5462    3.8056    9.7912 C.ar      1 RES1    0.0000
     43 C26       -2.2038    2.5039   10.1421 C.ar      1 RES1    0.0000
     44 C27       -3.0336    1.8962    9.1890 C.ar      1 RES1    0.0000
     45 H18       -3.1593    2.3124    8.3663 H         1 RES1    0.0000
     46 C28       -3.6698    0.6951    9.4382 C.ar      1 RES1    0.0000
     47 H19       -4.2182    0.3152    8.7908 H         1 RES1    0.0000
     48 C29       -3.4885    0.0570   10.6554 C.ar      1 RES1    0.0000
     49 H20       -3.9181   -0.7487   10.8310 H         1 RES1    0.0000
     50 C30       -2.6619    0.6307   11.6091 C.ar      1 RES1    0.0000
     51 H21       -2.5434    0.2016   12.4256 H         1 RES1    0.0000
     52 C31       -2.0016    1.8429   11.3691 C.ar      1 RES1    0.0000
     53 C32       -1.0788    2.3556   12.4185 C.ar      1 RES1    0.0000
     54 C33        0.2296    2.7531   12.1143 C.ar      1 RES1    0.0000
     55 H22        0.5272    2.7204   11.2343 H         1 RES1    0.0000
     56 C34        1.0876    3.1947   13.1133 C.ar      1 RES1    0.0000
     57 H23        1.9582    3.4523   12.9123 H         1 RES1    0.0000
     58 C35        0.6187    3.2433   14.4147 C.ar      1 RES1    0.0000
     59 C36       -0.6663    2.8637   14.7499 C.ar      1 RES1    0.0000
     60 H24       -0.9614    2.9110   15.6304 H         1 RES1    0.0000
     61 N1        -2.3385    9.7030    8.1821 N.pl3     1 RES1    0.0000
     62 N2         1.5137    3.7021   15.4851 N.pl3     1 RES1    0.0000
     63 O1        -2.6649   10.7470    8.7429 O.2       1 RES1    0.0000
     64 O2        -1.4451    9.6372    7.3377 O.2       1 RES1    0.0000
     65 O3         2.6802    3.9632   15.2039 O.2       1 RES1    0.0000
     66 O4         1.0444    3.7932   16.6199 O.2       1 RES1    0.0000
@<TRIPOS>BOND
     1    1    2 ar
     2    2    3 1
     3    4    2 ar
     4    5    4 1
     5    6    4 ar
     6    7    6 ar
     7    8    7 1
     8    9    1 ar
     9   10    9 1
    10   11    6 1
    11   12   11 ar
    12   13   12 1
    13   14   12 ar
    14   15   14 1
    15   16   14 ar
    16   17   16 1
    17   18   16 ar
    18   19   18 1
    19   20   11 ar
    20   21   20 1
    21   22   23 1
    22   24   21 ar
    23   25   24 1
    24   26   24 ar
    25   27   26 1
    26   28   26 ar
    27   29   28 1
    28   30   28 ar
    29   31   30 1
    30   32   21 ar
    31   33   32 1
    32   34   33 ar
    33   35   34 1
    34   36   34 ar
    35   37   36 1
    36   38   36 ar
    37   39   38 1
    38   40   38 ar
    39   41   40 1
    40   42   33 ar
    41   43   42 1
    42   44   43 ar
    43   45   44 1
    44   46   44 ar
    45   47   46 1
    46   48   46 ar
    47   49   48 1
    48   50   48 ar
    49   51   50 1
    50   52   43 ar
    51   53   22 ar
    52   54   53 ar
    53   55   54 1
    54   56   54 ar
    55   57   56 1
    56   58   56 ar
    57   59   22 ar
    58   60   59 1
    59   61    1 1
    60   62   58 1
    61   63   61 2
    62   64   61 2
    63   65   62 2
    64   66   62 2
    65    7    9 ar
    66   18   20 ar
    67   30   32 ar
    68   40   42 ar
    69   50   52 ar
    70   52   53 1
    71   58   59 ar
@<TRIPOS>SUBSTRUCTURE
     1 RES1 1

@<TRIPOS>CRYSIN
   9.6510   10.5000   14.6410 100.4370  96.4870 109.1240   2 1

