# MOL2 file generated by ConQuest
# Please check atom types

@<TRIPOS>MOLECULE
IFOCUC
   141   123     3
SMALL
NO_CHARGES
****
Generated from CSD

@<TRIPOS>ATOM
      1 O1        -6.0649   -1.0967    5.1522 O.2       1 RES1    0.0000
      2 O2       -12.8790    0.5485    6.9174 O.2       2 RES2    0.0000
      3 N1        -8.2013   -2.2883    3.6791 N.am      2 RES2    0.0000
      4 N2        -4.8268   -1.0587    9.1836 N.ar      1 RES1    0.0000
      5 N3        -4.8500   -0.4423    6.9689 N.am      1 RES1    0.0000
      6 N4        -4.7233   -1.4307   11.4532 N.am      1 RES1    0.0000
      7 N5        -9.5157   -1.1807    5.1822 N.ar      2 RES2    0.0000
      8 O3        -4.9356   -3.3814   12.6262 O.2       1 RES1    0.0000
      9 C1        -5.2760   -1.7941   10.2128 C.ar      1 RES1    0.0000
     10 O4        -8.6813   -3.4889    1.8147 O.2       2 RES2    0.0000
     11 N6       -10.6584    0.0980    6.6933 N.am      2 RES2    0.0000
     12 C2        -6.3927   -2.2099    7.7552 C.ar      1 RES1    0.0000
     13 C3       -15.0427   -5.6247    4.3926 C.ar      2 RES2    0.0000
     14 C4        -6.2482   -2.7803   10.0847 C.ar      1 RES1    0.0000
     15 C5       -11.7178   -2.8600    4.7061 C.ar      2 RES2    0.0000
     16 C6       -10.6806   -0.9976    5.8135 C.ar      2 RES2    0.0000
     17 C7        -5.3876   -1.2741    7.9752 C.ar      1 RES1    0.0000
     18 C8        -6.8307   -2.9926    8.8340 C.ar      1 RES1    0.0000
     19 C9       -11.2855   -7.5089    6.2534 C.3       1 RES1    0.0000
     20 H1       -10.9313   -6.6559    5.9281 H         1 RES1    0.0000
     21 H2       -11.9563   -7.8476    5.6230 H         1 RES1    0.0000
     22 H3       -10.5550   -8.1582    6.3309 H         1 RES1    0.0000
     23 C10       -8.9257   -3.8566    7.7586 C.ar      1 RES1    0.0000
     24 H4        -8.9288   -3.1064    7.1754 H         1 RES1    0.0000
     25 C11       -9.4525   -2.1837    4.2881 C.ar      2 RES2    0.0000
     26 C12       -5.2116   -0.3710    5.6549 C.2       1 RES1    0.0000
     27 C13       -7.9012   -3.9999    8.6857 C.ar      1 RES1    0.0000
     28 C14      -12.8758   -3.7807    4.5274 C.ar      2 RES2    0.0000
     29 C15       -3.1847    1.1458    2.7323 C.3       1 RES1    0.0000
     30 H5        -3.9106    1.6602    2.3210 H         1 RES1    0.0000
     31 H6        -2.6506    0.7180    2.0328 H         1 RES1    0.0000
     32 H7        -2.6148    1.7493    3.2565 H         1 RES1    0.0000
     33 C16       -7.9085   -5.1406    9.4981 C.ar      1 RES1    0.0000
     34 H8        -7.1986   -5.2759   10.1150 H         1 RES1    0.0000
     35 C17      -11.7985   -1.8078    5.6129 C.ar      2 RES2    0.0000
     36 C18      -11.3262    2.1707    7.7485 C.3       2 RES2    0.0000
     37 H9       -10.5332    2.0294    8.3250 H         2 RES2    0.0000
     38 H10      -12.0708    2.4775    8.3250 H         2 RES2    0.0000
     39 C19      -13.0459   -6.2383    7.4872 C.3       1 RES1    0.0000
     40 H11      -13.4338   -6.0805    8.3722 H         1 RES1    0.0000
     41 H12      -13.7426   -6.5592    6.8771 H         1 RES1    0.0000
     42 H13      -12.6689   -5.4032    7.1417 H         1 RES1    0.0000
     43 C20      -10.5252   -3.0392    4.0049 C.ar      2 RES2    0.0000
     44 C21      -11.7050    0.8637    7.1063 C.2       2 RES2    0.0000
     45 C22      -13.8063   -5.9114    3.7740 C.ar      2 RES2    0.0000
     46 H14      -13.6949   -6.7323    3.3087 H         2 RES2    0.0000
     47 C23      -17.2200   -6.7150    5.2134 C.3       2 RES2    0.0000
     48 C24      -11.9201   -7.3093    7.5951 C.3       1 RES1    0.0000
     49 C25       -4.5005    0.6791    4.8291 C.3       1 RES1    0.0000
     50 H15       -3.8509    1.1560    5.4039 H         1 RES1    0.0000
     51 H16       -5.1631    1.3393    4.5072 H         1 RES1    0.0000
     52 N7       -10.9774   -6.8724    8.5963 N.3       1 RES1    0.0000
     53 C26       -9.9527   -4.8025    7.6676 C.ar      1 RES1    0.0000
     54 H17      -10.6484   -4.6902    7.0305 H         1 RES1    0.0000
     55 C27       -8.9159   -6.0652    9.4223 C.ar      1 RES1    0.0000
     56 H18       -8.9023   -6.8214    9.9987 H         1 RES1    0.0000
     57 C28       -9.9519   -5.9122    8.5205 C.ar      1 RES1    0.0000
     58 C29       -3.7672    0.0914    3.6391 C.3       1 RES1    0.0000
     59 H19       -3.0374   -0.4914    3.9644 H         1 RES1    0.0000
     60 H20       -4.3953   -0.4711    3.1183 H         1 RES1    0.0000
     61 C30      -12.7564   -5.0123    3.8346 C.ar      2 RES2    0.0000
     62 H21      -11.9362   -5.2249    3.4048 H         2 RES2    0.0000
     63 C31      -14.1179   -3.5098    5.0685 C.ar      2 RES2    0.0000
     64 H22      -14.2521   -2.6736    5.5000 H         2 RES2    0.0000
     65 C32      -18.2686   -5.6710    4.8460 C.3       2 RES2    0.0000
     66 H23      -17.9038   -4.7742    4.9960 H         2 RES2    0.0000
     67 H24      -19.0647   -5.7978    5.4056 H         2 RES2    0.0000
     68 H25      -18.5128   -5.7724    3.9037 H         2 RES2    0.0000
     69 C33      -15.1757   -4.4010    5.0112 C.ar      2 RES2    0.0000
     70 H26      -16.0070   -4.1657    5.4073 H         2 RES2    0.0000
     71 C34      -16.8270   -6.6437    6.6681 C.3       2 RES2    0.0000
     72 H27      -16.1818   -7.3536    6.8670 H         2 RES2    0.0000
     73 H28      -17.6231   -6.7603    7.2277 H         2 RES2    0.0000
     74 H29      -16.4203   -5.7724    6.8535 H         2 RES2    0.0000
     75 C35      -12.5538   -8.5758    8.1143 C.3       1 RES1    0.0000
     76 H30      -11.8706   -9.2735    8.1935 H         1 RES1    0.0000
     77 H31      -13.2513   -8.8712    7.4923 H         1 RES1    0.0000
     78 H32      -12.9508   -8.4052    8.9941 H         1 RES1    0.0000
     79 C36      -17.8199   -8.0874    4.9134 C.3       2 RES2    0.0000
     80 H33      -18.1309   -8.1124    3.9830 H         2 RES2    0.0000
     81 H34      -18.5750   -8.2524    5.5151 H         2 RES2    0.0000
     82 H35      -17.1368   -8.7770    5.0466 H         2 RES2    0.0000
     83 O5       -11.6512   -6.8342    9.9246 O.2       1 RES1    0.0000
     84 C37      -11.0124    3.2488    6.7304 C.3       2 RES2    0.0000
     85 H36      -10.8002    4.0893    7.2058 H         2 RES2    0.0000
     86 H37      -10.2099    2.9817    6.2163 H         2 RES2    0.0000
     87 C38      -12.1415    3.5011    5.7730 C.3       2 RES2    0.0000
     88 H38      -12.2795    2.7092    5.2151 H         2 RES2    0.0000
     89 H39      -11.9210    4.2675    5.2033 H         2 RES2    0.0000
     90 H40      -12.9599    3.6946    6.2770 H         2 RES2    0.0000
     91 C39       -7.8731   -2.9178    2.5148 C.2       2 RES2    0.0000
     92 C40       -6.3940   -2.8416    2.1609 C.3       2 RES2    0.0000
     93 H41       -6.2526   -1.9734    1.7058 Du        3 SUP3    0.0000
     94 H42       -5.8969   -2.7983    3.0155 H         2 RES2    0.0000
     95 H43       -6.0291   -1.9963    2.5250 Du        3 SUP3    0.0000
     96 H44       -5.9259   -3.5877    2.6126 Du        3 SUP3    0.0000
     97 C41       -5.7821   -3.7990    1.3940 Du        3 SUP3    0.0000
     98 H45       -6.3267   -3.9391    0.5781 Du        3 SUP3    0.0000
     99 H46       -5.7826   -4.6495    1.8996 Du        3 SUP3    0.0000
    100 C42       -4.3817   -3.5087    0.9726 Du        3 SUP3    0.0000
    101 H47       -4.0468   -4.2472    0.4231 Du        3 SUP3    0.0000
    102 H48       -3.8163   -3.4094    1.7665 Du        3 SUP3    0.0000
    103 H49       -4.3622   -2.6787    0.4517 Du        3 SUP3    0.0000
    104 C43       -6.0751   -2.8671    0.7787 C.3       2 RES2    0.0000
    105 H50       -6.4547   -2.0650    0.3405 H         2 RES2    0.0000
    106 H51       -6.4829   -3.6666    0.3607 H         2 RES2    0.0000
    107 C44       -4.5952   -2.8951    0.5613 C.3       2 RES2    0.0000
    108 H52       -4.4070   -2.9053   -0.4012 H         2 RES2    0.0000
    109 H53       -4.2192   -3.6997    0.9759 H         2 RES2    0.0000
    110 H54       -4.1899   -2.0981    0.9641 H         2 RES2    0.0000
    111 C45       -4.5993   -2.2007   12.5658 C.2       1 RES1    0.0000
    112 C46       -4.0216   -1.4840   13.7676 C.3       1 RES1    0.0000
    113 H55       -3.3075   -2.0446   14.1620 H         1 RES1    0.0000
    114 H56       -3.6072   -0.6366   13.4676 H         1 RES1    0.0000
    115 H57       -4.4391   -0.5856   13.7710 Du        3 SUP3    0.0000
    116 H58       -4.3772   -1.9555   14.5615 Du        3 SUP3    0.0000
    117 C47       -4.9589   -1.2018   14.7452 C.3       1 RES1    0.0000
    118 H59       -5.3874   -2.0472   15.0284 H         1 RES1    0.0000
    119 H60       -5.6624   -0.6238   14.3525 H         1 RES1    0.0000
    120 C48       -4.3825   -0.5042   15.9757 C.3       1 RES1    0.0000
    121 H61       -5.1008   -0.3336   16.6196 H         1 RES1    0.0000
    122 H62       -3.9719    0.3437   15.7077 H         1 RES1    0.0000
    123 H63       -3.7050   -1.0796   16.3887 H         1 RES1    0.0000
    124 C49       -2.7823   -1.2782   14.0289 Du        3 SUP3    0.0000
    125 H64       -2.3806   -0.8454   13.2350 Du        3 SUP3    0.0000
    126 H65       -2.3497   -2.1643   14.1233 Du        3 SUP3    0.0000
    127 C50       -2.3839   -0.4405   15.2593 Du        3 SUP3    0.0000
    128 H66       -1.4061   -0.3845   15.3133 Du        3 SUP3    0.0000
    129 H67       -2.7319   -0.8657   16.0701 Du        3 SUP3    0.0000
    130 H68       -2.7577    0.4609   15.1751 Du        3 SUP3    0.0000
    131 N8       -16.0319   -6.6025    4.3261 N.3       2 RES2    0.0000
    132 O6       -16.4447   -6.3657    3.0188 O.2       2 RES2    0.0000
    133 O7       -15.7479   -7.5191    3.8262 Du        3 SUP3    0.0000
    134 H69       -4.1981    0.0255    7.2108 H         1 RES1    0.0000
    135 H70       -4.4365   -0.6086   11.5292 H         1 RES1    0.0000
    136 H71       -7.6642   -1.8562    4.0116 H         2 RES2    0.0000
    137 H72       -6.5283   -3.2516   10.8213 H         1 RES1    0.0000
    138 H73      -12.5740   -1.5914    6.1523 H         2 RES2    0.0000
    139 H74      -10.4376   -3.7405    3.3543 H         2 RES2    0.0000
    140 H75       -6.7248   -2.2916    6.9108 H         1 RES1    0.0000
    141 H76       -9.9582    0.3412    6.9613 H         2 RES2    0.0000
@<TRIPOS>BOND
     1    1   26 2
     2    2   44 2
     3    3   25 1
     4    4    9 ar
     5    5   17 1
     6    6    9 1
     7    7   16 ar
     8    8  111 2
     9    9   14 ar
    10   10   91 2
    11   11   16 1
    12   12   17 ar
    13   13   45 ar
    14   14   18 ar
    15   15   28 1
    16   16   35 ar
    17   17    4 ar
    18   18   12 ar
    19   19   20 1
    20   21   19 1
    21   22   19 1
    22   23   24 1
    23   25    7 ar
    24   26    5 1
    25   27   18 1
    26   28   61 ar
    27   29   30 1
    28   31   29 1
    29   32   29 1
    30   33   27 ar
    31   34   33 1
    32   35   15 ar
    33   36   37 1
    34   38   36 1
    35   39   40 1
    36   41   39 1
    37   42   39 1
    38   43   15 ar
    39   44   11 1
    40   45   46 1
    41   47   65 1
    42   48   19 1
    43   49   26 1
    44   50   49 1
    45   51   49 1
    46   52   48 1
    47   53   23 ar
    48   54   53 1
    49   55   33 ar
    50   56   55 1
    51   57   52 1
    52   58   29 1
    53   59   58 1
    54   60   58 1
    55   61   45 ar
    56   62   61 1
    57   63   28 ar
    58   64   63 1
    59   65   66 1
    60   67   65 1
    61   68   65 1
    62   69   13 ar
    63   70   69 1
    64   71   47 1
    65   72   71 1
    66   73   71 1
    67   74   71 1
    68   75   48 1
    69   76   75 1
    70   77   75 1
    71   78   75 1
    72   79   47 1
    73   80   79 1
    74   81   79 1
    75   82   79 1
    76   83   52 1
    77   84   36 1
    78   85   84 1
    79   86   84 1
    80   87   84 1
    81   88   87 1
    82   89   87 1
    83   90   87 1
    84   91    3 1
    85   92   91 1
    86   94   92 1
    87  104   92 1
    88  105  104 1
    89  106  104 1
    90  107  104 1
    91  108  107 1
    92  109  107 1
    93  110  107 1
    94  111    6 1
    95  112  111 1
    96  113  112 1
    97  114  112 1
    98  117  112 1
    99  118  117 1
   100  119  117 1
   101  120  117 1
   102  121  120 1
   103  122  120 1
   104  123  120 1
   105  131   13 1
   106  132  131 1
   107  134    5 1
   108  135    6 1
   109  136    3 1
   110  137   14 1
   111  138   35 1
   112  139   43 1
   113  140   12 1
   114  141   11 1
   115   23   27 ar
   116   25   43 ar
   117   36   44 1
   118   39   48 1
   119   47  131 1
   120   49   58 1
   121   53   57 ar
   122   55   57 ar
   123   63   69 ar
@<TRIPOS>SUBSTRUCTURE
     1 RES1 1
     2 RES2 2
     3 SUP3 93

@<TRIPOS>CRYSIN
  10.7221   25.4626   16.9760  90.0000  96.8291  90.0000  14 1

