# MOL2 file generated by ConQuest
# Please check atom types

@<TRIPOS>MOLECULE
IFOFOY
    55    60     1
SMALL
NO_CHARGES
****
Generated from CSD

@<TRIPOS>ATOM
      1 C1         3.8925   -1.4245   14.2702 C.3       1 RES1    0.0000
      2 C2         3.0140   -1.4232   13.0203 C.3       1 RES1    0.0000
      3 C3         2.9786    0.0192   12.5096 C.3       1 RES1    0.0000
      4 C4         3.9627    0.7718   13.4236 C.3       1 RES1    0.0000
      5 C5         5.3824    0.7910   12.8281 C.3       1 RES1    0.0000
      6 C6         5.4178    2.1234   12.0750 C.3       1 RES1    0.0000
      7 C7         4.4895    2.9937   12.8558 C.2       1 RES1    0.0000
      8 C8         2.7539    2.6903   14.5887 C.3       1 RES1    0.0000
      9 C9         3.2889    2.7287   15.9685 C.3       1 RES1    0.0000
     10 C10        4.3969    1.7906   16.4290 C.ar      1 RES1    0.0000
     11 C11        5.1400    2.2347   17.5317 C.ar      1 RES1    0.0000
     12 C12        6.0572    1.3900   18.0753 C.ar      1 RES1    0.0000
     13 C13        6.2805    0.1472   17.5646 C.ar      1 RES1    0.0000
     14 C14        5.6010   -0.3174   16.4740 C.ar      1 RES1    0.0000
     15 C15        4.6347    0.5132   15.8923 C.ar      1 RES1    0.0000
     16 C16        3.7963    0.0192   14.7514 C.3       1 RES1    0.0000
     17 C17        7.5746    0.3763   19.3754 C.3       1 RES1    0.0000
     18 C18        3.4078   -3.6042   12.1564 C.2       1 RES1    0.0000
     19 C19        4.2050   -4.4041   11.1835 C.ar      1 RES1    0.0000
     20 C20        5.0547   -3.8128   10.2694 C.ar      1 RES1    0.0000
     21 C21        5.8387   -4.5987    9.4367 C.ar      1 RES1    0.0000
     22 C22        5.7186   -5.9605    9.5648 C.ar      1 RES1    0.0000
     23 C23        4.8965   -6.5672   10.4443 C.ar      1 RES1    0.0000
     24 C24        4.1178   -5.7864   11.2700 C.ar      1 RES1    0.0000
     25 H1         3.5715   -2.0440   14.9298 H         1 RES1    0.0000
     26 H2         4.7981   -1.6485   14.0451 H         1 RES1    0.0000
     27 H3         2.1301   -1.7189   13.2505 H         1 RES1    0.0000
     28 H4         2.0955    0.3878   12.5857 H         1 RES1    0.0000
     29 H5         3.2580    0.0627   11.5920 H         1 RES1    0.0000
     30 H6         5.5293    0.0422   12.2464 H         1 RES1    0.0000
     31 H7         6.0451    0.7807   13.5223 H         1 RES1    0.0000
     32 H8         6.3043    2.4907   12.0439 H         1 RES1    0.0000
     33 H9         5.0973    2.0030   11.1783 H         1 RES1    0.0000
     34 H10        1.9708    2.1362   14.5749 H         1 RES1    0.0000
     35 H11        2.5058    3.5876   14.3515 H         1 RES1    0.0000
     36 H12        3.5894    3.6260   16.1329 H         1 RES1    0.0000
     37 H13        2.5423    2.5393   16.5415 H         1 RES1    0.0000
     38 H14        4.9976    3.1114   17.8970 H         1 RES1    0.0000
     39 H15        5.7782   -1.1865   16.1070 H         1 RES1    0.0000
     40 H16        2.9431    0.1958   15.1531 H         1 RES1    0.0000
     41 H17        8.5249    0.5273   19.3789 H         1 RES1    0.0000
     42 H18        7.3116   -0.0102   20.2133 H         1 RES1    0.0000
     43 H19        5.0773   -2.8555   10.1984 H         1 RES1    0.0000
     44 H20        6.4436   -4.2070    8.8031 H         1 RES1    0.0000
     45 H21        4.8567   -7.5258   10.4893 H         1 RES1    0.0000
     46 H22        3.5246   -6.1947   11.9036 H         1 RES1    0.0000
     47 N1         3.6879    2.2027   13.5742 N.am      1 RES1    0.0000
     48 N2         6.6243   -6.7963    8.7131 N.pl3     1 RES1    0.0000
     49 O1         4.4475    4.2301   12.8506 O.2       1 RES1    0.0000
     50 O2         6.8553    1.6050   19.1746 O.3       1 RES1    0.0000
     51 O3         7.2282   -0.5132   18.3212 O.3       1 RES1    0.0000
     52 O4         3.5944   -2.2923   12.0006 O.3       1 RES1    0.0000
     53 O5         2.6957   -4.0842   13.0047 O.2       1 RES1    0.0000
     54 O6         7.2859   -6.2933    7.8717 O.2       1 RES1    0.0000
     55 O7         6.5562   -7.9879    8.8931 O.2       1 RES1    0.0000
@<TRIPOS>BOND
     1    1    2 1
     2    2    3 1
     3    3    4 1
     4    4    5 1
     5    5    6 1
     6    6    7 1
     7    7   47 1
     8    8    9 1
     9    9   10 1
    10   10   11 ar
    11   11   12 ar
    12   12   13 ar
    13   13   14 ar
    14   14   15 ar
    15   15   10 ar
    16   16    1 1
    17   17   41 1
    18   18   19 1
    19   19   20 ar
    20   20   21 ar
    21   21   22 ar
    22   22   23 ar
    23   23   24 ar
    24   24   19 ar
    25   25    1 1
    26   26    1 1
    27   27    2 1
    28   28    3 1
    29   29    3 1
    30   30    5 1
    31   31    5 1
    32   32    6 1
    33   33    6 1
    34   34    8 1
    35   35    8 1
    36   36    9 1
    37   37    9 1
    38   38   11 1
    39   39   14 1
    40   40   16 1
    41   42   17 1
    42   43   20 1
    43   44   21 1
    44   45   23 1
    45   46   24 1
    46   47    4 1
    47   48   22 1
    48   49    7 2
    49   50   12 1
    50   51   13 1
    51   52    2 1
    52   53   18 2
    53   54   48 2
    54   55   48 2
    55    4   16 1
    56    8   47 1
    57   15   16 1
    58   17   51 1
    59   17   50 1
    60   18   52 1
@<TRIPOS>SUBSTRUCTURE
     1 RES1 1

@<TRIPOS>CRYSIN
   9.6210   12.7990   17.3590  90.0000  94.2230  90.0000  14 2

