# MOL2 file generated by ConQuest
# Please check atom types

@<TRIPOS>MOLECULE
IFOFIT
    48    51     1
SMALL
NO_CHARGES
****
Generated from CSD

@<TRIPOS>ATOM
      1 C1         0.1786    6.2087    4.8258 C.3       1 RES1    0.0000
      2 H1         0.7955    6.0737    5.6013 H         1 RES1    0.0000
      3 C2        -1.0868    5.3795    4.9906 C.3       1 RES1    0.0000
      4 H2        -1.8126    5.7199    4.4105 H         1 RES1    0.0000
      5 H3        -1.3955    5.3857    5.9314 H         1 RES1    0.0000
      6 C3        -0.6593    3.9699    4.5646 C.3       1 RES1    0.0000
      7 H4        -0.3351    3.4595    5.3609 H         1 RES1    0.0000
      8 C4        -1.7475    3.1964    3.8744 C.ar      1 RES1    0.0000
      9 C5        -2.1738    3.5977    2.6041 C.ar      1 RES1    0.0000
     10 H5        -1.7552    4.3538    2.2067 H         1 RES1    0.0000
     11 C6        -3.1633    2.9589    1.9023 C.ar      1 RES1    0.0000
     12 H6        -3.3997    3.2432    1.0270 H         1 RES1    0.0000
     13 C7        -3.7949    1.9125    2.4849 C.ar      1 RES1    0.0000
     14 H7        -4.4996    1.4775    2.0196 H         1 RES1    0.0000
     15 C8        -3.4427    1.4706    3.7242 C.ar      1 RES1    0.0000
     16 H8        -3.8986    0.7240    4.0983 H         1 RES1    0.0000
     17 C9        -2.4016    2.1032    4.4740 C.ar      1 RES1    0.0000
     18 C10       -2.0370    1.5807    5.7869 C.3       1 RES1    0.0000
     19 H9        -1.1068    1.2711    5.7690 H         1 RES1    0.0000
     20 H10       -2.6253    0.8321    6.0157 H         1 RES1    0.0000
     21 H11       -2.1335    2.2866    6.4587 H         1 RES1    0.0000
     22 C11       -0.0558    7.6825    4.5801 C.ar      1 RES1    0.0000
     23 C12       -0.4705    8.0950    3.3112 C.ar      1 RES1    0.0000
     24 H12       -0.5668    7.4595    2.6128 H         1 RES1    0.0000
     25 C13       -0.7398    9.4309    3.0704 C.ar      1 RES1    0.0000
     26 H13       -1.0131    9.7101    2.2043 H         1 RES1    0.0000
     27 C14       -0.6156   10.3554    4.0765 C.ar      1 RES1    0.0000
     28 H14       -0.8090   11.2694    3.9103 H         1 RES1    0.0000
     29 C15       -0.2060    9.9482    5.3347 C.ar      1 RES1    0.0000
     30 H15       -0.1139   10.5979    6.0230 H         1 RES1    0.0000
     31 C16        0.0732    8.6090    5.6212 C.ar      1 RES1    0.0000
     32 C17        0.5140    8.2129    6.9918 C.3       1 RES1    0.0000
     33 H16        0.3935    8.9697    7.6049 H         1 RES1    0.0000
     34 H17        1.4595    7.9574    6.9700 H         1 RES1    0.0000
     35 H18       -0.0233    7.4529    7.3005 H         1 RES1    0.0000
     36 C18        1.6538    3.4542    3.7683 C.ar      1 RES1    0.0000
     37 C19        1.5562    2.1156    4.1517 C.ar      1 RES1    0.0000
     38 H19        0.7157    1.7559    4.4105 H         1 RES1    0.0000
     39 C20        2.6755    1.3209    4.1541 C.ar      1 RES1    0.0000
     40 H20        2.5995    0.4062    4.3988 H         1 RES1    0.0000
     41 C21        3.9221    1.8355    3.8032 C.ar      1 RES1    0.0000
     42 H21        4.6981    1.2875    3.8313 H         1 RES1    0.0000
     43 C22        4.0094    3.1509    3.4154 C.ar      1 RES1    0.0000
     44 H22        4.8537    3.5053    3.1629 H         1 RES1    0.0000
     45 C23        2.8959    3.9699    3.3839 C.ar      1 RES1    0.0000
     46 H23        2.9738    4.8747    3.1043 H         1 RES1    0.0000
     47 N1         0.4803    4.2287    3.6331 N.3       1 RES1    0.0000
     48 O1         0.7475    5.6465    3.6117 O.3       1 RES1    0.0000
@<TRIPOS>BOND
     1    1    2 1
     2    3    1 1
     3    4    3 1
     4    5    3 1
     5    6    3 1
     6    7    6 1
     7    8    6 1
     8    9    8 ar
     9   10    9 1
    10   11    9 ar
    11   12   11 1
    12   13   11 ar
    13   14   13 1
    14   15   13 ar
    15   16   15 1
    16   17    8 ar
    17   18   17 1
    18   19   18 1
    19   20   18 1
    20   21   18 1
    21   22    1 1
    22   23   22 ar
    23   24   23 1
    24   25   23 ar
    25   26   25 1
    26   27   25 ar
    27   28   27 1
    28   29   27 ar
    29   30   29 1
    30   31   22 ar
    31   32   31 1
    32   33   32 1
    33   34   32 1
    34   35   32 1
    35   36   37 ar
    36   37   38 1
    37   39   37 ar
    38   40   39 1
    39   41   39 ar
    40   42   41 1
    41   43   41 ar
    42   44   43 1
    43   45   36 ar
    44   46   45 1
    45   47    6 1
    46   48    1 1
    47   15   17 ar
    48   29   31 ar
    49   36   47 1
    50   43   45 ar
    51   47   48 1
@<TRIPOS>SUBSTRUCTURE
     1 RES1 1

@<TRIPOS>CRYSIN
  11.2270   32.7600    5.3580  90.0000 115.2350  90.0000   9 1

