# MOL2 file generated by ConQuest
# Please check atom types

@<TRIPOS>MOLECULE
IFOWAC
   116   126     2
SMALL
NO_CHARGES
****
Generated from CSD

@<TRIPOS>ATOM
      1 O1         7.6978    6.4197    1.4251 O.2       1 RES1    0.0000
      2 O2         6.1785    7.6178    0.4738 O.2       1 RES1    0.0000
      3 O3         3.8513    6.6574   14.1008 O.2       1 RES1    0.0000
      4 O4         2.5681    5.3965   12.9166 O.2       1 RES1    0.0000
      5 O5         2.6180    1.6576   12.5946 O.2       2 RES2    0.0000
      6 O6         1.0295    2.6344   13.6894 O.2       2 RES2    0.0000
      7 N1         6.6866    6.8336    6.3201 N.pl3     1 RES1    0.0000
      8 N2         7.9811    6.6504    6.6738 N.2       1 RES1    0.0000
      9 N3         7.9817    6.0042    7.8170 N.2       1 RES1    0.0000
     10 N4         6.7819    7.2341    1.4691 N.pl3     1 RES1    0.0000
     11 N5         3.5653    6.6442    8.1591 N.pl3     1 RES1    0.0000
     12 N6         2.2680    6.5141    7.7939 N.2       1 RES1    0.0000
     13 N7         2.2534    6.1008    6.5500 N.2       1 RES1    0.0000
     14 N8         3.3817    6.2992   13.0280 N.pl3     1 RES1    0.0000
     15 N9         1.5443    2.5407    7.7895 N.pl3     2 RES2    0.0000
     16 N10        2.8443    2.3854    7.4482 N.2       2 RES2    0.0000
     17 N11        2.8678    1.8131    6.2621 N.2       2 RES2    0.0000
     18 N12        1.6387    2.3924   12.6515 N.pl3     2 RES2    0.0000
     19 C1         5.8480    6.2834    7.2452 C.2       1 RES1    0.0000
     20 C2         6.6920    5.7565    8.2025 C.2       1 RES1    0.0000
     21 C3         6.3433    5.0724    9.4541 C.ar      1 RES1    0.0000
     22 C4         6.8833    5.5119   10.6646 C.ar      1 RES1    0.0000
     23 C5         6.5358    4.8924   11.8576 C.ar      1 RES1    0.0000
     24 C6         5.6262    3.8499   11.8502 C.ar      1 RES1    0.0000
     25 C7         5.0630    3.4296   10.6608 C.ar      1 RES1    0.0000
     26 C8         5.4249    4.0247    9.4609 C.ar      1 RES1    0.0000
     27 C9         6.3457    7.5522    5.1302 C.ar      1 RES1    0.0000
     28 C10        6.7965    7.0829    3.9100 C.ar      1 RES1    0.0000
     29 C11        6.3673    7.7566    2.7767 C.ar      1 RES1    0.0000
     30 C12        5.5431    8.8672    2.8312 C.ar      1 RES1    0.0000
     31 C13        5.1371    9.3233    4.0678 C.ar      1 RES1    0.0000
     32 C14        5.5324    8.6715    5.2297 C.ar      1 RES1    0.0000
     33 C15        4.3938    6.2887    7.1284 C.2       1 RES1    0.0000
     34 C16        3.5367    5.9435    6.1051 C.2       1 RES1    0.0000
     35 C17        3.8559    5.5224    4.7270 C.ar      1 RES1    0.0000
     36 C18        3.3073    6.2292    3.6559 C.ar      1 RES1    0.0000
     37 C19        3.6153    5.8719    2.3543 C.ar      1 RES1    0.0000
     38 C20        4.4639    4.7980    2.1134 C.ar      1 RES1    0.0000
     39 C21        5.0177    4.0989    3.1741 C.ar      1 RES1    0.0000
     40 C22        4.7134    4.4467    4.4858 C.ar      1 RES1    0.0000
     41 C23        3.9101    7.1450    9.4530 C.ar      1 RES1    0.0000
     42 C24        3.4386    6.4940   10.5780 C.ar      1 RES1    0.0000
     43 C25        3.8343    6.9825   11.8147 C.ar      1 RES1    0.0000
     44 C26        4.6689    8.0764   11.9525 C.ar      1 RES1    0.0000
     45 C27        5.1124    8.7064   10.8139 C.ar      1 RES1    0.0000
     46 C28        4.7371    8.2591    9.5550 C.ar      1 RES1    0.0000
     47 C29        0.7259    2.0394    6.8192 C.2       2 RES2    0.0000
     48 C30        1.5867    1.5754    5.8501 C.2       2 RES2    0.0000
     49 C31        1.2275    0.9140    4.5829 C.ar      2 RES2    0.0000
     50 C32        1.7825    1.3299    3.3696 C.ar      2 RES2    0.0000
     51 C33        1.3814    0.7218    2.1871 C.ar      2 RES2    0.0000
     52 C34        0.4213   -0.2761    2.1967 C.ar      2 RES2    0.0000
     53 C35       -0.1352   -0.6798    3.3963 C.ar      2 RES2    0.0000
     54 C36        0.2735   -0.1049    4.5865 C.ar      2 RES2    0.0000
     55 C37        1.1614    3.0985    9.0476 C.ar      2 RES2    0.0000
     56 C38        1.6342    2.5148   10.2106 C.ar      2 RES2    0.0000
     57 C39        1.1639    3.0128   11.4046 C.ar      2 RES2    0.0000
     58 C40        0.2382    4.0387   11.4872 C.ar      2 RES2    0.0000
     59 C41       -0.1986    4.6119   10.3071 C.ar      2 RES2    0.0000
     60 C42        0.2662    4.1645    9.0795 C.ar      2 RES2    0.0000
     61 H1         7.4779    6.3000   10.6399 H         1 RES1    0.0000
     62 H2         6.9540    5.2253   12.6941 H         1 RES1    0.0000
     63 H3         5.3914    3.4165   12.6776 H         1 RES1    0.0000
     64 H4         4.4075    2.6825   10.6206 H         1 RES1    0.0000
     65 H5         5.0228    3.7398    8.6131 H         1 RES1    0.0000
     66 H6         7.3317    6.2826    3.8500 H         1 RES1    0.0000
     67 H7         5.2574    9.2709    1.9993 H         1 RES1    0.0000
     68 H8         4.5324   10.1185    4.1608 H         1 RES1    0.0000
     69 H9         5.2421    8.9738    6.1271 H         1 RES1    0.0000
     70 H10        2.7323    7.0253    3.8528 H         1 RES1    0.0000
     71 H11        3.2105    6.3787    1.6280 H         1 RES1    0.0000
     72 H12        4.7152    4.5699    1.1798 H         1 RES1    0.0000
     73 H13        5.6046    3.3816    2.9810 H         1 RES1    0.0000
     74 H14        5.1660    3.9233    5.2141 H         1 RES1    0.0000
     75 H15        2.8967    5.7058   10.4996 H         1 RES1    0.0000
     76 H16        4.9132    8.3884   12.8399 H         1 RES1    0.0000
     77 H17        5.6899    9.4631   10.9204 H         1 RES1    0.0000
     78 H18        5.0015    8.6855    8.7286 H         1 RES1    0.0000
     79 H19        2.4368    2.1058    3.3990 H         2 RES2    0.0000
     80 H20        1.7758    1.0223    1.3420 H         2 RES2    0.0000
     81 H21        0.1218   -0.6641    1.3448 H         2 RES2    0.0000
     82 H22       -0.8041   -1.3981    3.4128 H         2 RES2    0.0000
     83 H23       -0.0944   -0.4194    5.4698 H         2 RES2    0.0000
     84 H24        2.2358    1.7651   10.1614 H         2 RES2    0.0000
     85 H25       -0.1188    4.3253   12.3394 H         2 RES2    0.0000
     86 H26       -0.8163    5.3651   10.3649 H         2 RES2    0.0000
     87 H27       -0.0366    4.5262    8.2418 H         2 RES2    0.0000
     88 O5B       -2.6180    1.6576    1.1556 O.2       2 RES2    0.0000
     89 O6B       -1.0295    2.6344    0.0608 O.2       2 RES2    0.0000
     90 N9B       -1.5443    2.5407    5.9607 N.pl3     2 RES2    0.0000
     91 N10B      -2.8443    2.3854    6.3020 N.2       2 RES2    0.0000
     92 N11B      -2.8678    1.8131    7.4881 N.2       2 RES2    0.0000
     93 N12B      -1.6387    2.3924    1.0986 N.pl3     2 RES2    0.0000
     94 C29B      -0.7259    2.0394    6.9309 C.2       2 RES2    0.0000
     95 C30B      -1.5867    1.5754    7.9000 C.2       2 RES2    0.0000
     96 C31B      -1.2275    0.9140    9.1672 C.ar      2 RES2    0.0000
     97 C32B      -1.7825    1.3299   10.3805 C.ar      2 RES2    0.0000
     98 C33B      -1.3814    0.7218   11.5631 C.ar      2 RES2    0.0000
     99 C34B      -0.4213   -0.2761   11.5534 C.ar      2 RES2    0.0000
    100 C35B       0.1352   -0.6798   10.3539 C.ar      2 RES2    0.0000
    101 C36B      -0.2735   -0.1049    9.1636 C.ar      2 RES2    0.0000
    102 C37B      -1.1614    3.0985    4.7026 C.ar      2 RES2    0.0000
    103 C38B      -1.6342    2.5148    3.5396 C.ar      2 RES2    0.0000
    104 C39B      -1.1639    3.0128    2.3455 C.ar      2 RES2    0.0000
    105 C40B      -0.2382    4.0387    2.2630 C.ar      2 RES2    0.0000
    106 C41B       0.1986    4.6119    3.4430 C.ar      2 RES2    0.0000
    107 C42B      -0.2662    4.1645    4.6707 C.ar      2 RES2    0.0000
    108 H19B      -2.4368    2.1058   10.3511 H         2 RES2    0.0000
    109 H20B      -1.7758    1.0223   12.4081 H         2 RES2    0.0000
    110 H21B      -0.1218   -0.6641   12.4054 H         2 RES2    0.0000
    111 H22B       0.8041   -1.3981   10.3374 H         2 RES2    0.0000
    112 H23B       0.0944   -0.4194    8.2803 H         2 RES2    0.0000
    113 H24B      -2.2358    1.7651    3.5888 H         2 RES2    0.0000
    114 H25B       0.1188    4.3253    1.4108 H         2 RES2    0.0000
    115 H26B       0.8163    5.3651    3.3853 H         2 RES2    0.0000
    116 H27B       0.0366    4.5262    5.5083 H         2 RES2    0.0000
@<TRIPOS>BOND
     1    1   10 2
     2    2   10 2
     3    3   14 2
     4    4   14 2
     5    5   18 2
     6    6   18 2
     7    7    8 1
     8    8    9 2
     9    9   20 1
    10   10   29 1
    11   11   12 1
    12   12   13 2
    13   13   34 1
    14   14   43 1
    15   15   16 1
    16   16   17 2
    17   17   48 1
    18   18   57 1
    19   19    7 1
    20   20   19 2
    21   21   20 1
    22   22   21 ar
    23   23   22 ar
    24   24   23 ar
    25   25   24 ar
    26   26   21 ar
    27   27    7 1
    28   28   27 ar
    29   29   28 ar
    30   30   29 ar
    31   31   30 ar
    32   32   27 ar
    33   33   11 1
    34   34   33 2
    35   35   34 1
    36   36   35 ar
    37   37   36 ar
    38   38   37 ar
    39   39   38 ar
    40   40   35 ar
    41   41   11 1
    42   42   41 ar
    43   43   42 ar
    44   44   43 ar
    45   45   44 ar
    46   46   41 ar
    47   47   15 1
    48   48   47 2
    49   49   48 1
    50   50   49 ar
    51   51   50 ar
    52   52   51 ar
    53   53   52 ar
    54   54   49 ar
    55   55   15 1
    56   56   55 ar
    57   57   56 ar
    58   58   57 ar
    59   59   58 ar
    60   60   55 ar
    61   61   22 1
    62   62   23 1
    63   63   24 1
    64   64   25 1
    65   65   26 1
    66   66   28 1
    67   67   30 1
    68   68   31 1
    69   69   32 1
    70   70   36 1
    71   71   37 1
    72   72   38 1
    73   73   39 1
    74   74   40 1
    75   75   42 1
    76   76   44 1
    77   77   45 1
    78   78   46 1
    79   79   50 1
    80   80   51 1
    81   81   52 1
    82   82   53 1
    83   83   54 1
    84   84   56 1
    85   85   58 1
    86   86   59 1
    87   87   60 1
    88   88   93 2
    89   89   93 2
    90   90   91 1
    91   91   92 2
    92   92   95 1
    93   93  104 1
    94   94   47 1
    95   95   94 2
    96   96   95 1
    97   97   96 ar
    98   98   97 ar
    99   99   98 ar
   100  100   99 ar
   101  101   96 ar
   102  102   90 1
   103  103  102 ar
   104  104  103 ar
   105  105  104 ar
   106  106  105 ar
   107  107  102 ar
   108  108   97 1
   109  109   98 1
   110  110   99 1
   111  111  100 1
   112  112  101 1
   113  113  103 1
   114  114  105 1
   115  115  106 1
   116  116  107 1
   117   19   33 1
   118   25   26 ar
   119   31   32 ar
   120   39   40 ar
   121   45   46 ar
   122   53   54 ar
   123   59   60 ar
   124   90   94 1
   125  100  101 ar
   126  106  107 ar
@<TRIPOS>SUBSTRUCTURE
     1 RES1 1
     2 RES2 5

@<TRIPOS>CRYSIN
  30.4599    8.7379   27.5003  90.0000  90.0000  90.0000  60 1

