# MOL2 file generated by ConQuest
# Please check atom types

@<TRIPOS>MOLECULE
IFUNAA
   116   122     2
SMALL
NO_CHARGES
****
Generated from CSD

@<TRIPOS>ATOM
      1 O1         6.8956   13.8268    1.3875 O.3       1 RES1    0.0000
      2 O2         4.8649    9.7108    3.3093 O.2       1 RES1    0.0000
      3 O3         6.4001    9.2959    5.4871 O.3       1 RES1    0.0000
      4 N1         6.8088    9.0166    4.1958 N.am      1 RES1    0.0000
      5 H1         7.5758    8.6540    4.0552 H         1 RES1    0.0000
      6 C1         6.6358    9.0614    1.8331 C.ar      1 RES1    0.0000
      7 C2         6.6866    7.7504    1.3724 C.ar      1 RES1    0.0000
      8 H2         6.3906    7.0592    1.9191 H         1 RES1    0.0000
      9 C3         7.1735    7.4654    0.1101 C.ar      1 RES1    0.0000
     10 H3         7.2000    6.5871   -0.1938 H         1 RES1    0.0000
     11 C4         7.6122    8.4752   -0.6845 C.ar      1 RES1    0.0000
     12 H4         7.9421    8.2853   -1.5331 H         1 RES1    0.0000
     13 C5         7.5728    9.7791   -0.2431 C.ar      1 RES1    0.0000
     14 H5         7.8750   10.4576   -0.8030 H         1 RES1    0.0000
     15 C6         7.0896   10.1069    1.0278 C.ar      1 RES1    0.0000
     16 C7         6.0118    9.3113    3.1712 C.2       1 RES1    0.0000
     17 C8         5.9091    8.1523    6.1200 C.3       1 RES1    0.0000
     18 H6         5.1148    7.8536    5.6705 H         1 RES1    0.0000
     19 H7         5.7020    8.3560    7.0346 H         1 RES1    0.0000
     20 H8         6.5732    7.4592    6.0890 H         1 RES1    0.0000
     21 C9         7.1183   11.5124    1.4773 C.2       1 RES1    0.0000
     22 C10        6.8406   12.6654    0.5444 C.3       1 RES1    0.0000
     23 H9         7.5701   12.7196   -0.1085 H         1 RES1    0.0000
     24 C11        7.4700   13.4973    2.6703 C.3       1 RES1    0.0000
     25 C12        7.4468   11.9919    2.6717 C.2       1 RES1    0.0000
     26 H10        7.6386   11.4650    3.4134 H         1 RES1    0.0000
     27 C13        5.5272   12.6110   -0.2068 C.3       1 RES1    0.0000
     28 H11        5.5467   11.8076   -0.7673 H         1 RES1    0.0000
     29 C14        5.3748   13.8073   -1.1378 C.3       1 RES1    0.0000
     30 H12        5.2679   14.6065   -0.6170 H         1 RES1    0.0000
     31 H13        4.6037   13.6818   -1.6959 H         1 RES1    0.0000
     32 H14        6.1580   13.8852   -1.6881 H         1 RES1    0.0000
     33 C15        4.3624   12.4701    0.7286 C.3       1 RES1    0.0000
     34 H15        4.4669   11.6730    1.2525 H         1 RES1    0.0000
     35 H16        3.5492   12.4162    0.2217 H         1 RES1    0.0000
     36 H17        4.3262   13.2329    1.3114 H         1 RES1    0.0000
     37 C16        8.9269   13.9564    2.7432 C.ar      1 RES1    0.0000
     38 C17        9.6019   14.4076    1.6298 C.ar      1 RES1    0.0000
     39 H18        9.1463   14.5006    0.8247 H         1 RES1    0.0000
     40 C18       10.9536   14.7259    1.6943 C.ar      1 RES1    0.0000
     41 H19       11.3971   15.0170    0.9301 H         1 RES1    0.0000
     42 C19       11.6328   14.6172    2.8693 C.ar      1 RES1    0.0000
     43 H20       12.5354   14.8387    2.9127 H         1 RES1    0.0000
     44 C20       10.9756   14.1775    3.9861 C.ar      1 RES1    0.0000
     45 H21       11.4326   14.1045    4.7931 H         1 RES1    0.0000
     46 C21        9.6392   13.8436    3.9219 C.ar      1 RES1    0.0000
     47 H22        9.2088   13.5358    4.6861 H         1 RES1    0.0000
     48 C22        6.6139   14.1481    3.7556 C.ar      1 RES1    0.0000
     49 C23        6.7733   15.4890    4.0695 C.ar      1 RES1    0.0000
     50 H23        7.4317   15.9857    3.6398 H         1 RES1    0.0000
     51 C24        5.9663   16.0988    5.0151 C.ar      1 RES1    0.0000
     52 H24        6.0744   17.0037    5.2039 H         1 RES1    0.0000
     53 C25        5.0166   15.3799    5.6689 C.ar      1 RES1    0.0000
     54 H25        4.4840   15.7898    6.3122 H         1 RES1    0.0000
     55 C26        4.8428   14.0453    5.3803 C.ar      1 RES1    0.0000
     56 H26        4.1984   13.5513    5.8332 H         1 RES1    0.0000
     57 C27        5.6293   13.4369    4.4136 C.ar      1 RES1    0.0000
     58 H27        5.4926   12.5410    4.2056 H         1 RES1    0.0000
     59 O4         2.1112    5.0015    6.5044 O.3       2 RES2    0.0000
     60 O5         0.0883    9.1040    4.5508 O.2       2 RES2    0.0000
     61 O6         1.5990    9.5027    2.3448 O.3       2 RES2    0.0000
     62 N2         2.0274    9.7991    3.6322 N.am      2 RES2    0.0000
     63 H28        2.7938   10.1667    3.7607 H         2 RES2    0.0000
     64 C28        1.8804    9.7753    5.9985 C.ar      2 RES2    0.0000
     65 C29        1.9484   11.0944    6.4335 C.ar      2 RES2    0.0000
     66 H29        1.6493   11.7772    5.8782 H         2 RES2    0.0000
     67 C30        2.4522   11.3998    7.6702 C.ar      2 RES2    0.0000
     68 H30        2.4848   12.2827    7.9554 H         2 RES2    0.0000
     69 C31        2.9093   10.3942    8.4857 C.ar      2 RES2    0.0000
     70 H31        3.2684   10.6006    9.3180 H         2 RES2    0.0000
     71 C32        2.8374    9.0814    8.0751 C.ar      2 RES2    0.0000
     72 H32        3.1330    8.4087    8.6452 H         2 RES2    0.0000
     73 C33        2.3296    8.7399    6.8177 C.ar      2 RES2    0.0000
     74 C34        1.2351    9.5071    4.6698 C.2       2 RES2    0.0000
     75 C35        1.1397   10.6396    1.6866 C.3       2 RES2    0.0000
     76 H33        0.8593   10.4054    0.7999 H         2 RES2    0.0000
     77 H34        1.8456   11.2884    1.6385 H         2 RES2    0.0000
     78 H35        0.3969   11.0113    2.1687 H         2 RES2    0.0000
     79 C36        2.3312    7.3215    6.3871 C.2       2 RES2    0.0000
     80 C37        2.0332    6.1839    7.3285 C.3       2 RES2    0.0000
     81 H36        2.7441    6.1416    8.0019 H         2 RES2    0.0000
     82 C38        2.6602    5.3270    5.2085 C.3       2 RES2    0.0000
     83 C39        2.6634    6.8336    5.2070 C.2       2 RES2    0.0000
     84 H37        2.8738    7.3544    4.4660 H         2 RES2    0.0000
     85 C40        0.6933    6.2561    8.0442 C.3       2 RES2    0.0000
     86 H38        0.6876    7.0824    8.5693 H         2 RES2    0.0000
     87 C41        0.5315    5.0955    9.0203 C.3       2 RES2    0.0000
     88 H39        0.5199    4.2683    8.5352 H         2 RES2    0.0000
     89 H40       -0.2932    5.1960    9.5024 H         2 RES2    0.0000
     90 H41        1.2656    5.0931    9.6404 H         2 RES2    0.0000
     91 C42       -0.4429    6.3372    7.0703 C.3       2 RES2    0.0000
     92 H42       -0.3468    7.1269    6.5324 H         2 RES2    0.0000
     93 H43       -1.2728    6.3769    7.5508 H         2 RES2    0.0000
     94 H44       -0.4356    5.5629    6.5044 H         2 RES2    0.0000
     95 C43        4.1039    4.8328    5.1000 C.ar      2 RES2    0.0000
     96 C44        4.7685    4.8781    3.8844 C.ar      2 RES2    0.0000
     97 H45        4.3135    5.1604    3.1236 H         2 RES2    0.0000
     98 C45        6.0926    4.5116    3.7880 C.ar      2 RES2    0.0000
     99 H46        6.5214    4.5430    2.9639 H         2 RES2    0.0000
    100 C46        6.7821    4.1024    4.8969 C.ar      2 RES2    0.0000
    101 H47        7.6770    3.8576    4.8303 H         2 RES2    0.0000
    102 C47        6.1426    4.0562    6.1022 C.ar      2 RES2    0.0000
    103 H48        6.6067    3.7802    6.8594 H         2 RES2    0.0000
    104 C48        4.8074    4.4180    6.2079 C.ar      2 RES2    0.0000
    105 H49        4.3837    4.3791    7.0346 H         2 RES2    0.0000
    106 C49        1.7606    4.7060    4.1363 C.ar      2 RES2    0.0000
    107 C50        1.8104    3.3529    3.8800 C.ar      2 RES2    0.0000
    108 H50        2.4015    2.8138    4.3559 H         2 RES2    0.0000
    109 C51        0.9818    2.7847    2.9127 C.ar      2 RES2    0.0000
    110 H51        1.0128    1.8699    2.7562 H         2 RES2    0.0000
    111 C52        0.1289    3.5653    2.2012 C.ar      2 RES2    0.0000
    112 H52       -0.4098    3.1861    1.5455 H         2 RES2    0.0000
    113 C53        0.0618    4.8978    2.4440 C.ar      2 RES2    0.0000
    114 H53       -0.5249    5.4288    1.9563 H         2 RES2    0.0000
    115 C54        0.8655    5.4685    3.4192 C.ar      2 RES2    0.0000
    116 H54        0.7995    6.3798    3.5917 H         2 RES2    0.0000
@<TRIPOS>BOND
     1    1   22 1
     2    2   16 2
     3    3    4 1
     4    4    5 1
     5    6    7 ar
     6    7    8 1
     7    9    7 ar
     8   10    9 1
     9   11    9 ar
    10   12   11 1
    11   13   11 ar
    12   14   13 1
    13   15    6 ar
    14   16    4 1
    15   17    3 1
    16   18   17 1
    17   19   17 1
    18   20   17 1
    19   21   15 1
    20   22   21 1
    21   23   22 1
    22   24    1 1
    23   25   21 2
    24   26   25 1
    25   27   22 1
    26   28   27 1
    27   29   27 1
    28   30   29 1
    29   31   29 1
    30   32   29 1
    31   33   27 1
    32   34   33 1
    33   35   33 1
    34   36   33 1
    35   37   24 1
    36   38   37 ar
    37   39   38 1
    38   40   38 ar
    39   41   40 1
    40   42   40 ar
    41   43   42 1
    42   44   42 ar
    43   45   44 1
    44   46   37 ar
    45   47   46 1
    46   48   24 1
    47   49   48 ar
    48   50   49 1
    49   51   49 ar
    50   52   51 1
    51   53   51 ar
    52   54   53 1
    53   55   53 ar
    54   56   55 1
    55   57   48 ar
    56   58   57 1
    57   59   80 1
    58   60   74 2
    59   61   62 1
    60   62   63 1
    61   64   65 ar
    62   65   66 1
    63   67   65 ar
    64   68   67 1
    65   69   67 ar
    66   70   69 1
    67   71   69 ar
    68   72   71 1
    69   73   64 ar
    70   74   62 1
    71   75   61 1
    72   76   75 1
    73   77   75 1
    74   78   75 1
    75   79   73 1
    76   80   79 1
    77   81   80 1
    78   82   59 1
    79   83   79 2
    80   84   83 1
    81   85   80 1
    82   86   85 1
    83   87   85 1
    84   88   87 1
    85   89   87 1
    86   90   87 1
    87   91   85 1
    88   92   91 1
    89   93   91 1
    90   94   91 1
    91   95   82 1
    92   96   95 ar
    93   97   96 1
    94   98   96 ar
    95   99   98 1
    96  100   98 ar
    97  101  100 1
    98  102  100 ar
    99  103  102 1
   100  104   95 ar
   101  105  104 1
   102  106   82 1
   103  107  106 ar
   104  108  107 1
   105  109  107 ar
   106  110  109 1
   107  111  109 ar
   108  112  111 1
   109  113  111 ar
   110  114  113 1
   111  115  106 ar
   112  116  115 1
   113    6   16 1
   114   13   15 ar
   115   24   25 1
   116   44   46 ar
   117   55   57 ar
   118   64   74 1
   119   71   73 ar
   120   82   83 1
   121  102  104 ar
   122  113  115 ar
@<TRIPOS>SUBSTRUCTURE
     1 RES1 1
     2 RES2 59

@<TRIPOS>CRYSIN
   9.5620   15.6698   16.8193  67.2060  89.6940  86.0300   2 1

