# MOL2 file generated by ConQuest
# Please check atom types

@<TRIPOS>MOLECULE
IFUVIP
    37    38     1
SMALL
NO_CHARGES
****
Generated from CSD

@<TRIPOS>ATOM
      1 C1         3.9925   18.3037    2.0950 C.ar      1 RES1    0.0000
      2 C2         5.0711   18.9320    1.5010 C.ar      1 RES1    0.0000
      3 H1         5.8655   18.4665    1.3620 H         1 RES1    0.0000
      4 C3         2.8014   18.9647    2.2948 C.ar      1 RES1    0.0000
      5 H2         2.0816   18.5292    2.6897 H         1 RES1    0.0000
      6 C4         4.9609   20.2607    1.1143 C.ar      1 RES1    0.0000
      7 H3         5.6839   20.6966    0.7216 H         1 RES1    0.0000
      8 C5         2.6869   20.2749    1.9043 C.ar      1 RES1    0.0000
      9 H4         1.8838   20.7244    2.0327 H         1 RES1    0.0000
     10 C6         3.7644   20.9366    1.3179 C.ar      1 RES1    0.0000
     11 C7         4.6139   23.0296    0.4542 C.3       1 RES1    0.0000
     12 H5         4.8495   22.7213   -0.4337 H         1 RES1    0.0000
     13 H6         5.3975   22.9614    1.0224 H         1 RES1    0.0000
     14 C8         4.1243   24.4602    0.4003 C.3       1 RES1    0.0000
     15 H7         3.3526   24.5130   -0.1853 H         1 RES1    0.0000
     16 H8         3.8455   24.7357    1.2875 H         1 RES1    0.0000
     17 C9         5.1922   25.3967   -0.0995 C.3       1 RES1    0.0000
     18 H9         6.0309   25.2193    0.3555 H         1 RES1    0.0000
     19 H10        5.3273   25.2715   -1.0513 H         1 RES1    0.0000
     20 C10        5.6612   27.7656   -0.0942 C.ar      1 RES1    0.0000
     21 C11        6.8933   27.5996   -0.7254 C.ar      1 RES1    0.0000
     22 H11        7.1657   26.7535   -0.9958 H         1 RES1    0.0000
     23 C12        5.2721   29.0406    0.2955 C.ar      1 RES1    0.0000
     24 H12        4.4497   29.1645    0.7102 H         1 RES1    0.0000
     25 C13        7.7126   28.6986   -0.9510 C.ar      1 RES1    0.0000
     26 H13        8.5318   28.5765   -1.3734 H         1 RES1    0.0000
     27 C14        6.1011   30.1295    0.0714 C.ar      1 RES1    0.0000
     28 H14        5.8288   30.9735    0.3456 H         1 RES1    0.0000
     29 C15        7.3365   29.9789   -0.5591 C.ar      1 RES1    0.0000
     30 N1         4.0984   16.9205    2.5234 N.pl3     1 RES1    0.0000
     31 N2         8.1984   31.0758   -0.7543 N.3       1 RES1    0.0000
     32 H15        8.9685   30.9561   -1.1197 H         1 RES1    0.0000
     33 H16        7.9558   31.8642   -0.5082 H         1 RES1    0.0000
     34 O1         3.1541   16.4010    3.1197 O.2       1 RES1    0.0000
     35 O2         5.1197   16.2935    2.2841 O.2       1 RES1    0.0000
     36 O3         3.5378   22.2374    0.9913 O.3       1 RES1    0.0000
     37 O4         4.7674   26.7403    0.1626 O.3       1 RES1    0.0000
@<TRIPOS>BOND
     1    1    2 ar
     2    2    3 1
     3    4    1 ar
     4    5    4 1
     5    6    2 ar
     6    7    6 1
     7    8    4 ar
     8    9    8 1
     9   10    6 ar
    10   11   12 1
    11   13   11 1
    12   14   11 1
    13   15   14 1
    14   16   14 1
    15   17   14 1
    16   18   17 1
    17   19   17 1
    18   20   21 ar
    19   21   22 1
    20   23   20 ar
    21   24   23 1
    22   25   21 ar
    23   26   25 1
    24   27   23 ar
    25   28   27 1
    26   29   25 ar
    27   30    1 1
    28   31   29 1
    29   32   31 1
    30   33   31 1
    31   34   30 2
    32   35   30 2
    33   36   10 1
    34   37   17 1
    35    8   10 ar
    36   11   36 1
    37   20   37 1
    38   27   29 ar
@<TRIPOS>SUBSTRUCTURE
     1 RES1 1

@<TRIPOS>CRYSIN
  10.8080   34.7900    7.5960  90.0000  90.0000  90.0000  56 1

