# MOL2 file generated by ConQuest
# Please check atom types

@<TRIPOS>MOLECULE
IFUWIR
    10    10     1
SMALL
NO_CHARGES
****
Generated from CSD

@<TRIPOS>ATOM
      1 O1         4.3631    1.6064    3.2110 O.3       1 RES1    0.0000
      2 N1         4.6631    0.6305    4.1306 N.pl3     1 RES1    0.0000
      3 N2         4.5896   -0.5122    5.9795 N.2       1 RES1    0.0000
      4 C1         4.0090    0.4494    5.2789 C.2       1 RES1    0.0000
      5 H1         3.2410    0.9370    5.5531 H         1 RES1    0.0000
      6 C2         5.6581   -0.9420    5.2311 C.2       1 RES1    0.0000
      7 H2         6.2622   -1.6302    5.4843 H         1 RES1    0.0000
      8 C3         5.7183   -0.2348    4.0770 C.2       1 RES1    0.0000
      9 H3         6.3576   -0.3226    3.3801 H         1 RES1    0.0000
     10 H4         3.8625    1.2024    2.6077 H         1 RES1    0.0000
@<TRIPOS>BOND
     1    1    2 1
     2    2    4 1
     3    3    4 2
     4    4    5 1
     5    6    3 1
     6    7    6 1
     7    8    2 1
     8    9    8 1
     9   10    1 1
    10    6    8 2
@<TRIPOS>SUBSTRUCTURE
     1 RES1 1

@<TRIPOS>CRYSIN
   5.1024    8.2922    9.3064  90.0000  90.0000  90.0000  19 1

