# MOL2 file generated by ConQuest
# Please check atom types

@<TRIPOS>MOLECULE
IGABOI
    21    21     1
SMALL
NO_CHARGES
****
Generated from CSD

@<TRIPOS>ATOM
      1 O1         1.2847    1.9572    8.1105 O.3       1 RES1    0.0000
      2 H1         0.5690    1.4539    7.8310 H         1 RES1    0.0000
      3 N1         0.9755    2.1263    9.4836 N.2       1 RES1    0.0000
      4 N2         0.6311    3.9173   15.6083 N.pl3     1 RES1    0.0000
      5 H2        -0.1384    3.5030   15.8839 H         1 RES1    0.0000
      6 H3         0.6094    4.8308   15.7969 H         1 RES1    0.0000
      7 C1         1.4532    3.2175   11.5115 C.ar      1 RES1    0.0000
      8 C2         0.5017    2.4511   12.1996 C.ar      1 RES1    0.0000
      9 H4         0.0402    1.7612   11.7371 H         1 RES1    0.0000
     10 C3         0.2195    2.6753   13.5365 C.ar      1 RES1    0.0000
     11 H5        -0.4290    2.1412   13.9795 H         1 RES1    0.0000
     12 C4         0.8849    3.6852   14.2334 C.ar      1 RES1    0.0000
     13 C5         1.8523    4.4340   13.5725 C.ar      1 RES1    0.0000
     14 H6         2.3299    5.1069   14.0443 H         1 RES1    0.0000
     15 C6         2.1274    4.2075   12.2286 C.ar      1 RES1    0.0000
     16 H7         2.7851    4.7351   11.7918 H         1 RES1    0.0000
     17 C7         1.7340    2.9851   10.0697 C.2       1 RES1    0.0000
     18 C8         2.8404    3.7526    9.4034 C.3       1 RES1    0.0000
     19 H8         2.8804    3.5104    8.4539 H         1 RES1    0.0000
     20 H9         3.6938    3.5343    9.8327 H         1 RES1    0.0000
     21 H10        2.6688    4.7140    9.4880 H         1 RES1    0.0000
@<TRIPOS>BOND
     1    1    2 1
     2    3    1 1
     3    4    5 1
     4    6    4 1
     5    7    8 ar
     6    8    9 1
     7   10    8 ar
     8   11   10 1
     9   12    4 1
    10   13   12 ar
    11   14   13 1
    12   15    7 ar
    13   16   15 1
    14   17    3 2
    15   18   17 1
    16   19   18 1
    17   20   18 1
    18   21   18 1
    19    7   17 1
    20   10   12 ar
    21   13   15 ar
@<TRIPOS>SUBSTRUCTURE
     1 RES1 1

@<TRIPOS>CRYSIN
   4.8641    9.2016   17.1447  90.0000  95.5350  90.0000 231 1

