# MOL2 file generated by ConQuest
# Please check atom types

@<TRIPOS>MOLECULE
IGABUO
    48    50     1
SMALL
NO_CHARGES
****
Generated from CSD

@<TRIPOS>ATOM
      1 O1         1.1405    1.5114    1.5314 O.3       1 RES1    0.0000
      2 O2         0.5519    3.6294    1.0189 O.2       1 RES1    0.0000
      3 O3         3.6662    1.0666    2.6449 O.3       1 RES1    0.0000
      4 O4         2.1900   -0.3764    3.5723 O.2       1 RES1    0.0000
      5 O5         4.8374    3.6552    8.9316 O.2       1 RES1    0.0000
      6 O6        -4.4967    3.0188    5.6818 O.2       1 RES1    0.0000
      7 O7         3.6454    2.0471    9.7706 O.2       1 RES1    0.0000
      8 O8        -4.0903    0.8976    5.8721 O.2       1 RES1    0.0000
      9 C1         3.3168    1.1534    4.9842 C.ar      1 RES1    0.0000
     10 N1         4.1270    2.6590    8.8239 N.pl3     1 RES1    0.0000
     11 N2        -3.8798    2.0025    5.3792 N.pl3     1 RES1    0.0000
     12 C2        -2.8058    2.1118    4.3748 C.ar      1 RES1    0.0000
     13 C3         3.3095    0.6013    1.2974 C.3       1 RES1    0.0000
     14 H1         2.8867   -0.2810    1.3512 H         1 RES1    0.0000
     15 C4         3.8386    2.1573    7.4714 C.ar      1 RES1    0.0000
     16 C5         2.3389    1.5981    0.7096 C.3       1 RES1    0.0000
     17 H2         2.7161    2.5010    0.7682 H         1 RES1    0.0000
     18 C6        -0.7771    2.3771    2.5695 C.ar      1 RES1    0.0000
     19 C7        -0.8317    1.2517    3.3870 C.ar      1 RES1    0.0000
     20 H3        -0.1751    0.5976    3.3217 H         1 RES1    0.0000
     21 C8         2.3953    0.9715    6.0134 C.ar      1 RES1    0.0000
     22 H4         1.6017    0.5154    5.8502 H         1 RES1    0.0000
     23 C9        -1.8667    1.1067    4.3006 C.ar      1 RES1    0.0000
     24 H5        -1.9244    0.3547    4.8456 H         1 RES1    0.0000
     25 C10        4.4937    1.8502    5.2139 C.ar      1 RES1    0.0000
     26 H6         5.1045    1.9672    4.5228 H         1 RES1    0.0000
     27 C11       -1.7556    3.3531    2.6519 C.ar      1 RES1    0.0000
     28 H7        -1.7229    4.0927    2.0881 H         1 RES1    0.0000
     29 C12        2.6588    1.4667    7.2745 C.ar      1 RES1    0.0000
     30 H8         2.0580    1.3389    7.9734 H         1 RES1    0.0000
     31 C13        3.2918    1.2100   -1.5636 C.3       1 RES1    0.0000
     32 H9         3.0756    0.9707   -2.4785 H         1 RES1    0.0000
     33 H10        3.7168    2.0826   -1.5727 H         1 RES1    0.0000
     34 C14        4.7636    2.3729    6.4680 C.ar      1 RES1    0.0000
     35 H11        5.5436    2.8545    6.6297 H         1 RES1    0.0000
     36 C15        2.9857    0.5298    3.6730 C.2       1 RES1    0.0000
     37 C16        2.0118    1.2730   -0.7360 C.3       1 RES1    0.0000
     38 H12        1.4234    1.9537   -1.0985 H         1 RES1    0.0000
     39 H13        1.5520    0.4197   -0.7819 H         1 RES1    0.0000
     40 C17        0.3574    2.6028    1.6157 C.2       1 RES1    0.0000
     41 C18       -2.7825    3.2304    3.5717 C.ar      1 RES1    0.0000
     42 H14       -3.4382    3.8853    3.6457 H         1 RES1    0.0000
     43 C19        4.2491    0.1853   -0.9833 C.3       1 RES1    0.0000
     44 H15        5.0663    0.1743   -1.5051 H         1 RES1    0.0000
     45 H16        3.8479   -0.6970   -1.0334 H         1 RES1    0.0000
     46 C20        4.5792    0.5133    0.4728 C.3       1 RES1    0.0000
     47 H17        5.1566   -0.1755    0.8382 H         1 RES1    0.0000
     48 H18        5.0541    1.3585    0.5155 H         1 RES1    0.0000
@<TRIPOS>BOND
     1    1   16 1
     2    2   40 2
     3    3   13 1
     4    4   36 2
     5    5   10 2
     6    6   11 2
     7    7   10 2
     8    8   11 2
     9    9   21 ar
    10   10   15 1
    11   11   12 1
    12   12   23 ar
    13   13   14 1
    14   15   29 ar
    15   16   13 1
    16   17   16 1
    17   18   19 ar
    18   19   20 1
    19   21   22 1
    20   23   19 ar
    21   24   23 1
    22   25    9 ar
    23   26   25 1
    24   27   18 ar
    25   28   27 1
    26   29   21 ar
    27   30   29 1
    28   31   32 1
    29   33   31 1
    30   34   15 ar
    31   35   34 1
    32   36    3 1
    33   37   16 1
    34   38   37 1
    35   39   37 1
    36   40    1 1
    37   41   12 ar
    38   42   41 1
    39   43   31 1
    40   44   43 1
    41   45   43 1
    42   46   13 1
    43   47   46 1
    44   48   46 1
    45    9   36 1
    46   18   40 1
    47   25   34 ar
    48   27   41 ar
    49   31   37 1
    50   43   46 1
@<TRIPOS>SUBSTRUCTURE
     1 RES1 1

@<TRIPOS>CRYSIN
  12.6510   12.2720   13.2186  90.0000 108.8300  90.0000  14 1

