# MOL2 file generated by ConQuest
# Please check atom types

@<TRIPOS>MOLECULE
IGACAV
    70    72     2
SMALL
NO_CHARGES
****
Generated from CSD

@<TRIPOS>ATOM
      1 O1         5.0648    2.9669   -1.6973 O.3       1 RES1    0.0000
      2 O2         3.8705    4.5271   -3.3619 O.3       1 RES1    0.0000
      3 O3        -3.6799    0.5817    2.0937 O.2       1 RES1    0.0000
      4 O4        -3.8755   -0.6722    3.8168 O.2       1 RES1    0.0000
      5 N1         0.7793    1.9401    0.4762 N.2       1 RES1    0.0000
      6 N2        -3.2012   -0.0818    2.9955 N.pl3     1 RES1    0.0000
      7 C1         1.6082    2.6095   -0.4604 C.ar      1 RES1    0.0000
      8 C2         2.9975    2.4341   -0.5443 C.ar      1 RES1    0.0000
      9 C3         3.7186    3.0881   -1.5197 C.ar      1 RES1    0.0000
     10 C4         3.0702    3.9336   -2.4287 C.ar      1 RES1    0.0000
     11 C5         1.7116    4.1077   -2.3412 C.ar      1 RES1    0.0000
     12 C6         0.9918    3.4391   -1.3588 C.ar      1 RES1    0.0000
     13 C7         5.7621    2.1228   -0.7964 C.3       1 RES1    0.0000
     14 C8         3.2520    5.3212   -4.3400 C.3       1 RES1    0.0000
     15 C9         1.2578    1.2995    1.4475 C.2       1 RES1    0.0000
     16 C10        0.4049    0.5440    2.3712 C.ar      1 RES1    0.0000
     17 C11       -0.9782    0.5728    2.2401 C.ar      1 RES1    0.0000
     18 C12       -1.7407   -0.1737    3.1085 C.ar      1 RES1    0.0000
     19 C13       -1.1923   -0.9757    4.0886 C.ar      1 RES1    0.0000
     20 C14        0.1670   -1.0004    4.2160 C.ar      1 RES1    0.0000
     21 C15        0.9606   -0.2427    3.3743 C.ar      1 RES1    0.0000
     22 O5        -1.1670    4.3901    4.9992 O.3       2 RES2    0.0000
     23 O6        -2.8368    5.2613    6.7444 O.3       2 RES2    0.0000
     24 O7        -4.7012   -4.4440   11.9411 O.2       2 RES2    0.0000
     25 O8        -3.7013   -3.9769   10.1289 O.2       2 RES2    0.0000
     26 N3        -3.2119    0.7397    8.6714 N.2       2 RES2    0.0000
     27 N4        -4.3293   -3.6450   11.1060 N.pl3     2 RES2    0.0000
     28 C16       -2.7123    1.7122    7.7718 C.ar      2 RES2    0.0000
     29 C17       -1.8026    1.2700    6.8434 C.ar      2 RES2    0.0000
     30 C18       -1.2559    2.1324    5.9004 C.ar      2 RES2    0.0000
     31 C19       -1.6167    3.4548    5.8825 C.ar      2 RES2    0.0000
     32 C20       -2.5394    3.9278    6.8355 C.ar      2 RES2    0.0000
     33 C21       -3.0809    3.0635    7.7601 C.ar      2 RES2    0.0000
     34 C22       -0.1930    3.9742    4.0422 C.3       2 RES2    0.0000
     35 C23       -3.6686    5.8007    7.7637 C.3       2 RES2    0.0000
     36 C24       -3.9614    1.0574    9.6431 C.2       2 RES2    0.0000
     37 C25       -4.4803    0.0384   10.5672 C.ar      2 RES2    0.0000
     38 C26       -4.1564   -1.3011   10.4111 C.ar      2 RES2    0.0000
     39 C27       -4.6714   -2.2263   11.2898 C.ar      2 RES2    0.0000
     40 C28       -5.5069   -1.8718   12.3295 C.ar      2 RES2    0.0000
     41 C29       -5.8226   -0.5460   12.4797 C.ar      2 RES2    0.0000
     42 C30       -5.3179    0.4068   11.6067 C.ar      2 RES2    0.0000
     43 H1         3.4324    1.8759    0.0585 H         1 RES1    0.0000
     44 H2         1.2740    4.6708   -2.9376 H         1 RES1    0.0000
     45 H3         0.0708    3.5579   -1.3094 H         1 RES1    0.0000
     46 H4         6.6960    2.1193   -1.0188 H         1 RES1    0.0000
     47 H5         5.4151    1.2301   -0.8603 H         1 RES1    0.0000
     48 H6         5.6470    2.4469    0.1000 H         1 RES1    0.0000
     49 H7         3.9193    5.6771   -4.9318 H         1 RES1    0.0000
     50 H8         2.7828    6.0438   -3.9168 H         1 RES1    0.0000
     51 H9         2.6324    4.7870   -4.8412 H         1 RES1    0.0000
     52 H10        2.1776    1.3048    1.5829 H         1 RES1    0.0000
     53 H11       -1.3807    1.0873    1.5773 H         1 RES1    0.0000
     54 H12       -1.7341   -1.4849    4.6469 H         1 RES1    0.0000
     55 H13        0.5600   -1.5292    4.8714 H         1 RES1    0.0000
     56 H14        1.8848   -0.2602    3.4809 H         1 RES1    0.0000
     57 H15       -1.5469    0.3761    6.8449 H         2 RES2    0.0000
     58 H16       -0.6437    1.8116    5.2790 H         2 RES2    0.0000
     59 H17       -3.6963    3.3793    8.3826 H         2 RES2    0.0000
     60 H18        0.0441    4.7180    3.4828 H         2 RES2    0.0000
     61 H19       -0.5566    3.2698    3.5017 H         2 RES2    0.0000
     62 H20        0.5894    3.6559    4.4998 H         2 RES2    0.0000
     63 H21       -3.8085    6.7365    7.5996 H         2 RES2    0.0000
     64 H22       -3.2449    5.6854    8.6165 H         2 RES2    0.0000
     65 H23       -4.5138    5.3457    7.7618 H         2 RES2    0.0000
     66 H24       -4.1864    1.9504    9.7731 H         2 RES2    0.0000
     67 H25       -3.5972   -1.5715    9.7202 H         2 RES2    0.0000
     68 H26       -5.8461   -2.5139   12.9106 H         2 RES2    0.0000
     69 H27       -6.3818   -0.2825   13.1748 H         2 RES2    0.0000
     70 H28       -5.5449    1.3014   11.7201 H         2 RES2    0.0000
@<TRIPOS>BOND
     1    1    9 1
     2    2   10 1
     3    3    6 2
     4    4    6 2
     5    5    7 1
     6    6   18 1
     7    7    8 ar
     8    8    9 ar
     9    9   10 ar
    10   10   11 ar
    11   11   12 ar
    12   12    7 ar
    13   13    1 1
    14   14    2 1
    15   15    5 2
    16   16   15 1
    17   17   16 ar
    18   18   17 ar
    19   19   18 ar
    20   20   19 ar
    21   21   16 ar
    22   22   31 1
    23   23   32 1
    24   24   27 2
    25   25   27 2
    26   26   28 1
    27   27   39 1
    28   28   29 ar
    29   29   30 ar
    30   30   31 ar
    31   31   32 ar
    32   32   33 ar
    33   33   28 ar
    34   34   22 1
    35   35   23 1
    36   36   26 2
    37   37   36 1
    38   38   37 ar
    39   39   38 ar
    40   40   39 ar
    41   41   40 ar
    42   42   37 ar
    43   43    8 1
    44   44   11 1
    45   45   12 1
    46   46   13 1
    47   47   13 1
    48   48   13 1
    49   49   14 1
    50   50   14 1
    51   51   14 1
    52   52   15 1
    53   53   17 1
    54   54   19 1
    55   55   20 1
    56   56   21 1
    57   57   29 1
    58   58   30 1
    59   59   33 1
    60   60   34 1
    61   61   34 1
    62   62   34 1
    63   63   35 1
    64   64   35 1
    65   65   35 1
    66   66   36 1
    67   67   38 1
    68   68   40 1
    69   69   41 1
    70   70   42 1
    71   20   21 ar
    72   41   42 ar
@<TRIPOS>SUBSTRUCTURE
     1 RES1 1
     2 RES2 22

@<TRIPOS>CRYSIN
   8.6345    8.6540   19.2304  96.6290  97.3380 102.0750   2 1

