# MOL2 file generated by ConQuest
# Please check atom types

@<TRIPOS>MOLECULE
IGADIE
    35    36     1
SMALL
NO_CHARGES
****
Generated from CSD

@<TRIPOS>ATOM
      1 N1         3.9946    1.4237   15.7819 N.am      1 RES1    0.0000
      2 H1         4.3169    0.6760   15.9136 H         1 RES1    0.0000
      3 N2        -5.1928    5.2217   15.1098 N.pl3     1 RES1    0.0000
      4 O1         4.4238    3.6638   15.8311 O.2       1 RES1    0.0000
      5 O2        -1.4402    1.1242   14.4477 O.3       1 RES1    0.0000
      6 O3        -5.2809    5.7740   16.2071 O.2       1 RES1    0.0000
      7 O4        -5.9141    5.5099   14.1595 O.2       1 RES1    0.0000
      8 C1         4.8105    2.4990   15.9574 C.2       1 RES1    0.0000
      9 C2         6.2421    2.1657   16.3573 C.3       1 RES1    0.0000
     10 H2         6.3087    2.1563   17.3450 H         1 RES1    0.0000
     11 H3         6.4665    1.2586   16.0293 H         1 RES1    0.0000
     12 C3         7.2507    3.1576   15.8010 C.3       1 RES1    0.0000
     13 H4         8.1525    2.9030   16.0888 H         1 RES1    0.0000
     14 H5         7.0433    4.0558   16.1344 H         1 RES1    0.0000
     15 H6         7.2063    3.1540   14.8221 H         1 RES1    0.0000
     16 C4         2.5995    1.4457   15.4828 C.ar      1 RES1    0.0000
     17 C5         1.8134    0.4051   15.9827 C.ar      1 RES1    0.0000
     18 H7         2.2086   -0.2594   16.5339 H         1 RES1    0.0000
     19 C6         0.4532    0.3317   15.6799 C.ar      1 RES1    0.0000
     20 H8        -0.0788   -0.3741   16.0275 H         1 RES1    0.0000
     21 C7        -0.1114    1.3011   14.8675 C.ar      1 RES1    0.0000
     22 C8         0.6521    2.3517   14.3699 C.ar      1 RES1    0.0000
     23 H9         0.2494    3.0167   13.8235 H         1 RES1    0.0000
     24 C9         2.0135    2.4256   14.6776 C.ar      1 RES1    0.0000
     25 H10        2.5391    3.1409   14.3403 H         1 RES1    0.0000
     26 C10       -2.3212    2.1756   14.6331 C.ar      1 RES1    0.0000
     27 C11       -3.2354    2.4198   13.6097 C.ar      1 RES1    0.0000
     28 H11       -3.2098    1.9042   12.8126 H         1 RES1    0.0000
     29 C12       -4.1841    3.4228   13.7653 C.ar      1 RES1    0.0000
     30 H12       -4.8138    3.6025   13.0771 H         1 RES1    0.0000
     31 C13       -4.1955    4.1579   14.9420 C.ar      1 RES1    0.0000
     32 C14       -3.2942    3.9090   15.9697 C.ar      1 RES1    0.0000
     33 H13       -3.3273    4.4184   16.7704 H         1 RES1    0.0000
     34 C15       -2.3450    2.9098   15.8131 C.ar      1 RES1    0.0000
     35 H14       -1.7185    2.7295   16.5041 H         1 RES1    0.0000
@<TRIPOS>BOND
     1    1    2 1
     2    3    6 2
     3    4    8 2
     4    5   21 1
     5    7    3 2
     6    8    1 1
     7    9    8 1
     8   10    9 1
     9   11    9 1
    10   12    9 1
    11   13   12 1
    12   14   12 1
    13   15   12 1
    14   16    1 1
    15   17   16 ar
    16   18   17 1
    17   19   17 ar
    18   20   19 1
    19   21   19 ar
    20   22   21 ar
    21   23   22 1
    22   24   16 ar
    23   25   24 1
    24   26    5 1
    25   27   26 ar
    26   28   27 1
    27   29   27 ar
    28   30   29 1
    29   31    3 1
    30   32   31 ar
    31   33   32 1
    32   34   26 ar
    33   35   34 1
    34   22   24 ar
    35   29   31 ar
    36   32   34 ar
@<TRIPOS>SUBSTRUCTURE
     1 RES1 1

@<TRIPOS>CRYSIN
  14.8597    5.2400   17.9034  90.0000 101.8750  90.0000 231 1

