# MOL2 file generated by ConQuest
# Please check atom types

@<TRIPOS>MOLECULE
IGAFOM
    40    42     1
SMALL
NO_CHARGES
****
Generated from CSD

@<TRIPOS>ATOM
      1 O1         2.7517   -3.4314    5.1709 O.2       1 RES1    0.0000
      2 O2         3.2477   -1.9476    3.7385 O.2       1 RES1    0.0000
      3 N1         2.8577   -2.2710    4.8314 N.pl3     1 RES1    0.0000
      4 C1         2.1073    1.0274    6.2784 C.ar      1 RES1    0.0000
      5 H1         2.1027    1.9178    6.0097 H         1 RES1    0.0000
      6 C2         2.4821    0.0700    5.3752 C.ar      1 RES1    0.0000
      7 H2         2.7312    0.3004    4.5090 H         1 RES1    0.0000
      8 C3         2.4810   -1.2400    5.7841 C.ar      1 RES1    0.0000
      9 C4         2.1071   -1.5969    7.0510 C.ar      1 RES1    0.0000
     10 H3         2.0955   -2.4911    7.3059 H         1 RES1    0.0000
     11 C5         1.7510   -0.6182    7.9357 C.ar      1 RES1    0.0000
     12 H4         1.5121   -0.8566    8.8019 H         1 RES1    0.0000
     13 C6         1.7360    0.7218    7.5760 C.ar      1 RES1    0.0000
     14 C7         1.3480    1.7690    8.6218 C.3       1 RES1    0.0000
     15 C8         2.3836    1.7099    9.7601 C.3       1 RES1    0.0000
     16 H5         3.2659    1.8115    9.3956 H         1 RES1    0.0000
     17 H6         2.3172    0.8635   10.2090 H         1 RES1    0.0000
     18 H7         2.2120    2.4180   10.3855 H         1 RES1    0.0000
     19 C9        -0.0953    1.5694    9.1480 C.3       1 RES1    0.0000
     20 H8        -0.3524    0.6373    9.0672 H         1 RES1    0.0000
     21 H9        -0.1460    1.8207   10.0840 H         1 RES1    0.0000
     22 C10       -1.0423    2.4520    8.3130 C.3       1 RES1    0.0000
     23 C11       -1.6130    1.6985    7.1060 C.3       1 RES1    0.0000
     24 H10       -2.1059    2.3095    6.5520 H         1 RES1    0.0000
     25 H11       -2.1988    1.0017    7.4122 H         1 RES1    0.0000
     26 H12       -0.8951    1.3147    6.5988 H         1 RES1    0.0000
     27 C12       -2.1850    3.0028    9.1455 C.3       1 RES1    0.0000
     28 H13       -1.8315    3.5077    9.8818 H         1 RES1    0.0000
     29 H14       -2.7153    2.2753    9.4821 H         1 RES1    0.0000
     30 H15       -2.7331    3.5717    8.6008 H         1 RES1    0.0000
     31 C13       -0.0767    3.5291    7.8514 C.ar      1 RES1    0.0000
     32 C14       -0.3836    4.7675    7.3105 C.ar      1 RES1    0.0000
     33 H16       -1.2680    5.0245    7.1878 H         1 RES1    0.0000
     34 C15        0.6451    5.6071    6.9587 C.ar      1 RES1    0.0000
     35 H17        0.4506    6.4386    6.5918 H         1 RES1    0.0000
     36 C16        1.9561    5.2416    7.1364 C.ar      1 RES1    0.0000
     37 H18        2.6360    5.8264    6.8910 H         1 RES1    0.0000
     38 C17        2.2708    4.0148    7.6780 C.ar      1 RES1    0.0000
     39 H19        3.1583    3.7670    7.8073 H         1 RES1    0.0000
     40 C18        1.2371    3.1560    8.0266 C.ar      1 RES1    0.0000
@<TRIPOS>BOND
     1    1    3 2
     2    2    3 2
     3    3    8 1
     4    4    5 1
     5    6    4 ar
     6    7    6 1
     7    8    6 ar
     8    9    8 ar
     9   10    9 1
    10   11    9 ar
    11   12   11 1
    12   13    4 ar
    13   14   13 1
    14   15   14 1
    15   16   15 1
    16   17   15 1
    17   18   15 1
    18   19   14 1
    19   20   19 1
    20   21   19 1
    21   22   19 1
    22   23   22 1
    23   24   23 1
    24   25   23 1
    25   26   23 1
    26   27   22 1
    27   28   27 1
    28   29   27 1
    29   30   27 1
    30   31   22 1
    31   32   31 ar
    32   33   32 1
    33   34   32 ar
    34   35   34 1
    35   36   34 ar
    36   37   36 1
    37   38   36 ar
    38   39   38 1
    39   40   14 1
    40   11   13 ar
    41   31   40 ar
    42   38   40 ar
@<TRIPOS>SUBSTRUCTURE
     1 RES1 1

@<TRIPOS>CRYSIN
  11.3050   11.4220   11.9630  90.0000 102.3200  90.0000  14 1

