# MOL2 file generated by ConQuest
# Please check atom types

@<TRIPOS>MOLECULE
IGAGON
    29    29     1
SMALL
NO_CHARGES
****
Generated from CSD

@<TRIPOS>ATOM
      1 O1         5.4933    5.3598    4.5509 O.2       1 RES1    0.0000
      2 O2         4.3127    5.5409    2.7742 O.2       1 RES1    0.0000
      3 O3         4.0028    1.5815    0.0673 O.2       1 RES1    0.0000
      4 O4         3.8345   -0.3070    1.0491 O.2       1 RES1    0.0000
      5 O5         6.3652    1.3245    8.8033 O.2       1 RES1    0.0000
      6 O6         7.6005    2.8096    9.6759 O.2       1 RES1    0.0000
      7 N1         5.1035    3.2888    6.0340 N.2       1 RES1    0.0000
      8 N2         5.9923    2.8597    6.7226 N.2       1 RES1    0.0000
      9 N3         4.8165    4.8870    3.6482 N.pl3     1 RES1    0.0000
     10 N4         4.0859    0.8813    1.0376 N.pl3     1 RES1    0.0000
     11 N5         6.7389    2.4448    8.9109 N.pl3     1 RES1    0.0000
     12 C1         4.9895    2.6773    4.7400 C.ar      1 RES1    0.0000
     13 C2         4.7359    3.4430    3.6023 C.ar      1 RES1    0.0000
     14 C3         4.4227    2.8546    2.3996 C.ar      1 RES1    0.0000
     15 H1         4.2299    3.3711    1.6504 H         1 RES1    0.0000
     16 C4         4.4048    1.5044    2.3379 C.ar      1 RES1    0.0000
     17 C5         4.6835    0.7143    3.4186 C.ar      1 RES1    0.0000
     18 H2         4.6825   -0.2133    3.3396 H         1 RES1    0.0000
     19 C6         4.9640    1.3142    4.6298 C.ar      1 RES1    0.0000
     20 H3         5.1380    0.7875    5.3761 H         1 RES1    0.0000
     21 C7         6.0306    3.5201    8.0570 C.3       1 RES1    0.0000
     22 C8         4.6925    3.7436    8.6770 C.3       1 RES1    0.0000
     23 H4         4.2443    4.4605    8.2220 H         1 RES1    0.0000
     24 H5         4.8017    3.9710    9.6027 H         1 RES1    0.0000
     25 H6         4.1676    2.9420    8.6052 H         1 RES1    0.0000
     26 C9         6.9013    4.6956    7.9422 C.3       1 RES1    0.0000
     27 H7         7.7294    4.4425    7.5289 H         1 RES1    0.0000
     28 H8         7.0758    5.0502    8.8176 H         1 RES1    0.0000
     29 H9         6.4669    5.3636    7.4069 H         1 RES1    0.0000
@<TRIPOS>BOND
     1    1    9 2
     2    2    9 2
     3    3   10 2
     4    4   10 2
     5    5   11 2
     6    6   11 2
     7    7    8 2
     8    8   21 1
     9    9   13 1
    10   10   16 1
    11   11   21 1
    12   12    7 1
    13   13   12 ar
    14   14   13 ar
    15   15   14 1
    16   16   14 ar
    17   17   16 ar
    18   18   17 1
    19   19   12 ar
    20   20   19 1
    21   21   22 1
    22   22   23 1
    23   24   22 1
    24   25   22 1
    25   26   21 1
    26   27   26 1
    27   28   26 1
    28   29   26 1
    29   17   19 ar
@<TRIPOS>SUBSTRUCTURE
     1 RES1 1

@<TRIPOS>CRYSIN
  13.4950   12.8470   14.3620  90.0000  92.1800  90.0000  15 1

