# MOL2 file generated by ConQuest
# Please check atom types

@<TRIPOS>MOLECULE
IGAKIL
    26    26     1
SMALL
NO_CHARGES
****
Generated from CSD

@<TRIPOS>ATOM
      1 O1        -1.3097    5.7637   10.6538 O.3       1 RES1    0.0000
      2 O2         3.5439    0.6825   12.3354 O.2       1 RES1    0.0000
      3 O3         4.3103    2.6603   13.0593 O.3       1 RES1    0.0000
      4 O4        -1.0866    4.7267    8.6840 O.2       1 RES1    0.0000
      5 O5        -0.2511    1.0206    8.9407 O.2       1 RES1    0.0000
      6 N1        -0.6299    1.9234    9.6925 N.pl3     1 RES1    0.0000
      7 C1         2.3680    2.6502   11.7409 C.ar      1 RES1    0.0000
      8 O6        -1.7993    2.1943    9.8741 O.2       1 RES1    0.0000
      9 C2         3.4625    1.8778   12.4068 C.2       1 RES1    0.0000
     10 C3         2.3015    4.0430   11.8717 C.ar      1 RES1    0.0000
     11 H1         2.9484    4.5089   12.3499 H         1 RES1    0.0000
     12 C4         0.2751    4.0620   10.5472 C.ar      1 RES1    0.0000
     13 C5         1.2496    4.7065   11.2700 C.ar      1 RES1    0.0000
     14 H2         1.1982    5.6308   11.3584 H         1 RES1    0.0000
     15 C6        -0.7838    4.8394    9.8305 C.2       1 RES1    0.0000
     16 C7        -2.2498    6.6741   10.0908 C.3       1 RES1    0.0000
     17 H3        -2.4432    7.3680   10.7252 H         1 RES1    0.0000
     18 H4        -3.0585    6.2056    9.8729 H         1 RES1    0.0000
     19 H5        -1.8817    7.0641    9.2942 H         1 RES1    0.0000
     20 C8         0.3856    2.6679   10.4274 C.ar      1 RES1    0.0000
     21 C9         1.4141    1.9702   11.0049 C.ar      1 RES1    0.0000
     22 H6         1.4709    1.0471   10.9032 H         1 RES1    0.0000
     23 C10        5.4078    1.9892   13.7095 C.3       1 RES1    0.0000
     24 H7         6.0404    2.6413   14.0230 H         1 RES1    0.0000
     25 H8         5.8381    1.4004   13.0848 H         1 RES1    0.0000
     26 H9         5.0769    1.4815   14.4540 H         1 RES1    0.0000
@<TRIPOS>BOND
     1    1   15 1
     2    2    9 2
     3    3    9 1
     4    4   15 2
     5    5    6 2
     6    6    8 2
     7    7    9 1
     8   10    7 ar
     9   11   10 1
    10   12   13 ar
    11   13   10 ar
    12   14   13 1
    13   15   12 1
    14   16    1 1
    15   17   16 1
    16   18   16 1
    17   19   16 1
    18   20    6 1
    19   21    7 ar
    20   22   21 1
    21   23    3 1
    22   24   23 1
    23   25   23 1
    24   26   23 1
    25   12   20 ar
    26   20   21 ar
@<TRIPOS>SUBSTRUCTURE
     1 RES1 1

@<TRIPOS>CRYSIN
   6.9080   12.6620   12.2310  90.0000  98.1800  90.0000 231 1

