# MOL2 file generated by ConQuest
# Please check atom types

@<TRIPOS>MOLECULE
IGALAF
    34    37     1
SMALL
NO_CHARGES
****
Generated from CSD

@<TRIPOS>ATOM
      1 C1        17.3066    7.0678    2.9773 C.ar      1 RES1    0.0000
      2 H1        16.9299    7.7594    3.5094 H         1 RES1    0.0000
      3 C2        16.4820    6.1538    2.3238 C.ar      1 RES1    0.0000
      4 H2        15.5403    6.2202    2.4237 H         1 RES1    0.0000
      5 C3        18.4048    5.0308    1.3586 C.ar      1 RES1    0.0000
      6 C4        19.0127    4.0098    0.5032 C.ar      1 RES1    0.0000
      7 C5        18.7257    2.1520   -1.0220 C.ar      1 RES1    0.0000
      8 H3        18.1488    1.5689   -1.5017 H         1 RES1    0.0000
      9 C6        20.1297    1.9901   -1.1306 C.ar      1 RES1    0.0000
     10 C7        20.6517    0.9529   -1.9417 C.ar      1 RES1    0.0000
     11 H4        20.0518    0.3758   -2.4001 H         1 RES1    0.0000
     12 C8        21.9967    0.7650   -2.0785 C.ar      1 RES1    0.0000
     13 H5        22.3306    0.0535   -2.6110 H         1 RES1    0.0000
     14 C9        18.6767    6.9566    2.8429 C.ar      1 RES1    0.0000
     15 H6        19.2488    7.5672    3.2925 H         1 RES1    0.0000
     16 C10       19.2218    5.9427    2.0438 C.ar      1 RES1    0.0000
     17 C11       20.6795    5.8315    1.9754 C.2       1 RES1    0.0000
     18 C12       22.9986    3.9877    2.3753 C.3       1 RES1    0.0000
     19 H7        22.6863    4.4515    3.1789 H         1 RES1    0.0000
     20 H8        23.9782    3.9477    2.3809 H         1 RES1    0.0000
     21 H9        22.6362    3.0780    2.3602 H         1 RES1    0.0000
     22 C13       22.8785    1.6354   -1.4234 C.ar      1 RES1    0.0000
     23 H10       23.8144    1.5171   -1.5283 H         1 RES1    0.0000
     24 C14       22.4108    2.6568   -0.6324 C.ar      1 RES1    0.0000
     25 H11       23.0329    3.2372   -0.2109 H         1 RES1    0.0000
     26 C15       21.0163    2.8685   -0.4265 C.ar      1 RES1    0.0000
     27 C16       20.4067    3.8867    0.4197 C.ar      1 RES1    0.0000
     28 C17       18.1933    3.1244   -0.2459 C.ar      1 RES1    0.0000
     29 H12       17.2489    3.2167   -0.2006 H         1 RES1    0.0000
     30 C18       17.0096    5.1560    1.5356 C.ar      1 RES1    0.0000
     31 H13       16.4252    4.5427    1.1049 H         1 RES1    0.0000
     32 N1        21.1618    4.7884    1.1921 N.am      1 RES1    0.0000
     33 O1        21.4504    6.5516    2.6007 O.2       1 RES1    0.0000
     34 O2        22.5504    4.7078    1.1950 O.3       1 RES1    0.0000
@<TRIPOS>BOND
     1    1    2 1
     2    3    1 ar
     3    4    3 1
     4    5    6 1
     5    6   27 ar
     6    7    8 1
     7    9    7 ar
     8   10    9 ar
     9   11   10 1
    10   12   10 ar
    11   13   12 1
    12   14    1 ar
    13   15   14 1
    14   16    5 ar
    15   17   16 1
    16   18   19 1
    17   20   18 1
    18   21   18 1
    19   22   12 ar
    20   23   22 1
    21   24   22 ar
    22   25   24 1
    23   26    9 ar
    24   27   26 ar
    25   28    6 ar
    26   29   28 1
    27   30    3 ar
    28   31   30 1
    29   32   17 1
    30   33   17 2
    31   34   18 1
    32    5   30 ar
    33    7   28 ar
    34   14   16 ar
    35   24   26 ar
    36   27   32 1
    37   32   34 1
@<TRIPOS>SUBSTRUCTURE
     1 RES1 1

@<TRIPOS>CRYSIN
  32.2270    5.3990   15.1906  90.0000 103.8100  90.0000  15 1

