# MOL2 file generated by ConQuest
# Please check atom types

@<TRIPOS>MOLECULE
IGAMOV
    38    40     1
SMALL
NO_CHARGES
****
Generated from CSD

@<TRIPOS>ATOM
      1 O1        -0.8450    3.4469   10.5293 O.3       1 RES1    0.0000
      2 H1        -1.0893    3.1063    9.8246 H         1 RES1    0.0000
      3 O2         5.1039   -0.0172   16.4427 O.2       1 RES1    0.0000
      4 O3         0.5550    2.8497    8.2850 O.3       1 RES1    0.0000
      5 H2         1.0660    2.7265    7.6547 H         1 RES1    0.0000
      6 O4         5.1286    1.6009   17.8769 O.2       1 RES1    0.0000
      7 O5         2.8230    2.9303    7.0256 O.2       1 RES1    0.0000
      8 N1         4.9016    1.1492   16.7510 N.pl3     1 RES1    0.0000
      9 C1         2.5164    4.3947   11.5540 C.ar      1 RES1    0.0000
     10 C2         1.2456    3.3817    9.3328 C.ar      1 RES1    0.0000
     11 C3         4.4037    2.0721   15.7279 C.ar      1 RES1    0.0000
     12 C4         1.1339    4.1661   11.6257 C.ar      1 RES1    0.0000
     13 C5         3.6416    3.8630   13.7734 C.ar      1 RES1    0.0000
     14 C6         4.4012    1.6561   14.4094 C.ar      1 RES1    0.0000
     15 H3         4.6523    0.7894   14.1843 H         1 RES1    0.0000
     16 C7         0.5043    3.6657   10.4869 C.ar      1 RES1    0.0000
     17 C8         3.2602    4.1675   10.4150 C.ar      1 RES1    0.0000
     18 C9         3.6090    4.2300   15.1198 C.ar      1 RES1    0.0000
     19 H4         3.3211    5.0825   15.3571 H         1 RES1    0.0000
     20 C10        3.9993    3.3413   16.1072 C.ar      1 RES1    0.0000
     21 H5         3.9892    3.5897   17.0036 H         1 RES1    0.0000
     22 C11        2.6188    3.6422    9.2647 C.ar      1 RES1    0.0000
     23 C12        4.0186    2.5576   13.4355 C.ar      1 RES1    0.0000
     24 H6         4.0104    2.2942   12.5432 H         1 RES1    0.0000
     25 C13        3.3944    4.8965   12.6949 C.3       1 RES1    0.0000
     26 H7         2.9991    5.7022   13.0903 H         1 RES1    0.0000
     27 C14        0.3372    4.4756   12.8543 C.3       1 RES1    0.0000
     28 H8         0.9079    4.4323   13.6245 H         1 RES1    0.0000
     29 H9        -0.3727    3.8346   12.9457 H         1 RES1    0.0000
     30 H10       -0.0360    5.3572   12.7811 H         1 RES1    0.0000
     31 C15        4.7121    4.4997   10.6246 C.3       1 RES1    0.0000
     32 H11        5.0497    5.0548    9.9051 H         1 RES1    0.0000
     33 H12        5.2482    3.6941   10.6826 H         1 RES1    0.0000
     34 C16        4.7162    5.2621   11.9576 C.3       1 RES1    0.0000
     35 H13        4.7593    6.2183   11.7986 H         1 RES1    0.0000
     36 H14        5.4828    5.0023   12.4920 H         1 RES1    0.0000
     37 C17        3.3460    3.3902    8.0380 C.2       1 RES1    0.0000
     38 H15        4.2543    3.5862    8.0152 H         1 RES1    0.0000
@<TRIPOS>BOND
     1    1    2 1
     2    3    8 2
     3    4    5 1
     4    6    8 2
     5    7   37 2
     6    8   11 1
     7    9   12 ar
     8   10    4 1
     9   11   14 ar
    10   12   16 ar
    11   13   18 ar
    12   14   15 1
    13   16    1 1
    14   17    9 ar
    15   18   19 1
    16   20   11 ar
    17   21   20 1
    18   22   10 ar
    19   23   13 ar
    20   24   23 1
    21   25    9 1
    22   26   25 1
    23   27   12 1
    24   28   27 1
    25   29   27 1
    26   30   27 1
    27   31   17 1
    28   32   31 1
    29   33   31 1
    30   34   25 1
    31   35   34 1
    32   36   34 1
    33   37   22 1
    34   38   37 1
    35   10   16 ar
    36   13   25 1
    37   14   23 ar
    38   17   22 ar
    39   18   20 ar
    40   31   34 1
@<TRIPOS>SUBSTRUCTURE
     1 RES1 1

@<TRIPOS>CRYSIN
  21.6462    7.0985   19.3764  90.0000 109.2300  90.0000  15 1

