# MOL2 file generated by ConQuest
# Please check atom types

@<TRIPOS>MOLECULE
IGAPEL
    80    85     1
SMALL
NO_CHARGES
****
Generated from CSD

@<TRIPOS>ATOM
      1 O1        -1.0883    4.6059    0.4845 O.3       1 RES1    0.0000
      2 O2         1.0397    2.3299    2.3515 O.3       1 RES1    0.0000
      3 O3         1.8403   12.0787    2.8550 O.2       1 RES1    0.0000
      4 O4         3.3757   11.2839    4.1624 O.2       1 RES1    0.0000
      5 O5        -5.1007   -0.2821    1.3557 O.2       1 RES1    0.0000
      6 O6        -4.1990   -2.2087    0.9674 O.2       1 RES1    0.0000
      7 N1        -0.8562    4.2098    5.3779 N.ar      1 RES1    0.0000
      8 N2        -1.3469    5.8467    3.0721 N.3       1 RES1    0.0000
      9 N3         0.5475    1.8136    4.8816 N.3       1 RES1    0.0000
     10 N4         2.3720   11.1525    3.4639 N.pl3     1 RES1    0.0000
     11 N5        -4.1879   -1.0851    1.4752 N.pl3     1 RES1    0.0000
     12 C1        -0.2904    3.5398    6.4027 C.ar      1 RES1    0.0000
     13 C2         0.0528    4.1606    7.6010 C.ar      1 RES1    0.0000
     14 H1         0.4232    3.6686    8.2973 H         1 RES1    0.0000
     15 C3        -0.1610    5.5074    7.7423 C.ar      1 RES1    0.0000
     16 H2         0.0503    5.9380    8.5385 H         1 RES1    0.0000
     17 C4        -0.6963    6.2103    6.6842 C.ar      1 RES1    0.0000
     18 H3        -0.8257    7.1302    6.7463 H         1 RES1    0.0000
     19 C5        -1.0378    5.5317    5.5261 C.ar      1 RES1    0.0000
     20 C6        -1.7380    6.2763    4.4025 C.3       1 RES1    0.0000
     21 H4        -2.6962    6.1581    4.4990 H         1 RES1    0.0000
     22 H5        -1.5501    7.2222    4.4921 H         1 RES1    0.0000
     23 C7        -2.2600    6.0993    2.0186 C.ar      1 RES1    0.0000
     24 C8        -3.3796    6.9020    2.1955 C.ar      1 RES1    0.0000
     25 H6        -3.4713    7.3733    2.9917 H         1 RES1    0.0000
     26 C9        -4.3643    7.0268    1.2293 C.ar      1 RES1    0.0000
     27 H7        -5.1143    7.5506    1.3947 H         1 RES1    0.0000
     28 C10       -4.2337    6.3748    0.0253 C.ar      1 RES1    0.0000
     29 H8        -4.8849    6.4602   -0.6330 H         1 RES1    0.0000
     30 C11       -3.1239    5.5935   -0.1873 C.ar      1 RES1    0.0000
     31 H9        -3.0275    5.1531   -1.0018 H         1 RES1    0.0000
     32 C12       -2.1496    5.4447    0.7755 C.ar      1 RES1    0.0000
     33 C13       -1.3075    3.2455    0.9490 C.3       1 RES1    0.0000
     34 H10       -2.1775    2.9296    0.6595 H         1 RES1    0.0000
     35 H11       -1.2763    3.2153    1.9175 H         1 RES1    0.0000
     36 C14       -0.2254    2.3778    0.3688 C.3       1 RES1    0.0000
     37 H12       -0.1882    2.5191   -0.5905 H         1 RES1    0.0000
     38 H13       -0.4498    1.4484    0.5239 H         1 RES1    0.0000
     39 C15        1.1435    2.6609    0.9616 C.3       1 RES1    0.0000
     40 H14        1.8212    2.1184    0.5308 H         1 RES1    0.0000
     41 H15        1.3774    3.5963    0.8502 H         1 RES1    0.0000
     42 C16        2.0239    2.7440    3.2077 C.ar      1 RES1    0.0000
     43 C17        3.1867    3.3759    2.8355 C.ar      1 RES1    0.0000
     44 H16        3.3506    3.5536    1.9382 H         1 RES1    0.0000
     45 C18        4.1195    3.7507    3.7994 C.ar      1 RES1    0.0000
     46 H17        4.9233    4.1415    3.5409 H         1 RES1    0.0000
     47 C19        3.8568    3.5474    5.1229 C.ar      1 RES1    0.0000
     48 H18        4.4683    3.8262    5.7651 H         1 RES1    0.0000
     49 C20        2.6760    2.9220    5.5158 C.ar      1 RES1    0.0000
     50 H19        2.5007    2.7982    6.4200 H         1 RES1    0.0000
     51 C21        1.7545    2.4816    4.5668 C.ar      1 RES1    0.0000
     52 C22       -0.0293    2.0691    6.1730 C.3       1 RES1    0.0000
     53 H20        0.5712    1.7407    6.8611 H         1 RES1    0.0000
     54 H21       -0.8651    1.5830    6.2511 H         1 RES1    0.0000
     55 C23        0.0961    5.9193    2.8320 C.3       1 RES1    0.0000
     56 H22        0.2780    5.6260    1.9255 H         1 RES1    0.0000
     57 H23        0.5458    5.3074    3.4352 H         1 RES1    0.0000
     58 C24        0.6728    7.3053    3.0227 C.ar      1 RES1    0.0000
     59 C25        0.3001    8.3549    2.1886 C.ar      1 RES1    0.0000
     60 H24       -0.3278    8.2009    1.5200 H         1 RES1    0.0000
     61 C26        0.8364    9.6138    2.3276 C.ar      1 RES1    0.0000
     62 H25        0.5626   10.3127    1.7796 H         1 RES1    0.0000
     63 C27        1.7956    9.8092    3.3076 C.ar      1 RES1    0.0000
     64 C28        2.1875    8.8111    4.1578 C.ar      1 RES1    0.0000
     65 H26        2.8153    8.9727    4.8242 H         1 RES1    0.0000
     66 C29        1.6292    7.5601    4.0039 C.ar      1 RES1    0.0000
     67 H27        1.8966    6.8708    4.5680 H         1 RES1    0.0000
     68 C30        0.4832    0.4132    4.4508 C.3       1 RES1    0.0000
     69 H28        0.5676   -0.1544    5.2332 H         1 RES1    0.0000
     70 H29        1.2421    0.2332    3.8740 H         1 RES1    0.0000
     71 C31       -0.7760    0.0388    3.7201 C.ar      1 RES1    0.0000
     72 C32       -0.8895   -1.2425    3.1870 C.ar      1 RES1    0.0000
     73 H30       -0.2086   -1.8556    3.3387 H         1 RES1    0.0000
     74 C33       -1.9871   -1.6257    2.4391 C.ar      1 RES1    0.0000
     75 H31       -2.0409   -2.4764    2.0680 H         1 RES1    0.0000
     76 C34       -3.0010   -0.7071    2.2599 C.ar      1 RES1    0.0000
     77 C35       -2.9508    0.5672    2.8067 C.ar      1 RES1    0.0000
     78 H32       -3.6539    1.1626    2.6907 H         1 RES1    0.0000
     79 C36       -1.8258    0.9275    3.5305 C.ar      1 RES1    0.0000
     80 H33       -1.7729    1.7801    3.8970 H         1 RES1    0.0000
@<TRIPOS>BOND
     1    1   32 1
     2    2   39 1
     3    3   10 2
     4    4   10 2
     5    5   11 2
     6    6   11 2
     7    7   12 ar
     8    8   20 1
     9    9   51 1
    10   10   63 1
    11   11   76 1
    12   12   13 ar
    13   13   14 1
    14   15   13 ar
    15   16   15 1
    16   17   15 ar
    17   18   17 1
    18   19    7 ar
    19   20   19 1
    20   21   20 1
    21   22   20 1
    22   23    8 1
    23   24   23 ar
    24   25   24 1
    25   26   24 ar
    26   27   26 1
    27   28   26 ar
    28   29   28 1
    29   30   28 ar
    30   31   30 1
    31   32   23 ar
    32   33    1 1
    33   34   33 1
    34   35   33 1
    35   36   33 1
    36   37   36 1
    37   38   36 1
    38   39   36 1
    39   40   39 1
    40   41   39 1
    41   42    2 1
    42   43   42 ar
    43   44   43 1
    44   45   43 ar
    45   46   45 1
    46   47   45 ar
    47   48   47 1
    48   49   47 ar
    49   50   49 1
    50   51   42 ar
    51   52    9 1
    52   53   52 1
    53   54   52 1
    54   55    8 1
    55   56   55 1
    56   57   55 1
    57   58   55 1
    58   59   58 ar
    59   60   59 1
    60   61   59 ar
    61   62   61 1
    62   63   61 ar
    63   64   63 ar
    64   65   64 1
    65   66   58 ar
    66   67   66 1
    67   68    9 1
    68   69   68 1
    69   70   68 1
    70   71   68 1
    71   72   71 ar
    72   73   72 1
    73   74   72 ar
    74   75   74 1
    75   76   74 ar
    76   77   76 ar
    77   78   77 1
    78   79   71 ar
    79   80   79 1
    80   12   52 1
    81   17   19 ar
    82   30   32 ar
    83   49   51 ar
    84   64   66 ar
    85   77   79 ar
@<TRIPOS>SUBSTRUCTURE
     1 RES1 1

@<TRIPOS>CRYSIN
   8.2340   32.8430   12.1640  90.0000 109.1790  90.0000 231 1

