# MOL2 file generated by ConQuest
# Please check atom types

@<TRIPOS>MOLECULE
IGAZIB
    42    44     1
SMALL
NO_CHARGES
****
Generated from CSD

@<TRIPOS>ATOM
      1 O1         1.6923    7.0406    4.1932 O.3       1 RES1    0.0000
      2 C1         2.0163    8.2226    3.4795 C.3       1 RES1    0.0000
      3 O2         3.1749    8.8466    4.0036 O.3       1 RES1    0.0000
      4 C2         3.0934    9.1608    5.4129 C.3       1 RES1    0.0000
      5 H1         2.3693    9.8341    5.5609 H         1 RES1    0.0000
      6 C3         2.7626    7.8918    6.1722 C.3       1 RES1    0.0000
      7 H2         2.6269    8.1057    7.1294 H         1 RES1    0.0000
      8 H3         3.5213    7.2584    6.1037 H         1 RES1    0.0000
      9 C4         1.5103    7.2420    5.6167 C.3       1 RES1    0.0000
     10 H4         0.7289    7.8475    5.7668 H         1 RES1    0.0000
     11 C5         1.2070    5.8808    6.1998 C.3       1 RES1    0.0000
     12 H5         0.4187    5.5042    5.7559 H         1 RES1    0.0000
     13 H6         1.0313    5.9687    7.1594 H         1 RES1    0.0000
     14 H7         1.9745    5.2875    6.0614 H         1 RES1    0.0000
     15 C6         4.4240    9.7640    5.7953 C.3       1 RES1    0.0000
     16 H8         5.1385    9.1178    5.6182 H         1 RES1    0.0000
     17 H9         4.4181    9.9911    6.7489 H         1 RES1    0.0000
     18 H10        4.5785   10.5750    5.2676 H         1 RES1    0.0000
     19 C7         0.8244    9.1867    3.4233 C.ar      1 RES1    0.0000
     20 C8        -0.4758    8.6794    3.4014 C.ar      1 RES1    0.0000
     21 H11       -0.6176    7.7463    3.5067 H         1 RES1    0.0000
     22 C9        -1.5596    9.5219    3.2273 C.ar      1 RES1    0.0000
     23 H12       -2.4455    9.1801    3.2080 H         1 RES1    0.0000
     24 C10       -1.3139   10.8809    3.0812 C.ar      1 RES1    0.0000
     25 C11       -0.0367   11.4160    3.1161 C.ar      1 RES1    0.0000
     26 H13        0.1003   12.3513    3.0280 H         1 RES1    0.0000
     27 C12        1.0353   10.5564    3.2826 C.ar      1 RES1    0.0000
     28 H14        1.9199   10.9019    3.3008 H         1 RES1    0.0000
     29 C13        2.3466    7.7928    2.0558 C.ar      1 RES1    0.0000
     30 C14        1.6558    6.7423    1.4674 C.ar      1 RES1    0.0000
     31 H15        0.9881    6.2801    1.9614 H         1 RES1    0.0000
     32 C15        1.9358    6.3621    0.1603 C.ar      1 RES1    0.0000
     33 H16        1.4645    5.6378   -0.2346 H         1 RES1    0.0000
     34 C16        2.9013    7.0375   -0.5659 C.ar      1 RES1    0.0000
     35 H17        3.1017    6.7693   -1.4553 H         1 RES1    0.0000
     36 C17        3.5732    8.1015    0.0027 C.ar      1 RES1    0.0000
     37 H18        4.2231    8.5741   -0.5033 H         1 RES1    0.0000
     38 C18        3.3031    8.4851    1.3142 C.ar      1 RES1    0.0000
     39 H19        3.7688    9.2164    1.7022 H         1 RES1    0.0000
     40 N1        -2.4432   11.7880    2.8730 N.pl3     1 RES1    0.0000
     41 O3        -2.2085   12.9917    2.7654 O.2       1 RES1    0.0000
     42 O4        -3.5749   11.3177    2.8023 O.2       1 RES1    0.0000
@<TRIPOS>BOND
     1    1    2 1
     2    2    3 1
     3    3    4 1
     4    4    5 1
     5    6    4 1
     6    7    6 1
     7    8    6 1
     8    9    1 1
     9   10    9 1
    10   11    9 1
    11   12   11 1
    12   13   11 1
    13   14   11 1
    14   15    4 1
    15   16   15 1
    16   17   15 1
    17   18   15 1
    18   19    2 1
    19   20   19 ar
    20   21   20 1
    21   22   20 ar
    22   23   22 1
    23   24   22 ar
    24   25   24 ar
    25   26   25 1
    26   27   19 ar
    27   28   27 1
    28   29    2 1
    29   30   29 ar
    30   31   30 1
    31   32   30 ar
    32   33   32 1
    33   34   32 ar
    34   35   34 1
    35   36   34 ar
    36   37   36 1
    37   38   29 ar
    38   39   38 1
    39   40   24 1
    40   41   40 2
    41   42   40 2
    42    6    9 1
    43   25   27 ar
    44   36   38 ar
@<TRIPOS>SUBSTRUCTURE
     1 RES1 1

@<TRIPOS>CRYSIN
   9.0607   12.9754   13.6636  90.0000  93.3950  90.0000 231 1

