# MOL2 file generated by ConQuest
# Please check atom types

@<TRIPOS>MOLECULE
IGAZOH
    42    44     1
SMALL
NO_CHARGES
****
Generated from CSD

@<TRIPOS>ATOM
      1 O1         2.3452    6.2725    0.5087 O.3       1 RES1    0.0000
      2 C1         3.4900    5.4980    0.8345 C.3       1 RES1    0.0000
      3 O2         3.1660    4.4334    1.7100 O.3       1 RES1    0.0000
      4 C2         2.1319    3.5599    1.1997 C.3       1 RES1    0.0000
      5 H1         2.4548    3.1390    0.3513 H         1 RES1    0.0000
      6 C3         0.9085    4.3838    0.8986 C.3       1 RES1    0.0000
      7 H2         0.5458    4.7580    1.7401 H         1 RES1    0.0000
      8 H3         0.2129    3.8075    0.4925 H         1 RES1    0.0000
      9 C4         1.2502    5.5104   -0.0494 C.3       1 RES1    0.0000
     10 H4         1.5393    5.1211   -0.9248 H         1 RES1    0.0000
     11 C5         0.1602    6.5118   -0.2988 C.3       1 RES1    0.0000
     12 H5        -0.1365    6.8901    0.5551 H         1 RES1    0.0000
     13 H6        -0.5948    6.0689   -0.7396 H         1 RES1    0.0000
     14 H7         0.5002    7.2285   -0.8739 H         1 RES1    0.0000
     15 C6         1.9269    2.4787    2.2295 C.3       1 RES1    0.0000
     16 H8         1.6063    2.8804    3.0648 H         1 RES1    0.0000
     17 H9         2.7765    2.0193    2.3939 H         1 RES1    0.0000
     18 H10        1.2647    1.8363    1.9014 H         1 RES1    0.0000
     19 C7         4.4004    6.4196    1.6382 C.ar      1 RES1    0.0000
     20 C8         4.3229    7.8007    1.4560 C.ar      1 RES1    0.0000
     21 H11        3.7172    8.1652    0.8206 H         1 RES1    0.0000
     22 C9         5.1377    8.6411    2.2087 C.ar      1 RES1    0.0000
     23 H12        5.0956    9.5834    2.0975 H         1 RES1    0.0000
     24 C10        5.9988    8.0840    3.1104 C.ar      1 RES1    0.0000
     25 C11        6.1276    6.7250    3.2995 C.ar      1 RES1    0.0000
     26 H13        6.7495    6.3715    3.9248 H         1 RES1    0.0000
     27 C12        5.3049    5.8818    2.5344 C.ar      1 RES1    0.0000
     28 H14        5.3710    4.9396    2.6325 H         1 RES1    0.0000
     29 C13        4.2129    5.0070   -0.4053 C.ar      1 RES1    0.0000
     30 C14        4.1513    5.7167   -1.5965 C.ar      1 RES1    0.0000
     31 H15        3.6173    6.5022   -1.6474 H         1 RES1    0.0000
     32 C15        4.8625    5.2945   -2.7190 C.ar      1 RES1    0.0000
     33 H16        4.7906    5.7773   -3.5342 H         1 RES1    0.0000
     34 C16        5.6714    4.1761   -2.6518 C.ar      1 RES1    0.0000
     35 H17        6.1625    3.8942   -3.4145 H         1 RES1    0.0000
     36 C17        5.7606    3.4732   -1.4730 C.ar      1 RES1    0.0000
     37 H18        6.3126    2.7016   -1.4251 H         1 RES1    0.0000
     38 C18        5.0466    3.8845   -0.3435 C.ar      1 RES1    0.0000
     39 H19        5.1269    3.3990    0.4694 H         1 RES1    0.0000
     40 N1         6.8070    8.9892    3.9449 N.pl3     1 RES1    0.0000
     41 O3         7.5548    8.5022    4.7925 O.2       1 RES1    0.0000
     42 O4         6.6918   10.1900    3.7596 O.2       1 RES1    0.0000
@<TRIPOS>BOND
     1    1    2 1
     2    2    3 1
     3    3    4 1
     4    4    5 1
     5    6    4 1
     6    7    6 1
     7    8    6 1
     8    9    1 1
     9   10    9 1
    10   11    9 1
    11   12   11 1
    12   13   11 1
    13   14   11 1
    14   15    4 1
    15   16   15 1
    16   17   15 1
    17   18   15 1
    18   19    2 1
    19   20   19 ar
    20   21   20 1
    21   22   20 ar
    22   23   22 1
    23   24   22 ar
    24   25   24 ar
    25   26   25 1
    26   27   19 ar
    27   28   27 1
    28   29    2 1
    29   30   29 ar
    30   31   30 1
    31   32   30 ar
    32   33   32 1
    33   34   32 ar
    34   35   34 1
    35   36   34 ar
    36   37   36 1
    37   38   29 ar
    38   39   38 1
    39   40   24 1
    40   41   40 2
    41   42   40 2
    42    6    9 1
    43   25   27 ar
    44   36   38 ar
@<TRIPOS>SUBSTRUCTURE
     1 RES1 1

@<TRIPOS>CRYSIN
   7.7461   13.7554    8.0544  90.0000 106.5700  90.0000   4 1

