# MOL2 file generated by ConQuest
# Please check atom types

@<TRIPOS>MOLECULE
IGAZEX
    46    49     1
SMALL
NO_CHARGES
****
Generated from CSD

@<TRIPOS>ATOM
      1 O1         8.2109    3.7887    2.7086 O.3       1 RES1    0.0000
      2 C1         7.3793    5.7788    2.0108 C.ar      1 RES1    0.0000
      3 O2         6.3904    9.2060    1.2749 O.3       1 RES1    0.0000
      4 C2         8.4047    5.1468    2.7124 C.ar      1 RES1    0.0000
      5 C3         7.3802    7.1845    1.9358 C.ar      1 RES1    0.0000
      6 C4         6.3013    7.8790    1.1908 C.2       1 RES1    0.0000
      7 C5         9.4548    5.7942    3.3573 C.ar      1 RES1    0.0000
      8 C6         7.0631    3.5750    1.9771 C.2       1 RES1    0.0000
      9 C7         6.5262    4.7289    1.5390 C.2       1 RES1    0.0000
     10 H1         5.7543    4.8255    1.0300 H         1 RES1    0.0000
     11 C8         9.4070    7.1858    3.2779 C.ar      1 RES1    0.0000
     12 H2        10.0688    7.6826    3.7019 H         1 RES1    0.0000
     13 O3         9.3656    1.9988    0.9788 O.2       1 RES1    0.0000
     14 C9         8.4061    7.8562    2.5868 C.ar      1 RES1    0.0000
     15 H3         8.4232    8.7850    2.5596 H         1 RES1    0.0000
     16 C10       10.5344    5.0623    4.0600 C.ar      1 RES1    0.0000
     17 N1         8.9213    1.2453    1.8317 N.pl3     1 RES1    0.0000
     18 C11       11.0589    5.5405    5.2601 C.ar      1 RES1    0.0000
     19 H4        10.7342    6.3310    5.6281 H         1 RES1    0.0000
     20 C12       11.0491    3.8815    3.5331 C.ar      1 RES1    0.0000
     21 H5        10.7130    3.5516    2.7318 H         1 RES1    0.0000
     22 C13        5.3655    9.9555    0.5659 C.3       1 RES1    0.0000
     23 H6         4.4940    9.7854    0.9577 H         1 RES1    0.0000
     24 H7         5.3407    9.6899   -0.3674 H         1 RES1    0.0000
     25 C14        6.6144    2.1858    1.8677 C.ar      1 RES1    0.0000
     26 C15        7.4575    1.0820    1.8986 C.ar      1 RES1    0.0000
     27 C16        5.7073   11.4003    0.6810 C.3       1 RES1    0.0000
     28 H8         5.7619   11.6437    1.6080 H         1 RES1    0.0000
     29 H9         5.0281   11.9254    0.2521 H         1 RES1    0.0000
     30 H10        6.5530   11.5644    0.2567 H         1 RES1    0.0000
     31 C17       12.0614    4.8414    5.9011 C.ar      1 RES1    0.0000
     32 H11       12.4081    5.1687    6.6996 H         1 RES1    0.0000
     33 C18        5.2433    1.9307    1.7819 C.ar      1 RES1    0.0000
     34 H12        4.6464    2.6434    1.7679 H         1 RES1    0.0000
     35 C19       12.5558    3.6683    5.3771 C.ar      1 RES1    0.0000
     36 H13       13.2240    3.2003    5.8233 H         1 RES1    0.0000
     37 C20       12.0523    3.1920    4.1840 C.ar      1 RES1    0.0000
     38 H14       12.3887    2.4055    3.8187 H         1 RES1    0.0000
     39 C21        5.6193   -0.4283    1.8033 C.ar      1 RES1    0.0000
     40 H15        5.2841   -1.2950    1.7925 H         1 RES1    0.0000
     41 C22        6.9851   -0.2148    1.9050 C.ar      1 RES1    0.0000
     42 H16        7.5732   -0.9324    1.9770 H         1 RES1    0.0000
     43 C23        4.7612    0.6418    1.7189 C.ar      1 RES1    0.0000
     44 H17        3.8488    0.4953    1.6188 H         1 RES1    0.0000
     45 O4         9.6068    0.6051    2.6033 O.2       1 RES1    0.0000
     46 O5         5.4421    7.3118    0.5760 O.2       1 RES1    0.0000
@<TRIPOS>BOND
     1    1    4 1
     2    2    4 ar
     3    3    6 1
     4    4    7 ar
     5    5    2 ar
     6    6    5 1
     7    7   11 ar
     8    8    1 1
     9    9    2 1
    10   10    9 1
    11   11   12 1
    12   13   17 2
    13   14    5 ar
    14   15   14 1
    15   16    7 1
    16   17   26 1
    17   18   16 ar
    18   19   18 1
    19   20   16 ar
    20   21   20 1
    21   22    3 1
    22   23   22 1
    23   24   22 1
    24   25    8 1
    25   26   25 ar
    26   27   22 1
    27   28   27 1
    28   29   27 1
    29   30   27 1
    30   31   18 ar
    31   32   31 1
    32   33   25 ar
    33   34   33 1
    34   35   31 ar
    35   36   35 1
    36   37   20 ar
    37   38   37 1
    38   39   40 1
    39   41   26 ar
    40   42   41 1
    41   43   33 ar
    42   44   43 1
    43   45   17 2
    44   46    6 2
    45    8    9 2
    46   11   14 ar
    47   35   37 ar
    48   39   41 ar
    49   39   43 ar
@<TRIPOS>SUBSTRUCTURE
     1 RES1 1

@<TRIPOS>CRYSIN
  15.4744   16.1876   15.6267  90.0000 100.3353  90.0000  15 1

