# MOL2 file generated by ConQuest
# Please check atom types

@<TRIPOS>MOLECULE
IGEKAI
    60    52     2
SMALL
NO_CHARGES
****
Generated from CSD

@<TRIPOS>ATOM
      1 C1        -3.4510    5.9745    4.3530 C.ar      1 RES1    0.0000
      2 C2        -3.0264    6.7641    5.3925 C.ar      1 RES1    0.0000
      3 H1        -3.3444    7.6340    5.4862 H         1 RES1    0.0000
      4 C3        -2.1257    6.2500    6.2944 C.ar      1 RES1    0.0000
      5 H2        -1.8440    6.7745    7.0089 H         1 RES1    0.0000
      6 C4        -1.6299    4.9601    6.1551 C.ar      1 RES1    0.0000
      7 C5        -2.0989    4.1846    5.1053 C.ar      1 RES1    0.0000
      8 H3        -1.7870    3.3152    5.0047 H         1 RES1    0.0000
      9 C6        -3.0201    4.6791    4.2103 C.ar      1 RES1    0.0000
     10 H4        -3.3449    4.1464    3.5216 H         1 RES1    0.0000
     11 C7        -0.6532    4.3856    7.0776 C.2       1 RES1    0.0000
     12 C8         0.9751    6.3466    7.1473 C.3       1 RES1    0.0000
     13 H5         0.5894    6.6163    6.2995 H         1 RES1    0.0000
     14 H6         1.9376    6.2975    7.0355 H         1 RES1    0.0000
     15 C9         0.6494    7.3747    8.1876 C.2       1 RES1    0.0000
     16 C10        1.0396    9.7544    8.5986 C.3       1 RES1    0.0000
     17 H7         0.1388    9.7898    8.9562 H         1 RES1    0.0000
     18 H8         1.1852   10.5265    8.0311 H         1 RES1    0.0000
     19 C11        2.0426    9.7048    9.6939 C.3       1 RES1    0.0000
     20 H9         1.7955    9.0224   10.3233 H         1 RES1    0.0000
     21 H10        2.0724   10.5548   10.1393 H         1 RES1    0.0000
     22 H11        2.9069    9.5041    9.3277 H         1 RES1    0.0000
     23 C12        0.5816    3.0999    8.3922 C.2       1 RES1    0.0000
     24 C13        1.1525    2.0250    9.2374 C.2       1 RES1    0.0000
     25 C14        2.4881    2.2404    9.8530 C.3       1 RES1    0.0000
     26 H12        2.4587    3.0177   10.4170 H         1 RES1    0.0000
     27 H13        3.1413    2.3707    9.1617 H         1 RES1    0.0000
     28 H14        2.7260    1.4734   10.3774 H         1 RES1    0.0000
     29 C15       -0.6005    3.1225    7.6442 C.2       1 RES1    0.0000
     30 C16       -1.6173    2.0593    7.4181 C.ar      1 RES1    0.0000
     31 C17       -2.9537    2.2902    7.6958 C.ar      1 RES1    0.0000
     32 H15       -3.2071    3.1027    8.0698 H         1 RES1    0.0000
     33 C18       -3.9226    1.3327    7.4267 C.ar      1 RES1    0.0000
     34 H16       -4.8148    1.5088    7.6184 H         1 RES1    0.0000
     35 C19       -3.5665    0.1254    6.8790 C.ar      1 RES1    0.0000
     36 H17       -4.2045   -0.5289    6.7036 H         1 RES1    0.0000
     37 C20       -2.2425   -0.0859    6.6005 C.ar      1 RES1    0.0000
     38 C21       -1.2548    0.8463    6.8644 C.ar      1 RES1    0.0000
     39 H18       -0.3639    0.6588    6.6735 H         1 RES1    0.0000
     40 N1        -4.3316    6.5459    3.3471 N.pl3     1 RES1    0.0000
     41 N2         0.4655    5.0290    7.5135 N.pl3     1 RES1    0.0000
     42 N3         1.2300    4.2647    8.3045 N.2       1 RES1    0.0000
     43 N4        -1.8319   -1.3802    6.0373 N.pl3     1 RES1    0.0000
     44 O1        -4.5562    7.7452    3.3987 O.2       1 RES1    0.0000
     45 O2        -4.7940    5.8198    2.4899 O.2       1 RES1    0.0000
     46 O3        -0.2094    7.2611    9.0018 O.2       1 RES1    0.0000
     47 O4         1.2572    8.5123    7.8575 O.3       1 RES1    0.0000
     48 O5         0.5452    0.9939    9.4033 O.2       1 RES1    0.0000
     49 O6        -0.7378   -1.3861    5.4785 O.2       1 RES1    0.0000
     50 O7        -2.6864   -2.2574    6.0588 O.2       1 RES1    0.0000
     51 C22        1.3000    9.3081    9.2606 Du        2 SUP2    0.0000
     52 H19        1.3104    8.9256   10.1522 Du        2 SUP2    0.0000
     53 H20        0.4302    9.7071    9.0990 Du        2 SUP2    0.0000
     54 C23        2.3836   10.3140    9.1007 Du        2 SUP2    0.0000
     55 H21        3.2368    9.8724    9.1351 Du        2 SUP2    0.0000
     56 H22        2.3278   10.9586    9.8083 Du        2 SUP2    0.0000
     57 H23        2.2871   10.7555    8.2547 Du        2 SUP2    0.0000
     58 O8         1.6012    8.2927    8.2572 Du        2 SUP2    0.0000
     59 O9        -0.6479   -1.6954    6.0270 Du        2 SUP2    0.0000
     60 O10       -2.6761   -2.1653    5.6143 Du        2 SUP2    0.0000
@<TRIPOS>BOND
     1    1    2 ar
     2    2    3 1
     3    4    2 ar
     4    5    4 1
     5    6    4 ar
     6    7    6 ar
     7    8    7 1
     8    9    1 ar
     9   10    9 1
    10   11    6 1
    11   12   13 1
    12   14   12 1
    13   15   12 1
    14   16   17 1
    15   18   16 1
    16   19   16 1
    17   20   19 1
    18   21   19 1
    19   22   19 1
    20   23   24 1
    21   24   25 1
    22   25   26 1
    23   27   25 1
    24   28   25 1
    25   29   11 2
    26   30   29 1
    27   31   30 ar
    28   32   31 1
    29   33   31 ar
    30   34   33 1
    31   35   33 ar
    32   36   35 1
    33   37   35 ar
    34   38   30 ar
    35   39   38 1
    36   40    1 1
    37   41   11 1
    38   42   23 2
    39   43   37 1
    40   44   40 2
    41   45   40 2
    42   46   15 2
    43   47   15 1
    44   48   24 2
    45   49   43 2
    46   50   43 2
    47    7    9 ar
    48   12   41 1
    49   16   47 1
    50   23   29 1
    51   37   38 ar
    52   41   42 1
@<TRIPOS>SUBSTRUCTURE
     1 RES1 1
     2 SUP2 51

@<TRIPOS>CRYSIN
  10.6542   23.6126    9.1002  90.0000 109.1290  90.0000  14 1

