# MOL2 file generated by ConQuest
# Please check atom types

@<TRIPOS>MOLECULE
IGIHUB
    33    30     2
SMALL
NO_CHARGES
****
Generated from CSD

@<TRIPOS>ATOM
      1 O1         1.4136    4.4761    0.1884 O.2       1 RES1    0.0000
      2 O2         1.8800    4.5846    4.9874 O.3       1 RES1    0.0000
      3 N1         1.6483    5.4618    0.8947 N.2       1 RES1    0.0000
      4 C1         1.1210    6.7203    4.3615 C.ar      1 RES1    0.0000
      5 C2         0.6515    7.9974    4.7226 C.ar      1 RES1    0.0000
      6 C3         0.3669    8.2725    6.0509 C.ar      1 RES1    0.0000
      7 C4         0.5522    7.3246    7.0538 C.ar      1 RES1    0.0000
      8 C5         1.0349    6.0687    6.7076 C.ar      1 RES1    0.0000
      9 C6         1.3295    5.7695    5.3835 C.ar      1 RES1    0.0000
     10 C7         1.4441    6.4370    2.9623 C.2       1 RES1    0.0000
     11 C8         1.1140    5.3705    2.2130 C.2       1 RES1    0.0000
     12 C9         0.4229    9.0526    3.6745 C.3       1 RES1    0.0000
     13 C10        0.2613    7.6571    8.4967 C.3       1 RES1    0.0000
     14 C11        2.1761    3.6130    5.9828 C.3       1 RES1    0.0000
     15 C12        0.2680    4.2065    2.5751 C.3       1 RES1    0.0000
     16 H1         0.0312    9.1395    6.2825 H         1 RES1    0.0000
     17 H2         1.1756    5.4160    7.4251 H         1 RES1    0.0000
     18 H3         1.9657    7.1054    2.5007 H         1 RES1    0.0000
     19 H4        -0.2081    8.7920    2.9776 H         1 RES1    0.0000
     20 H5         1.2216    9.2518    3.1854 H         1 RES1    0.0000
     21 H6         0.0756    9.8873    4.0683 H         1 RES1    0.0000
     22 H7        -0.4590    8.2533    8.6300 H         1 RES1    0.0000
     23 H8         1.0461    8.1207    8.9416 H         1 RES1    0.0000
     24 H9        -0.0538    6.8635    9.0455 H         1 RES1    0.0000
     25 H10        0.8616    7.1044    9.1580 Du        2 SUP2    0.0000
     26 H11        0.4586    8.6816    8.5781 Du        2 SUP2    0.0000
     27 H12       -0.7902    7.5299    8.7079 Du        2 SUP2    0.0000
     28 H13        2.5903    2.8520    5.4922 H         1 RES1    0.0000
     29 H14        2.7990    3.9733    6.6218 H         1 RES1    0.0000
     30 H15        1.4115    3.3480    6.4314 H         1 RES1    0.0000
     31 H16       -0.1522    4.3461    3.4191 H         1 RES1    0.0000
     32 H17       -0.3726    4.0311    1.8524 H         1 RES1    0.0000
     33 H18        0.7792    3.4200    2.6228 H         1 RES1    0.0000
@<TRIPOS>BOND
     1    1    3 2
     2    2    9 1
     3    3   11 1
     4    4    5 ar
     5    5    6 ar
     6    6    7 ar
     7    7    8 ar
     8    8    9 ar
     9    9    4 ar
    10   10    4 1
    11   11   10 2
    12   12    5 1
    13   13    7 1
    14   14    2 1
    15   15   11 1
    16   16    6 1
    17   17    8 1
    18   18   10 1
    19   19   12 1
    20   20   12 1
    21   21   12 1
    22   22   13 1
    23   23   13 1
    24   24   13 1
    25   28   14 1
    26   29   14 1
    27   30   14 1
    28   31   15 1
    29   32   15 1
    30   33   15 1
@<TRIPOS>SUBSTRUCTURE
     1 RES1 1
     2 SUP2 25

@<TRIPOS>CRYSIN
   7.6370    8.5500    8.8730 101.1900  95.0000  94.6600   2 1

