# MOL2 file generated by ConQuest
# Please check atom types

@<TRIPOS>MOLECULE
IGOTUU
   142   120     3
SMALL
NO_CHARGES
****
Generated from CSD

@<TRIPOS>ATOM
      1 O1        15.8213   12.7078   15.8340 O.3       1 RES1    0.0000
      2 H1        15.6171   13.0962   15.1409 H         1 RES1    0.0000
      3 O2        15.2777   12.4253   13.1679 O.2       1 RES1    0.0000
      4 O3        14.4537    7.7513   15.6657 O.2       1 RES1    0.0000
      5 O4        15.1847    7.7905   17.6867 O.2       1 RES1    0.0000
      6 O5        10.4302   15.0516   10.9900 O.3       2 RES2    0.0000
      7 H2        10.2925   15.4024   11.7186 H         2 RES2    0.0000
      8 O6         8.5095   15.9476   12.6807 O.2       2 RES2    0.0000
      9 O7         7.6293   12.7092    7.2382 O.2       2 RES2    0.0000
     10 O8         6.2094   13.0511    8.7900 O.2       2 RES2    0.0000
     11 N1        14.6711    8.3330   16.7187 N.pl3     1 RES1    0.0000
     12 N2         7.3301   12.8361    8.4167 N.pl3     2 RES2    0.0000
     13 C1        16.3810   11.4257   15.5173 C.3       1 RES1    0.0000
     14 C2        15.3626   10.5991   14.6944 C.3       1 RES1    0.0000
     15 H3        15.7482    9.7155   14.5200 H         1 RES1    0.0000
     16 C3        14.0445   10.4150   15.4813 C.3       1 RES1    0.0000
     17 H4        13.6126   11.2787   15.5679 H         1 RES1    0.0000
     18 H5        13.4537    9.8427   14.9673 H         1 RES1    0.0000
     19 C4        14.2144    9.8136   16.8726 C.3       1 RES1    0.0000
     20 C5        15.3020   10.5527   17.6478 C.3       1 RES1    0.0000
     21 H6        15.4941   10.0654   18.4632 H         1 RES1    0.0000
     22 H7        14.9697   11.4295   17.8985 H         1 RES1    0.0000
     23 C6        16.5989   10.7218   16.8535 C.3       1 RES1    0.0000
     24 H8        17.2304   11.2338   17.3823 H         1 RES1    0.0000
     25 H9        16.9878    9.8478   16.6910 H         1 RES1    0.0000
     26 C7        17.7283   11.5862   14.7974 C.ar      1 RES1    0.0000
     27 C8        18.4253   10.4847   14.3298 C.ar      1 RES1    0.0000
     28 H10       18.0544    9.6359   14.4105 H         1 RES1    0.0000
     29 C9        19.6761   10.6377   13.7407 C.ar      1 RES1    0.0000
     30 H11       20.1337    9.8897   13.4313 H         1 RES1    0.0000
     31 C10       20.2416   11.8827   13.6113 C.ar      1 RES1    0.0000
     32 H12       21.0732   11.9821   13.2076 H         1 RES1    0.0000
     33 C11       19.5667   12.9758   14.0828 C.ar      1 RES1    0.0000
     34 H13       19.9486   13.8207   14.0085 H         1 RES1    0.0000
     35 C12       18.3179   12.8356   14.6696 C.ar      1 RES1    0.0000
     36 H14       17.8695   13.5881   14.9814 H         1 RES1    0.0000
     37 C13       15.0237   11.2529   13.3611 C.2       1 RES1    0.0000
     38 C14       14.3648   10.4685   12.2765 C.ar      1 RES1    0.0000
     39 C15       13.9245   11.1633   11.1541 C.ar      1 RES1    0.0000
     40 H15       14.0182   12.0875   11.1164 H         1 RES1    0.0000
     41 C16       13.3527   10.4922   10.1011 C.ar      1 RES1    0.0000
     42 H16       13.0593   10.9598    9.3536 H         1 RES1    0.0000
     43 C17       13.2160    9.1225   10.1582 C.ar      1 RES1    0.0000
     44 H17       12.8303    8.6693    9.4427 H         1 RES1    0.0000
     45 C18       13.6425    8.4175   11.2587 C.ar      1 RES1    0.0000
     46 H18       13.5486    7.4922   11.2853 H         1 RES1    0.0000
     47 C19       14.2109    9.0882   12.3255 C.ar      1 RES1    0.0000
     48 H19       14.4899    8.6150   13.0763 H         1 RES1    0.0000
     49 C20       12.8716    9.7077   17.6074 C.2       1 RES1    0.0000
     50 C21       11.7274    9.1305   16.8444 C.3       1 RES1    0.0000
     51 H20       12.0283    8.3279   16.3907 H         1 RES1    0.0000
     52 H21       11.4514    9.7667   16.1670 H         1 RES1    0.0000
     53 C22       10.5241    8.7832   17.7100 C.3       1 RES1    0.0000
     54 H22        9.7484    8.6422   17.1446 H         1 RES1    0.0000
     55 H23       10.6989    7.9593   18.1926 H         1 RES1    0.0000
     56 C23       10.2395    9.8815   18.6843 C.3       1 RES1    0.0000
     57 H24       10.0533   10.7020   18.2020 H         1 RES1    0.0000
     58 H25        9.4549    9.6549   19.2077 H         1 RES1    0.0000
     59 C24       11.4050   10.0915   19.5976 C.3       1 RES1    0.0000
     60 H26       11.4300    9.3731   20.2494 H         1 RES1    0.0000
     61 H27       11.2852   10.9253   20.0789 H         1 RES1    0.0000
     62 C25       12.7237   10.1336   18.8573 C.2       1 RES1    0.0000
     63 H28       13.4673   10.4742   19.2984 H         1 RES1    0.0000
     64 C26        9.3939   15.4246   10.0767 C.3       2 RES2    0.0000
     65 C27        8.0360   14.8908   10.5930 C.3       2 RES2    0.0000
     66 H29        7.3434   15.1264    9.9401 H         2 RES2    0.0000
     67 C28        8.0622   13.3521   10.7418 C.3       2 RES2    0.0000
     68 H30        8.6833   13.1177   11.4495 H         2 RES2    0.0000
     69 H31        7.1806   13.0503   11.0116 H         2 RES2    0.0000
     70 C29        8.4665   12.6085    9.4678 C.3       2 RES2    0.0000
     71 C30        9.7574   13.1954    8.9039 C.3       2 RES2    0.0000
     72 H32       10.4933   12.9629    9.4912 H         2 RES2    0.0000
     73 H33        9.9337   12.7980    8.0366 H         2 RES2    0.0000
     74 C31        9.7033   14.7126    8.7520 C.3       2 RES2    0.0000
     75 H34        9.0213   14.9424    8.1007 H         2 RES2    0.0000
     76 H35       10.5555   15.0290    8.4135 H         2 RES2    0.0000
     77 C32        9.4181   16.9314    9.8333 C.ar      2 RES2    0.0000
     78 C33        8.3175   17.6427    9.4016 C.ar      2 RES2    0.0000
     79 H36        7.5036   17.2032    9.3004 H         2 RES2    0.0000
     80 C34        8.3970   18.9965    9.1152 C.ar      2 RES2    0.0000
     81 H37        7.6423   19.4575    8.8280 H         2 RES2    0.0000
     82 C35        9.5988   19.6557    9.2571 C.ar      2 RES2    0.0000
     83 H38        9.6607   20.5646    9.0720 H         2 RES2    0.0000
     84 C36       10.7030   18.9549    9.6738 C.ar      2 RES2    0.0000
     85 H39       11.5205   19.3909    9.7540 H         2 RES2    0.0000
     86 C37       10.6151   17.6254    9.9714 C.ar      2 RES2    0.0000
     87 H40       11.3707   17.1747   10.2733 H         2 RES2    0.0000
     88 C38        7.6524   15.4875   11.9354 C.2       2 RES2    0.0000
     89 C39        6.2371   15.4446   12.3910 C.ar      2 RES2    0.0000
     90 C40        5.9651   15.6966   13.7360 C.ar      2 RES2    0.0000
     91 H41        6.6597   15.9165   14.3151 H         2 RES2    0.0000
     92 C41        4.6771   15.6224   14.2125 C.ar      2 RES2    0.0000
     93 H42        4.5065   15.7754   15.1143 H         2 RES2    0.0000
     94 C42        3.6457   15.3238   13.3652 C.ar      2 RES2    0.0000
     95 H43        2.7771   15.2768   13.6941 H         2 RES2    0.0000
     96 C43        3.8843   15.0896   12.0208 C.ar      2 RES2    0.0000
     97 H44        3.1767   14.9014   11.4464 H         2 RES2    0.0000
     98 C44        5.1868   15.1371   11.5328 C.ar      2 RES2    0.0000
     99 H45        5.3546   14.9641   10.6346 H         2 RES2    0.0000
    100 C45        8.5211   11.0893    9.6444 C.2       2 RES2    0.0000
    101 C46        7.8675   10.4637   10.5380 C.2       2 RES2    0.0000
    102 H46        7.3176   10.9570   11.1023 H         2 RES2    0.0000
    103 C47        7.9302    8.9970   10.7332 C.3       2 RES2    0.0000
    104 H47        7.0559    8.6176   10.5486 H         2 RES2    0.0000
    105 H48        8.1432    8.8114   11.6607 H         2 RES2    0.0000
    106 C48        8.9430    8.3249    9.8604 C.3       2 RES2    0.0000
    107 H49        8.8889    7.3578    9.9104 H         2 RES2    0.0000
    108 H50        9.8479    8.6153   10.0543 H         2 RES2    0.0000
    109 C49        8.4377    8.8600    8.5418 C.3       2 RES2    0.0000
    110 H51        9.0084    8.5102    7.8395 H         2 RES2    0.0000
    111 H52        7.5485    8.4986    8.3948 H         2 RES2    0.0000
    112 C50        8.3628   10.3457    8.3744 C.3       2 RES2    0.0000
    113 H53        9.0566   10.6279    7.7582 H         2 RES2    0.0000
    114 H54        7.5065   10.5759    7.9818 H         2 RES2    0.0000
    115 C51        7.3824   10.3651   10.0011 Du        3 SUP3    0.0000
    116 C52        8.3454   10.5200   10.7863 Du        3 SUP3    0.0000
    117 C53        7.4076    8.8689    9.8416 Du        3 SUP3    0.0000
    118 C54        8.5012    9.0378   10.9787 Du        3 SUP3    0.0000
    119 C55        8.6514    8.2675   10.4501 Du        3 SUP3    0.0000
    120 C56        8.3245    8.2651    9.6961 Du        3 SUP3    0.0000
    121 C57        9.8412    8.8455    9.8150 Du        3 SUP3    0.0000
    122 C58        9.2757    8.8855    8.7483 Du        3 SUP3    0.0000
    123 C59        9.7630   10.3376    9.6226 Du        3 SUP3    0.0000
    124 C60        9.2640   10.3544    8.6372 Du        3 SUP3    0.0000
    125 H55        6.6270   10.7953   10.3312 Du        3 SUP3    0.0000
    126 H56        8.1136   11.0450   11.5184 Du        3 SUP3    0.0000
    127 H57        7.3731    8.6472    8.8984 Du        3 SUP3    0.0000
    128 H58        6.6247    8.4879   10.2686 Du        3 SUP3    0.0000
    129 H59        7.8472    8.7310   11.6263 Du        3 SUP3    0.0000
    130 H60        9.3832    8.8564   11.3401 Du        3 SUP3    0.0000
    131 H61        8.6696    8.4469   11.4042 Du        3 SUP3    0.0000
    132 H62        8.6459    7.3054   10.3218 Du        3 SUP3    0.0000
    133 H63        8.5327    7.3272    9.8291 Du        3 SUP3    0.0000
    134 H64        7.4143    8.3426    9.3708 Du        3 SUP3    0.0000
    135 H65        9.9699    8.4260    8.9500 Du        3 SUP3    0.0000
    136 H66       10.6173    8.6421   10.3593 Du        3 SUP3    0.0000
    137 H67       10.1711    8.6117    9.0001 Du        3 SUP3    0.0000
    138 H68        9.1007    8.5195    7.8677 Du        3 SUP3    0.0000
    139 H69       10.3327   10.7321   10.3015 Du        3 SUP3    0.0000
    140 H70       10.1822   10.5267    8.7686 Du        3 SUP3    0.0000
    141 H71       10.1840   10.6641    8.6591 Du        3 SUP3    0.0000
    142 H72        8.9024   10.5871    7.7691 Du        3 SUP3    0.0000
@<TRIPOS>BOND
     1    1    2 1
     2    3   37 2
     3    4   11 2
     4    5   11 2
     5    6    7 1
     6    8   88 2
     7    9   12 2
     8   10   12 2
     9   11   19 1
    10   12   70 1
    11   13    1 1
    12   14   13 1
    13   15   14 1
    14   16   14 1
    15   17   16 1
    16   18   16 1
    17   19   16 1
    18   20   19 1
    19   21   20 1
    20   22   20 1
    21   23   13 1
    22   24   23 1
    23   25   23 1
    24   26   13 1
    25   27   26 ar
    26   28   27 1
    27   29   27 ar
    28   30   29 1
    29   31   29 ar
    30   32   31 1
    31   33   31 ar
    32   34   33 1
    33   35   26 ar
    34   36   35 1
    35   37   14 1
    36   38   37 1
    37   39   38 ar
    38   40   39 1
    39   41   39 ar
    40   42   41 1
    41   43   41 ar
    42   44   43 1
    43   45   43 ar
    44   46   45 1
    45   47   38 ar
    46   48   47 1
    47   49   19 1
    48   50   49 1
    49   51   50 1
    50   52   50 1
    51   53   50 1
    52   54   53 1
    53   55   53 1
    54   56   53 1
    55   57   56 1
    56   58   56 1
    57   59   56 1
    58   60   59 1
    59   61   59 1
    60   62   49 2
    61   63   62 1
    62   64    6 1
    63   65   64 1
    64   66   65 1
    65   67   65 1
    66   68   67 1
    67   69   67 1
    68   70   67 1
    69   71   70 1
    70   72   71 1
    71   73   71 1
    72   74   64 1
    73   75   74 1
    74   76   74 1
    75   77   64 1
    76   78   77 ar
    77   79   78 1
    78   80   78 ar
    79   81   80 1
    80   82   80 ar
    81   83   82 1
    82   84   82 ar
    83   85   84 1
    84   86   77 ar
    85   87   86 1
    86   88   65 1
    87   89   88 1
    88   90   89 ar
    89   91   90 1
    90   92   90 ar
    91   93   92 1
    92   94   92 ar
    93   95   94 1
    94   96   94 ar
    95   97   96 1
    96   98   89 ar
    97   99   98 1
    98  100   70 1
    99  101  100 2
   100  102  101 1
   101  103  101 1
   102  104  103 1
   103  105  103 1
   104  106  103 1
   105  107  106 1
   106  108  106 1
   107  109  106 1
   108  110  109 1
   109  111  109 1
   110  112  100 1
   111  113  112 1
   112  114  112 1
   113   20   23 1
   114   33   35 ar
   115   45   47 ar
   116   59   62 1
   117   71   74 1
   118   84   86 ar
   119   96   98 ar
   120  109  112 1
@<TRIPOS>SUBSTRUCTURE
     1 RES1 1
     2 RES2 6
     3 SUP3 115

@<TRIPOS>CRYSIN
   9.6784   14.8547   16.1677  84.2340  75.4250  72.6650   2 1

