# MOL2 file generated by ConQuest
# Please check atom types

@<TRIPOS>MOLECULE
IGOYEK
    33    34     1
SMALL
NO_CHARGES
****
Generated from CSD

@<TRIPOS>ATOM
      1 O1        -3.2522    6.7232    9.2853 O.3       1 RES1    0.0000
      2 O2        -1.7729    8.5090    8.0492 O.2       1 RES1    0.0000
      3 O3         1.3549    7.3769    7.3547 O.3       1 RES1    0.0000
      4 O4        -0.0018   11.0263    9.1675 O.2       1 RES1    0.0000
      5 O5         0.5238   11.7540    7.1093 O.3       1 RES1    0.0000
      6 O6         3.5915   11.2358    7.2105 O.2       1 RES1    0.0000
      7 O7         3.9817    9.8514    5.4858 O.3       1 RES1    0.0000
      8 N1         2.4681    7.9934    6.7813 N.2       1 RES1    0.0000
      9 C1        -2.0752    6.2607    9.7806 C.ar      1 RES1    0.0000
     10 C2        -2.1221    5.2152   10.7074 C.ar      1 RES1    0.0000
     11 H1        -2.9395    4.8452   10.9528 H         1 RES1    0.0000
     12 C3        -0.9600    4.7355   11.2544 C.ar      1 RES1    0.0000
     13 H2        -1.0012    4.0549   11.8862 H         1 RES1    0.0000
     14 C4         0.2621    5.2386   10.8879 C.ar      1 RES1    0.0000
     15 H3         1.0382    4.8952   11.2687 H         1 RES1    0.0000
     16 C5         0.3413    6.2510    9.9578 C.ar      1 RES1    0.0000
     17 H4         1.1730    6.5821    9.7058 H         1 RES1    0.0000
     18 C6        -0.8295    6.7860    9.3866 C.ar      1 RES1    0.0000
     19 C7        -0.7838    7.8945    8.4367 C.2       1 RES1    0.0000
     20 C8         0.5322    8.3258    7.8687 C.2       1 RES1    0.0000
     21 C9         1.0668    9.5527    7.6541 C.2       1 RES1    0.0000
     22 C10        0.4692   10.8565    8.0933 C.2       1 RES1    0.0000
     23 C11       -0.0388   13.0620    7.4340 C.3       1 RES1    0.0000
     24 H5        -0.9483   12.9567    7.7223 H         1 RES1    0.0000
     25 H6        -0.0141   13.6231    6.6547 H         1 RES1    0.0000
     26 H7         0.4751   13.4672    8.1362 H         1 RES1    0.0000
     27 C12        2.2880    9.2911    6.9750 C.2       1 RES1    0.0000
     28 C13        3.3578   10.2510    6.5787 C.2       1 RES1    0.0000
     29 C14        5.1314   10.6346    5.0774 C.3       1 RES1    0.0000
     30 H8         5.1967   11.4178    5.6289 H         1 RES1    0.0000
     31 H9         5.0297   10.8975    4.1595 H         1 RES1    0.0000
     32 H10        5.9282   10.1083    5.1732 H         1 RES1    0.0000
     33 H11       -2.9975    7.5739    8.8054 H         1 RES1    0.0000
@<TRIPOS>BOND
     1    1    9 1
     2    2   19 2
     3    3    8 1
     4    4   22 2
     5    5   22 1
     6    6   28 2
     7    7   28 1
     8    8   27 2
     9    9   10 ar
    10   10   11 1
    11   12   10 ar
    12   13   12 1
    13   14   12 ar
    14   15   14 1
    15   16   14 ar
    16   17   16 1
    17   18    9 ar
    18   19   18 1
    19   20    3 1
    20   21   20 2
    21   22   21 1
    22   23    5 1
    23   24   23 1
    24   25   23 1
    25   26   23 1
    26   27   21 1
    27   28   27 1
    28   29    7 1
    29   30   29 1
    30   31   29 1
    31   32   29 1
    32   33    1 1
    33   16   18 ar
    34   19   20 1
@<TRIPOS>SUBSTRUCTURE
     1 RES1 1

@<TRIPOS>CRYSIN
   7.2000    9.0590   11.1000  97.0100  90.8300 102.9100   2 1

