# MOL2 file generated by ConQuest
# Please check atom types

@<TRIPOS>MOLECULE
IGOZOT
    84    92     2
SMALL
NO_CHARGES
****
Generated from CSD

@<TRIPOS>ATOM
      1 C1         9.3999    2.8037   12.5981 C.ar      1 RES1    0.0000
      2 H1         8.5711    3.3313   12.2752 H         1 RES1    0.0000
      3 C2        10.6558    3.0675   12.0646 C.ar      1 RES1    0.0000
      4 H2        10.7537    3.7742   11.3602 H         1 RES1    0.0000
      5 C3        11.7378    2.3463   12.4945 C.ar      1 RES1    0.0000
      6 H3        12.6181    2.5225   12.1026 H         1 RES1    0.0000
      7 C4        11.6063    1.3816   13.4769 C.ar      1 RES1    0.0000
      8 H4        12.3650    0.9147   13.7773 H         1 RES1    0.0000
      9 C5        10.3541    1.0889   14.0328 C.ar      1 RES1    0.0000
     10 C6        10.2015   -0.0058   15.0428 C.3       1 RES1    0.0000
     11 H5        10.2065   -0.8376   14.6060 H         1 RES1    0.0000
     12 H6        10.9227    0.0385   15.6591 H         1 RES1    0.0000
     13 C7         8.8884    0.1184   15.8162 C.3       1 RES1    0.0000
     14 H7         8.7400   -0.6547   16.3497 H         1 RES1    0.0000
     15 H8         8.9073    0.8858   16.3843 H         1 RES1    0.0000
     16 N1         7.8275    0.2484   14.8080 N.3       1 RES1    0.0000
     17 O1         6.5602    0.2619   15.5107 O.3       1 RES1    0.0000
     18 C8         6.2910    1.6031   15.8853 C.3       1 RES1    0.0000
     19 H9         6.5373    1.7427   16.7813 H         1 RES1    0.0000
     20 C9         4.8074    1.9092   15.7472 C.3       1 RES1    0.0000
     21 H10        4.3287    1.3961   16.4015 H         1 RES1    0.0000
     22 O2         4.4118    1.5626   14.3833 O.3       1 RES1    0.0000
     23 O3         5.1934    2.3993   13.4354 O.3       1 RES1    0.0000
     24 C10        6.0193    3.3332   14.1312 C.3       1 RES1    0.0000
     25 H11        6.4864    3.9186   13.5528 H         1 RES1    0.0000
     26 C11        7.0662    2.4985   14.9357 C.3       1 RES1    0.0000
     27 C12        7.8227    1.4837   14.0690 C.3       1 RES1    0.0000
     28 H12        7.2291    1.4153   13.2421 H         1 RES1    0.0000
     29 C13        9.2428    1.8207   13.5649 C.ar      1 RES1    0.0000
     30 C14        5.1586    4.1853   15.0186 C.3       1 RES1    0.0000
     31 H13        4.5164    4.6503   14.4851 H         1 RES1    0.0000
     32 H14        5.7090    4.8333   15.4692 H         1 RES1    0.0000
     33 C15        4.4541    3.2822   16.0718 C.3       1 RES1    0.0000
     34 H15        4.7485    3.5142   16.9713 H         1 RES1    0.0000
     35 H16        3.4836    3.4083   16.0217 H         1 RES1    0.0000
     36 C16        7.9935    3.5450   15.6574 C.2       1 RES1    0.0000
     37 O4         8.4380    3.3178   16.7537 O.2       1 RES1    0.0000
     38 O5         8.2269    4.5569   14.9513 O.3       1 RES1    0.0000
     39 C17        9.1068    5.5852   15.5072 C.3       1 RES1    0.0000
     40 H17        9.2044    6.2871   14.8822 H         1 RES1    0.0000
     41 H18        8.7386    5.9212   16.3152 H         1 RES1    0.0000
     42 H19        9.9659    5.2087   15.6937 H         1 RES1    0.0000
     43 C18       -2.7041    1.2979   14.7406 C.ar      2 RES2    0.0000
     44 H20       -2.7955    0.7991   13.9154 H         2 RES2    0.0000
     45 C19       -3.5368    0.9667   15.8145 C.ar      2 RES2    0.0000
     46 H21       -4.2123    0.2696   15.7455 H         2 RES2    0.0000
     47 C20       -3.4123    1.7224   16.9954 C.ar      2 RES2    0.0000
     48 H22       -3.9918    1.5309   17.7309 H         2 RES2    0.0000
     49 C21       -2.4374    2.6852   17.1301 C.ar      2 RES2    0.0000
     50 H23       -2.3417    3.1869   17.9726 H         2 RES2    0.0000
     51 C22       -1.5866    2.9962   16.0493 C.ar      2 RES2    0.0000
     52 C23       -0.6260    4.1035   16.1943 C.3       2 RES2    0.0000
     53 H24       -1.0851    4.9199   16.0562 H         2 RES2    0.0000
     54 H25       -0.2781    4.0823   17.0748 H         2 RES2    0.0000
     55 C24        0.5232    4.0158   15.1774 C.3       2 RES2    0.0000
     56 H26        1.0168    4.8044   15.1930 H         2 RES2    0.0000
     57 H27        1.0707    3.2831   15.3829 H         2 RES2    0.0000
     58 N2        -0.1131    3.8339   13.8532 N.3       2 RES2    0.0000
     59 O6         0.9627    3.7386   12.8657 O.3       2 RES2    0.0000
     60 C25        1.4075    2.4109   12.8605 C.3       2 RES2    0.0000
     61 H28        2.1600    2.3492   13.4320 H         2 RES2    0.0000
     62 C26        1.8329    1.9477   11.4534 C.3       2 RES2    0.0000
     63 H29        2.6581    2.4166   11.2221 H         2 RES2    0.0000
     64 O7         0.7635    2.2867   10.5263 O.3       2 RES2    0.0000
     65 O8        -0.4810    1.6291   11.0028 O.3       2 RES2    0.0000
     66 C27       -0.1816    0.6846   12.0456 C.3       2 RES2    0.0000
     67 H30       -0.9377    0.1252   12.2752 H         2 RES2    0.0000
     68 C28        0.2279    1.5270   13.2990 C.3       2 RES2    0.0000
     69 C29       -0.8226    2.6073   13.6737 C.3       2 RES2    0.0000
     70 H31       -1.4620    2.6573   12.9658 H         2 RES2    0.0000
     71 C30       -1.7387    2.2934   14.8684 C.ar      2 RES2    0.0000
     72 C31        0.8997   -0.2667   11.5898 C.3       2 RES2    0.0000
     73 H32        0.6309   -0.6643   10.7732 H         2 RES2    0.0000
     74 H33        1.0326   -0.9339   12.2407 H         2 RES2    0.0000
     75 C32        2.1792    0.5276   11.3827 C.3       2 RES2    0.0000
     76 H34        2.7946    0.2888   12.0681 H         2 RES2    0.0000
     77 H35        2.5558    0.3081   10.5315 H         2 RES2    0.0000
     78 C33        0.5402    0.5623   14.4765 C.2       2 RES2    0.0000
     79 O9         1.3683    0.8261   15.3138 O.2       2 RES2    0.0000
     80 O10       -0.2425   -0.4621   14.5093 O.3       2 RES2    0.0000
     81 C34       -0.2104   -1.1996   15.7282 C.3       2 RES2    0.0000
     82 H36       -1.3588   -1.9160   15.6764 H         2 RES2    0.0000
     83 H37        0.6684   -1.4923   15.9008 H         2 RES2    0.0000
     84 H38       -0.4796   -0.6066   16.4360 H         2 RES2    0.0000
@<TRIPOS>BOND
     1    1    2 1
     2    3    1 ar
     3    4    3 1
     4    5    3 ar
     5    6    5 1
     6    7    5 ar
     7    8    7 1
     8    9    7 ar
     9   10    9 1
    10   11   10 1
    11   12   10 1
    12   13   10 1
    13   14   13 1
    14   15   13 1
    15   16   13 1
    16   17   16 1
    17   18   17 1
    18   19   18 1
    19   20   18 1
    20   21   20 1
    21   22   20 1
    22   23   22 1
    23   24   23 1
    24   25   24 1
    25   26   18 1
    26   27   16 1
    27   28   27 1
    28   29    1 ar
    29   30   24 1
    30   31   30 1
    31   32   30 1
    32   33   20 1
    33   34   33 1
    34   35   33 1
    35   36   26 1
    36   37   36 2
    37   38   36 1
    38   39   38 1
    39   40   39 1
    40   41   39 1
    41   42   39 1
    42   43   44 1
    43   45   43 ar
    44   46   45 1
    45   47   45 ar
    46   48   47 1
    47   49   47 ar
    48   50   49 1
    49   51   49 ar
    50   52   51 1
    51   53   52 1
    52   54   52 1
    53   55   52 1
    54   56   55 1
    55   57   55 1
    56   58   55 1
    57   59   58 1
    58   60   59 1
    59   61   60 1
    60   62   60 1
    61   63   62 1
    62   64   62 1
    63   65   64 1
    64   66   65 1
    65   67   66 1
    66   68   60 1
    67   69   58 1
    68   70   69 1
    69   71   43 ar
    70   72   66 1
    71   73   72 1
    72   74   72 1
    73   75   62 1
    74   76   75 1
    75   77   75 1
    76   78   68 1
    77   79   78 2
    78   80   78 1
    79   81   80 1
    80   82   81 1
    81   83   81 1
    82   84   81 1
    83    9   29 ar
    84   24   26 1
    85   26   27 1
    86   27   29 1
    87   30   33 1
    88   51   71 ar
    89   66   68 1
    90   68   69 1
    91   69   71 1
    92   72   75 1
@<TRIPOS>SUBSTRUCTURE
     1 RES1 1
     2 RES2 43

@<TRIPOS>CRYSIN
  18.4280    9.6280   19.2430  90.0000 116.2080  90.0000 231 1

