# MOL2 file generated by ConQuest
# Please check atom types

@<TRIPOS>MOLECULE
IHANEK
    72    74     2
SMALL
NO_CHARGES
****
Generated from CSD

@<TRIPOS>ATOM
      1 O1         1.4669   11.3220   12.6329 O.2       1 RES1    0.0000
      2 O2        -2.7980   15.7860   12.6369 O.3       1 RES1    0.0000
      3 C1        -3.8896   16.0574   13.5238 C.3       1 RES1    0.0000
      4 H1        -4.5821   15.3747   13.4067 H         1 RES1    0.0000
      5 H2        -4.2632   16.9396   13.3204 H         1 RES1    0.0000
      6 H3        -3.5692   16.0439   14.4497 H         1 RES1    0.0000
      7 O3        -5.7346    2.9474   12.3872 O.2       2 RES2    0.0000
      8 N1        -4.6656    2.9269   12.9898 N.2       2 RES2    0.0000
      9 C2        -2.2105    2.9489   14.3283 C.ar      2 RES2    0.0000
     10 O4        -1.7354    7.6225   12.8441 O.3       2 RES2    0.0000
     11 C3        -1.4867    1.9535   13.6788 C.ar      2 RES2    0.0000
     12 C4        -1.0487    0.8500   14.3868 C.ar      2 RES2    0.0000
     13 H4        -0.5364    0.1876   13.9407 H         2 RES2    0.0000
     14 C5        -1.3435    0.6844   15.7516 C.ar      2 RES2    0.0000
     15 C6        -2.0623    1.6916   16.3660 C.ar      2 RES2    0.0000
     16 H5        -2.2683    1.6003   17.2891 H         2 RES2    0.0000
     17 C7        -2.4941    2.8238   15.7063 C.ar      2 RES2    0.0000
     18 C8        -1.2477    2.0245   12.1780 C.3       2 RES2    0.0000
     19 H6        -2.0961    1.8910   11.7055 H         2 RES2    0.0000
     20 H7        -0.6147    1.3232   11.9161 H         2 RES2    0.0000
     21 H8        -0.8786    2.9016   11.9468 H         2 RES2    0.0000
     22 C9        -0.9261   -0.5543   16.4816 C.3       2 RES2    0.0000
     23 H9        -0.3694   -0.3093   17.2496 H         2 RES2    0.0000
     24 H10       -0.4135   -1.1322   15.8774 H         2 RES2    0.0000
     25 H11       -1.7223   -1.0325   16.7946 H         2 RES2    0.0000
     26 C10       -3.2640    3.8986   16.4450 C.3       2 RES2    0.0000
     27 H12       -3.6040    3.5353   17.2905 H         2 RES2    0.0000
     28 H13       -4.0165    4.1994   15.8935 H         2 RES2    0.0000
     29 H14       -2.6719    4.6574   16.6308 H         2 RES2    0.0000
     30 C11       -2.7047    4.1572   13.6028 C.ar      2 RES2    0.0000
     31 C12       -3.9646    4.1690   12.9811 C.ar      2 RES2    0.0000
     32 C13       -4.4623    5.3367   12.4164 C.ar      2 RES2    0.0000
     33 H15       -5.3339    5.3485   12.0405 H         2 RES2    0.0000
     34 C14       -3.7018    6.4639   12.4018 C.ar      2 RES2    0.0000
     35 H16       -4.0435    7.2581   12.0083 H         2 RES2    0.0000
     36 C15       -2.4245    6.4639   12.9577 C.ar      2 RES2    0.0000
     37 C16       -1.9455    5.3130   13.5720 C.ar      2 RES2    0.0000
     38 H17       -1.0849    5.3198   13.9743 H         2 RES2    0.0000
     39 C17       -0.4632    7.7313   13.4857 C.3       2 RES2    0.0000
     40 H18       -0.5603    7.5302   14.4410 H         2 RES2    0.0000
     41 H19       -0.1194    8.6421   13.3775 H         2 RES2    0.0000
     42 H20        0.1629    7.0942   13.0805 H         2 RES2    0.0000
     43 N2         0.4756   11.3832   13.3541 N.2       1 RES1    0.0000
     44 C18       -1.8731   11.4660   14.8652 C.ar      1 RES1    0.0000
     45 C19       -1.3384   11.4305   16.1744 C.ar      1 RES1    0.0000
     46 C20       -1.6059   10.3151   16.9585 C.ar      1 RES1    0.0000
     47 H21       -1.2365   10.2729   17.8332 H         1 RES1    0.0000
     48 C21       -2.3903    9.2607   16.5167 C.ar      1 RES1    0.0000
     49 C22       -2.9479    9.3587   15.2499 C.ar      1 RES1    0.0000
     50 H22       -3.5144    8.6624   14.9398 H         1 RES1    0.0000
     51 C23       -2.7002   10.4487   14.4219 C.ar      1 RES1    0.0000
     52 C24       -0.4923   12.5391   16.7142 C.3       1 RES1    0.0000
     53 H23       -0.0002   12.2214   17.4997 H         1 RES1    0.0000
     54 H24       -1.0647   13.2911   16.9702 H         1 RES1    0.0000
     55 H25        0.1421   12.8297   16.0267 H         1 RES1    0.0000
     56 C25       -2.5960    8.0321   17.3651 C.3       1 RES1    0.0000
     57 H26       -3.4689    7.6367   17.1603 H         1 RES1    0.0000
     58 H27       -2.5632    8.2788   18.3130 H         1 RES1    0.0000
     59 H28       -1.8888    7.3798   17.1735 H         1 RES1    0.0000
     60 C26       -3.2856   10.4689   13.0249 C.3       1 RES1    0.0000
     61 H29       -2.5835   10.2611   12.3740 H         1 RES1    0.0000
     62 H30       -3.6512   11.3595   12.8377 H         1 RES1    0.0000
     63 H31       -4.0011    9.8031   12.9606 H         1 RES1    0.0000
     64 C27       -1.5155   12.5965   13.9363 C.ar      1 RES1    0.0000
     65 C28       -0.3410   12.5205   13.1668 C.ar      1 RES1    0.0000
     66 C29       -0.0365   13.5462   12.2511 C.ar      1 RES1    0.0000
     67 H32        0.7565   13.4939   11.7304 H         1 RES1    0.0000
     68 C30       -0.8666   14.6041   12.1078 C.ar      1 RES1    0.0000
     69 H33       -0.6505   15.2919   11.4890 H         1 RES1    0.0000
     70 C31       -2.0471   14.6937   12.8684 C.ar      1 RES1    0.0000
     71 C32       -2.3468   13.6865   13.7900 C.ar      1 RES1    0.0000
     72 H34       -3.1310   13.7541   14.3210 H         1 RES1    0.0000
@<TRIPOS>BOND
     1    1   43 2
     2    2    3 1
     3    3    4 1
     4    5    3 1
     5    6    3 1
     6    7    8 2
     7    8   31 1
     8    9   11 ar
     9   10   36 1
    10   11   12 ar
    11   12   13 1
    12   14   12 ar
    13   15   14 ar
    14   16   15 1
    15   17    9 ar
    16   18   11 1
    17   19   18 1
    18   20   18 1
    19   21   18 1
    20   22   14 1
    21   23   22 1
    22   24   22 1
    23   25   22 1
    24   26   17 1
    25   27   26 1
    26   28   26 1
    27   29   26 1
    28   30    9 1
    29   31   30 ar
    30   32   31 ar
    31   33   32 1
    32   34   32 ar
    33   35   34 1
    34   36   34 ar
    35   37   30 ar
    36   38   37 1
    37   39   10 1
    38   40   39 1
    39   41   39 1
    40   42   39 1
    41   43   65 1
    42   44   45 ar
    43   45   46 ar
    44   46   47 1
    45   48   46 ar
    46   49   48 ar
    47   50   49 1
    48   51   44 ar
    49   52   45 1
    50   53   52 1
    51   54   52 1
    52   55   52 1
    53   56   48 1
    54   57   56 1
    55   58   56 1
    56   59   56 1
    57   60   51 1
    58   61   60 1
    59   62   60 1
    60   63   60 1
    61   64   44 1
    62   65   64 ar
    63   66   65 ar
    64   67   66 1
    65   68   66 ar
    66   69   68 1
    67   70    2 1
    68   71   64 ar
    69   72   71 1
    70   15   17 ar
    71   36   37 ar
    72   49   51 ar
    73   68   70 ar
    74   70   71 ar
@<TRIPOS>SUBSTRUCTURE
     1 RES1 1
     2 RES2 7

@<TRIPOS>CRYSIN
  11.0800   16.8990   15.4100  90.0000 108.3290  90.0000 231 1

