# MOL2 file generated by ConQuest
# Please check atom types

@<TRIPOS>MOLECULE
IHANUB
    23    19     2
SMALL
NO_CHARGES
****
Generated from CSD

@<TRIPOS>ATOM
      1 O1         1.6829   -1.6140    6.5409 O.3       1 RES1    0.0000
      2 O2         0.7346   -0.7156    4.4039 O.3       1 RES1    0.0000
      3 O3        -0.0661    1.1816    5.3216 O.2       1 RES1    0.0000
      4 O4         1.5378   -0.4853    8.7663 O.3       1 RES1    0.0000
      5 O5         0.2840    1.2508    8.0389 O.2       1 RES1    0.0000
      6 N1         0.9668   -0.4182    6.6105 N.am      1 RES1    0.0000
      7 C1         0.8018   -2.7295    6.8140 C.3       1 RES1    0.0000
      8 H1         0.3969   -2.6164    7.6995 H         1 RES1    0.0000
      9 H2         1.3151   -3.5640    6.7936 H         1 RES1    0.0000
     10 H3         0.0968   -2.7628    6.1336 H         1 RES1    0.0000
     11 C2         0.4847    0.1228    5.4165 C.2       1 RES1    0.0000
     12 C3         0.3090   -0.2261    3.1074 C.3       1 RES1    0.0000
     13 H4        -0.6548   -0.0506    3.1249 H         1 RES1    0.0000
     14 H5         0.5065   -0.8990    2.4226 H         1 RES1    0.0000
     15 H6         0.7878    0.6028    2.8981 H         1 RES1    0.0000
     16 C4         0.8783    0.2261    7.8452 C.2       1 RES1    0.0000
     17 C5         1.5200    0.0763   10.1022 C.3       1 RES1    0.0000
     18 H7         2.0647   -0.4800   10.6973 H         1 RES1    0.0000
     19 H8         0.5981    0.1034   10.4335 H         1 RES1    0.0000
     20 H9         1.8858    0.9850   10.0797 H         1 RES1    0.0000
     21 H10        0.9682    0.8858   10.1097 Du        2 SUP2    0.0000
     22 H11        2.4348    0.3024   10.3734 Du        2 SUP2    0.0000
     23 H12        1.1463   -0.5792   10.7273 Du        2 SUP2    0.0000
@<TRIPOS>BOND
     1    1    6 1
     2    2   11 1
     3    3   11 2
     4    4   16 1
     5    5   16 2
     6    6   11 1
     7    7    1 1
     8    8    7 1
     9    9    7 1
    10   10    7 1
    11   12    2 1
    12   13   12 1
    13   14   12 1
    14   15   12 1
    15   16    6 1
    16   17    4 1
    17   18   17 1
    18   19   17 1
    19   20   17 1
@<TRIPOS>SUBSTRUCTURE
     1 RES1 1
     2 SUP2 21

@<TRIPOS>CRYSIN
   7.5027    6.9365   13.8194  90.0000  98.6110  90.0000 231 1

