# MOL2 file generated by ConQuest
# Please check atom types

@<TRIPOS>MOLECULE
IHEGIL
    32    33     1
SMALL
NO_CHARGES
****
Generated from CSD

@<TRIPOS>ATOM
      1 C1        -3.0598    6.3809    0.1062 C.2       1 RES1    0.0000
      2 C2        -1.9659    6.6734    1.0306 C.3       1 RES1    0.0000
      3 C3        -2.1065    8.0388    1.7109 C.3       1 RES1    0.0000
      4 C4        -2.5384    9.1394    0.7157 C.3       1 RES1    0.0000
      5 C5        -3.8762    8.7162    0.1193 C.3       1 RES1    0.0000
      6 C6        -3.9360    7.2777   -0.2460 C.2       1 RES1    0.0000
      7 C7        -3.1154    4.9424   -0.3727 C.3       1 RES1    0.0000
      8 C8        -2.6199   10.5570    1.3065 C.3       1 RES1    0.0000
      9 C9        -3.1658   11.6001    0.3429 C.3       1 RES1    0.0000
     10 C10       -3.4226   10.6179    2.6073 C.3       1 RES1    0.0000
     11 C11        2.5709    9.5051    6.1334 C.2       1 RES1    0.0000
     12 C12        2.3719    8.0579    5.8744 C.3       1 RES1    0.0000
     13 C13        1.0262    7.6556    5.2780 C.3       1 RES1    0.0000
     14 C14        0.6534    8.7145    4.2231 C.3       1 RES1    0.0000
     15 C15        0.5337   10.1094    4.8400 C.3       1 RES1    0.0000
     16 C16        1.7315   10.4055    5.6619 C.2       1 RES1    0.0000
     17 C17        3.7759    9.8482    6.9441 C.3       1 RES1    0.0000
     18 C18        1.0666    6.2119    4.7580 C.3       1 RES1    0.0000
     19 C19        1.5555    5.2332    5.8315 C.3       1 RES1    0.0000
     20 C20        1.8757    6.0360    3.4888 C.3       1 RES1    0.0000
     21 N1        -0.8062    8.3575    2.3203 N.pl3     1 RES1    0.0000
     22 N2        -0.6865    8.4080    3.6249 N.pl3     1 RES1    0.0000
     23 N3        -0.2596   11.2153    0.9058 N.pl3     1 RES1    0.0000
     24 N4        -1.3298    5.5728    5.1345 N.pl3     1 RES1    0.0000
     25 O1         0.2250    8.4933    1.5692 O.2       1 RES1    0.0000
     26 O2        -1.6998    8.2791    4.3648 O.2       1 RES1    0.0000
     27 O3        -1.2851   10.9854    1.8339 O.3       1 RES1    0.0000
     28 O4        -0.3995   11.0028   -0.2367 O.2       1 RES1    0.0000
     29 O5         0.7233   11.6454    1.4928 O.2       1 RES1    0.0000
     30 O6        -0.2704    5.7644    4.2362 O.3       1 RES1    0.0000
     31 O7        -2.2990    5.1252    4.5474 O.2       1 RES1    0.0000
     32 O8        -1.2014    5.9037    6.2807 O.2       1 RES1    0.0000
@<TRIPOS>BOND
     1    1    2 1
     2    2    3 1
     3    3    4 1
     4    4    5 1
     5    5    6 1
     6    6    1 2
     7    7    1 1
     8    8    4 1
     9    9    8 1
    10   10    8 1
    11   11   12 1
    12   12   13 1
    13   13   14 1
    14   14   15 1
    15   15   16 1
    16   16   11 2
    17   17   11 1
    18   18   13 1
    19   19   18 1
    20   20   18 1
    21   21    3 1
    22   22   14 1
    23   23   27 1
    24   24   30 1
    25   25   21 1
    26   26   22 1
    27   27    8 1
    28   28   23 2
    29   29   23 2
    30   30   18 1
    31   31   24 2
    32   32   24 2
    33   21   22 2
@<TRIPOS>SUBSTRUCTURE
     1 RES1 1

@<TRIPOS>CRYSIN
   7.2115   17.4150   18.6370  90.0000  90.0000  90.0000  19 1

