# MOL2 file generated by ConQuest
# Please check atom types

@<TRIPOS>MOLECULE
IHETEU
    45    47     1
SMALL
NO_CHARGES
****
Generated from CSD

@<TRIPOS>ATOM
      1 C1         0.6493    8.1553    4.1411 C.ar      1 RES1    0.0000
      2 C2         0.3029    6.8264    4.0334 C.ar      1 RES1    0.0000
      3 C3         0.7564    5.8650    4.9891 C.ar      1 RES1    0.0000
      4 C4         1.5127    6.3271    6.0706 C.ar      1 RES1    0.0000
      5 C5         1.8589    7.6708    6.2037 C.ar      1 RES1    0.0000
      6 C6         1.4140    8.6026    5.2649 C.ar      1 RES1    0.0000
      7 C7         0.1696    9.2447    3.2107 C.2       1 RES1    0.0000
      8 N1         1.9943    5.3805    7.1159 N.pl3     1 RES1    0.0000
      9 O1         1.7302    4.2577    6.9030 O.2       1 RES1    0.0000
     10 O2         2.5276    5.8872    8.0740 O.2       1 RES1    0.0000
     11 N2        -0.4893    6.3160    2.8720 N.pl3     1 RES1    0.0000
     12 O3        -0.7052    5.1485    2.8466 O.2       1 RES1    0.0000
     13 O4        -0.7249    7.1697    2.0276 O.2       1 RES1    0.0000
     14 N3         1.7413    9.9871    5.3617 N.2       1 RES1    0.0000
     15 N4         2.4584   10.2637    6.3320 N.2       1 RES1    0.0000
     16 C8         2.8282   11.5963    6.5606 C.ar      1 RES1    0.0000
     17 C9         3.7149   11.9062    7.6167 C.ar      1 RES1    0.0000
     18 C10        4.0865   13.2203    7.8345 C.ar      1 RES1    0.0000
     19 C11        3.5888   14.2374    6.9985 C.ar      1 RES1    0.0000
     20 C12        2.7369   13.9293    5.9436 C.ar      1 RES1    0.0000
     21 C13        2.3575   12.6338    5.7210 C.ar      1 RES1    0.0000
     22 N5         1.0283    9.8646    2.3203 N.am      1 RES1    0.0000
     23 O5        -1.0107    9.6215    3.3862 O.2       1 RES1    0.0000
     24 C14        2.3474    9.4860    2.1377 C.ar      1 RES1    0.0000
     25 C15        3.3929   10.3528    2.5296 C.ar      1 RES1    0.0000
     26 C16        4.7174    9.9686    2.3179 C.ar      1 RES1    0.0000
     27 C17        4.9997    8.7362    1.7384 C.ar      1 RES1    0.0000
     28 C18        3.9819    7.8639    1.3622 C.ar      1 RES1    0.0000
     29 C19        2.6471    8.2295    1.5546 C.ar      1 RES1    0.0000
     30 C20        0.5973   11.0116    1.5098 C.3       1 RES1    0.0000
     31 H1         2.3755    7.9492    6.9344 H         1 RES1    0.0000
     32 H2         0.5298    4.9759    4.8923 H         1 RES1    0.0000
     33 H3         4.0479   11.2288    8.1611 H         1 RES1    0.0000
     34 H4         4.6640   13.4337    8.5301 H         1 RES1    0.0000
     35 H5         3.8299   15.1227    7.1522 H         1 RES1    0.0000
     36 H6         2.4169   14.6067    5.3968 H         1 RES1    0.0000
     37 H7         1.7904   12.4278    5.0133 H         1 RES1    0.0000
     38 H8         3.1971   11.1935    2.8829 H         1 RES1    0.0000
     39 H9         5.4089   10.5328    2.5720 H         1 RES1    0.0000
     40 H10        5.8873    8.4856    1.6042 H         1 RES1    0.0000
     41 H11        4.1849    7.0417    0.9751 H         1 RES1    0.0000
     42 H12        1.9591    7.6616    1.2945 H         1 RES1    0.0000
     43 H13       -0.3236   11.1991    1.6997 H         1 RES1    0.0000
     44 H14        0.7344   10.8335    0.5940 H         1 RES1    0.0000
     45 H15        1.1351   11.7782    1.7832 H         1 RES1    0.0000
@<TRIPOS>BOND
     1    1    2 ar
     2    2    3 ar
     3    3    4 ar
     4    4    5 ar
     5    5    6 ar
     6    6    1 ar
     7    7    1 1
     8    8    4 1
     9    9    8 2
    10   10    8 2
    11   11    2 1
    12   12   11 2
    13   13   11 2
    14   14    6 1
    15   15   14 2
    16   16   15 1
    17   17   16 ar
    18   18   17 ar
    19   19   18 ar
    20   20   19 ar
    21   21   16 ar
    22   22    7 1
    23   23    7 2
    24   24   22 1
    25   25   24 ar
    26   26   25 ar
    27   27   26 ar
    28   28   27 ar
    29   29   24 ar
    30   30   22 1
    31   31    5 1
    32   32    3 1
    33   33   17 1
    34   34   18 1
    35   35   19 1
    36   36   20 1
    37   37   21 1
    38   38   25 1
    39   39   26 1
    40   40   27 1
    41   41   28 1
    42   42   29 1
    43   43   30 1
    44   44   30 1
    45   45   30 1
    46   20   21 ar
    47   28   29 ar
@<TRIPOS>SUBSTRUCTURE
     1 RES1 1

@<TRIPOS>CRYSIN
   8.6760   18.5600   12.0980  90.0000  90.3800  90.0000  14 1

