# MOL2 file generated by ConQuest
# Please check atom types

@<TRIPOS>MOLECULE
IHIKIV01
    28    24     4
SMALL
NO_CHARGES
****
Generated from CSD

@<TRIPOS>ATOM
      1 C1         1.3606    0.4080    6.9750 C.3       1 RES1    0.0000
      2 C2         1.2524   -0.5456    5.7189 C.3       1 RES1    0.0000
      3 C3         0.3253   -1.7621    5.9901 C.3       1 RES1    0.0000
      4 N1         2.6670   -1.0673    5.3959 N.pl3     1 RES1    0.0000
      5 O1         3.3975   -1.6279    6.2872 O.2       1 RES1    0.0000
      6 O2         3.1137   -0.9170    4.2415 O.2       1 RES1    0.0000
      7 H1         0.8436    0.0143    4.8631 H         1 RES1    0.0000
      8 C4         1.1798   -0.4900   -1.1302 C.3       2 RES2    0.0000
      9 C5         1.1923    0.5181   -2.4106 C.3       2 RES2    0.0000
     10 C6         0.2101    1.7921   -2.2443 C.3       2 RES2    0.0000
     11 N2         2.6355    1.0763   -2.4848 N.pl3     2 RES2    0.0000
     12 O3         3.2886    0.9090   -3.5198 O.2       2 RES2    0.0000
     13 O4         3.1679    1.6724   -1.5000 O.2       2 RES2    0.0000
     14 H2         0.9267   -0.0242   -3.3260 H         2 RES2    0.0000
     15 C7         6.2274   -3.3677   -1.1302 C.3       3 RES3    0.0000
     16 C8         6.1363   -2.3072   -2.2669 C.3       3 RES3    0.0000
     17 C9         5.2360   -1.1398   -1.8406 C.3       3 RES3    0.0000
     18 N3         7.5285   -1.7779   -2.5220 N.pl3     3 RES3    0.0000
     19 O5         8.3461   -2.4926   -3.1162 O.2       3 RES3    0.0000
     20 O6         7.8555   -0.6397   -2.1248 O.2       3 RES3    0.0000
     21 H3         5.7179   -2.7644   -3.1775 H         3 RES3    0.0000
     22 C10        5.8336    1.4627   -9.9781 C.3       4 RES4    0.0000
     23 C11        6.8548    2.4452  -10.5642 C.3       4 RES4    0.0000
     24 C12        7.1799    3.5697   -9.5261 C.3       4 RES4    0.0000
     25 N4         8.1357    1.7061  -10.8758 N.pl3     4 RES4    0.0000
     26 O7         8.5064    0.7291  -10.1767 O.2       4 RES4    0.0000
     27 O8         8.8288    2.0965  -11.8188 O.2       4 RES4    0.0000
     28 H4         6.4298    2.8890  -11.4813 H         4 RES4    0.0000
@<TRIPOS>BOND
     1    1    2 1
     2    2    3 1
     3    4    2 1
     4    5    4 2
     5    6    4 2
     6    7    2 1
     7    8    9 1
     8    9   10 1
     9   11    9 1
    10   12   11 2
    11   13   11 2
    12   14    9 1
    13   15   16 1
    14   16   17 1
    15   18   16 1
    16   19   18 2
    17   20   18 2
    18   21   16 1
    19   22   23 1
    20   23   24 1
    21   25   23 1
    22   26   25 2
    23   27   25 2
    24   28   23 1
@<TRIPOS>SUBSTRUCTURE
     1 RES1 1
     2 RES2 8
     3 RES3 15
     4 RES4 22

@<TRIPOS>CRYSIN
  10.3130    5.8730   16.1460  90.1700  90.1700  90.0900   2 1

