# MOL2 file generated by ConQuest
# Please check atom types

@<TRIPOS>MOLECULE
IHIKIV
     7     6     1
SMALL
NO_CHARGES
****
Generated from CSD

@<TRIPOS>ATOM
      1 C1         0.7707   -0.7729    1.3310 C.3       1 RES1    0.0000
      2 C2         1.0141    0.0474    2.6122 C.3       1 RES1    0.0000
      3 C3         2.2107    0.8900    2.1463 C.3       1 RES1    0.0000
      4 N1        -0.3144    0.7729    2.6538 N.pl3     1 RES1    0.0000
      5 O1        -1.0242    1.4755    1.8967 O.2       1 RES1    0.0000
      6 O2        -0.4766    0.3864    3.8267 O.2       1 RES1    0.0000
      7 H1         1.2098   -0.5609    3.4923 H         1 RES1    0.0000
@<TRIPOS>BOND
     1    1    2 1
     2    2    3 1
     3    4    2 1
     4    5    4 2
     5    6    4 2
     6    7    2 1
@<TRIPOS>SUBSTRUCTURE
     1 RES1 1

@<TRIPOS>CRYSIN
  10.1410    5.8550    8.3190  90.0000  90.0000  90.0000  33 3

