# MOL2 file generated by ConQuest
# Please check atom types

@<TRIPOS>MOLECULE
IHOGIV
    68    71     1
SMALL
NO_CHARGES
****
Generated from CSD

@<TRIPOS>ATOM
      1 O1         4.0833    3.2400    5.1714 O.3       1 RES1    0.0000
      2 O2         3.7188    1.0407    5.0673 O.2       1 RES1    0.0000
      3 O3        10.1003    2.5355    8.1886 O.2       1 RES1    0.0000
      4 O4         9.9529    0.3417    8.0324 O.2       1 RES1    0.0000
      5 O5         3.3931    7.1380    2.0421 O.3       1 RES1    0.0000
      6 O6         3.6250    8.0464    4.0723 O.2       1 RES1    0.0000
      7 O7        -1.1016   11.9423    0.2763 O.2       1 RES1    0.0000
      8 O8        -0.8523   12.8518    2.1703 O.2       1 RES1    0.0000
      9 N1         0.6486    5.9882    3.4796 N.1       1 RES1    0.0000
     10 N2         9.5589    1.5103    7.8482 N.pl3     1 RES1    0.0000
     11 N3        -0.6513   11.9754    1.3754 N.pl3     1 RES1    0.0000
     12 C1         2.7767    3.5211    4.6369 C.3       1 RES1    0.0000
     13 C2         2.9683    4.8991    3.9582 C.3       1 RES1    0.0000
     14 C3         3.8648    4.8010    2.7008 C.3       1 RES1    0.0000
     15 C4         4.4518    6.1646    2.2924 C.3       1 RES1    0.0000
     16 C5         5.2760    6.0941    1.0231 C.3       1 RES1    0.0000
     17 C6         1.6765    5.4933    3.6618 C.1       1 RES1    0.0000
     18 C7         1.7475    3.5145    5.7320 C.ar      1 RES1    0.0000
     19 C8         2.0624    3.7934    7.0374 C.ar      1 RES1    0.0000
     20 C9         1.0908    3.7923    7.9984 C.ar      1 RES1    0.0000
     21 C10       -0.2050    3.5431    7.6961 C.ar      1 RES1    0.0000
     22 C11       -0.5669    3.2852    6.3907 C.ar      1 RES1    0.0000
     23 C12        0.3926    3.2400    5.4177 C.ar      1 RES1    0.0000
     24 C13        3.2712    3.9753    1.5937 C.ar      1 RES1    0.0000
     25 C14        2.3050    4.4537    0.7448 C.ar      1 RES1    0.0000
     26 C15        1.7783    3.6511   -0.2603 C.ar      1 RES1    0.0000
     27 C16        2.2071    2.3481   -0.4024 C.ar      1 RES1    0.0000
     28 C17        3.1492    1.8564    0.4305 C.ar      1 RES1    0.0000
     29 C18        3.6920    2.6535    1.4175 C.ar      1 RES1    0.0000
     30 C19        4.4183    1.9446    5.3576 C.2       1 RES1    0.0000
     31 C20        5.7785    1.8620    5.9883 C.ar      1 RES1    0.0000
     32 C21        6.2328    0.5964    6.3587 C.ar      1 RES1    0.0000
     33 C22        7.4871    0.4630    6.9633 C.ar      1 RES1    0.0000
     34 C23        8.2068    1.6095    7.1775 C.ar      1 RES1    0.0000
     35 C24        7.7940    2.8442    6.8352 C.ar      1 RES1    0.0000
     36 C25        6.5598    2.9941    6.2305 C.ar      1 RES1    0.0000
     37 C26        3.1452    8.0619    2.9691 C.2       1 RES1    0.0000
     38 C27        2.1656    9.0617    2.5046 C.ar      1 RES1    0.0000
     39 C28        1.6443    9.0430    1.2553 C.ar      1 RES1    0.0000
     40 C29        0.7277   10.0131    0.8629 C.ar      1 RES1    0.0000
     41 C30        0.3283   10.9435    1.7759 C.ar      1 RES1    0.0000
     42 C31        0.8550   11.0042    3.0052 C.ar      1 RES1    0.0000
     43 C32        1.7797   10.0583    3.3775 C.ar      1 RES1    0.0000
     44 H1         2.5502    2.8729    3.9622 H         1 RES1    0.0000
     45 H2         3.4159    5.4646    4.5748 H         1 RES1    0.0000
     46 H3         4.6207    4.2916    2.9771 H         1 RES1    0.0000
     47 H4         5.0160    6.4788    2.9871 H         1 RES1    0.0000
     48 H5         5.9969    5.4712    1.1232 H         1 RES1    0.0000
     49 H6         4.7306    5.7997    0.2903 H         1 RES1    0.0000
     50 H7         5.6365    6.9473    0.8088 H         1 RES1    0.0000
     51 H8         2.9603    4.0083    7.2676 H         1 RES1    0.0000
     52 H9         1.3334    3.9719    8.9174 H         1 RES1    0.0000
     53 H10       -0.8630    3.5387    8.3768 H         1 RES1    0.0000
     54 H11       -1.4768    3.1440    6.1585 H         1 RES1    0.0000
     55 H12        0.1541    3.0316    4.5187 H         1 RES1    0.0000
     56 H13        1.9900    5.3510    0.8409 H         1 RES1    0.0000
     57 H14        1.1136    4.0039   -0.8749 H         1 RES1    0.0000
     58 H15        1.8520    1.7925   -1.0811 H         1 RES1    0.0000
     59 H16        3.4642    0.9547    0.3344 H         1 RES1    0.0000
     60 H17        4.3620    2.3095    1.9921 H         1 RES1    0.0000
     61 H18        5.6753   -0.1565    6.1885 H         1 RES1    0.0000
     62 H19        7.7806   -0.4200    7.1775 H         1 RES1    0.0000
     63 H20        8.3475    3.6048    7.0114 H         1 RES1    0.0000
     64 H21        6.2408    3.8529    5.9582 H         1 RES1    0.0000
     65 H22        1.8922    8.3573    0.6387 H         1 RES1    0.0000
     66 H23        0.3967   10.0451   -0.0420 H         1 RES1    0.0000
     67 H24        0.5990   11.6943    3.5998 H         1 RES1    0.0000
     68 H25        2.1535   10.0870    4.2424 H         1 RES1    0.0000
@<TRIPOS>BOND
     1    1   12 1
     2    2   30 2
     3    3   10 2
     4    4   10 2
     5    5   15 1
     6    6   37 2
     7    7   11 2
     8    8   11 2
     9    9   17 3
    10   10   34 1
    11   11   41 1
    12   12   13 1
    13   13   14 1
    14   14   15 1
    15   15   16 1
    16   16   48 1
    17   17   13 1
    18   18   12 1
    19   19   18 ar
    20   20   19 ar
    21   21   20 ar
    22   22   21 ar
    23   23   18 ar
    24   24   14 1
    25   25   24 ar
    26   26   25 ar
    27   27   26 ar
    28   28   27 ar
    29   29   24 ar
    30   30    1 1
    31   31   30 1
    32   32   31 ar
    33   33   32 ar
    34   34   33 ar
    35   35   34 ar
    36   36   31 ar
    37   37    5 1
    38   38   37 1
    39   39   38 ar
    40   40   39 ar
    41   41   40 ar
    42   42   41 ar
    43   43   38 ar
    44   44   12 1
    45   45   13 1
    46   46   14 1
    47   47   15 1
    48   49   16 1
    49   50   16 1
    50   51   19 1
    51   52   20 1
    52   53   21 1
    53   54   22 1
    54   55   23 1
    55   56   25 1
    56   57   26 1
    57   58   27 1
    58   59   28 1
    59   60   29 1
    60   61   32 1
    61   62   33 1
    62   63   35 1
    63   64   36 1
    64   65   39 1
    65   66   40 1
    66   67   42 1
    67   68   43 1
    68   22   23 ar
    69   28   29 ar
    70   35   36 ar
    71   42   43 ar
@<TRIPOS>SUBSTRUCTURE
     1 RES1 1

@<TRIPOS>CRYSIN
  13.4010   11.0240   20.0210  90.0000  90.0000  90.0000  29 1

