# MOL2 file generated by ConQuest
# Please check atom types

@<TRIPOS>MOLECULE
IHOVOS
    41    42     1
SMALL
NO_CHARGES
****
Generated from CSD

@<TRIPOS>ATOM
      1 O1        18.4730    4.5214    5.2458 O.2       1 RES1    0.0000
      2 O2        17.6165    3.0719    3.8763 O.2       1 RES1    0.0000
      3 O3        10.3958    4.9885    2.1930 O.2       1 RES1    0.0000
      4 O4         9.1927    3.1980    1.5728 O.3       1 RES1    0.0000
      5 N1        11.5551    8.7882    4.5314 N.pl3     1 RES1    0.0000
      6 N2        12.5972    6.7346    4.6182 N.2       1 RES1    0.0000
      7 N3        17.5218    4.0530    4.6249 N.pl3     1 RES1    0.0000
      8 N4        12.7538    4.3016    3.5091 N.pl3     1 RES1    0.0000
      9 H1        12.0939    4.9117    3.2123 H         1 RES1    0.0000
     10 C1        11.6539   10.2449    4.5247 C.3       1 RES1    0.0000
     11 H2        11.0914   10.6136    5.2377 H         1 RES1    0.0000
     12 H3        11.3504   10.5895    3.6589 H         1 RES1    0.0000
     13 H4        12.5841   10.5103    4.6738 H         1 RES1    0.0000
     14 C2        10.2372    8.1937    4.4001 C.3       1 RES1    0.0000
     15 H5        10.3115    7.3375    3.9297 H         1 RES1    0.0000
     16 H6         9.6558    8.7966    3.8919 H         1 RES1    0.0000
     17 H7         9.8562    8.0448    5.2903 H         1 RES1    0.0000
     18 C3        12.6447    8.0328    4.6204 C.2       1 RES1    0.0000
     19 H8        13.4903    8.4591    4.6879 H         1 RES1    0.0000
     20 C4        13.8154    6.0705    4.7591 C.ar      1 RES1    0.0000
     21 C5        14.9071    6.5269    5.4973 C.ar      1 RES1    0.0000
     22 H9        14.8146    7.3219    6.0107 H         1 RES1    0.0000
     23 C6        16.1118    5.8628    5.5062 C.ar      1 RES1    0.0000
     24 H10       16.8488    6.1894    6.0092 H         1 RES1    0.0000
     25 C7        16.2166    4.6979    4.7554 C.ar      1 RES1    0.0000
     26 C8        15.1430    4.1551    4.0759 C.ar      1 RES1    0.0000
     27 H11       15.2493    3.3529    3.5788 H         1 RES1    0.0000
     28 C9        13.9086    4.7856    4.1219 C.ar      1 RES1    0.0000
     29 C10       13.1380    1.8758    3.9112 C.3       1 RES1    0.0000
     30 H12       12.5464    1.1276    4.1367 H         1 RES1    0.0000
     31 H13       13.6060    2.1772    4.7183 H         1 RES1    0.0000
     32 H14       13.7940    1.5840    3.2435 H         1 RES1    0.0000
     33 C11       12.3273    3.0035    3.3540 C.2       1 RES1    0.0000
     34 C12       11.1514    2.7501    2.7145 C.2       1 RES1    0.0000
     35 C13       10.2780    3.7648    2.1648 C.2       1 RES1    0.0000
     36 C14        9.2556    1.7365    1.6900 C.3       1 RES1    0.0000
     37 H15        9.2809    1.3210    0.7916 H         1 RES1    0.0000
     38 H16        8.4586    1.3954    2.1707 H         1 RES1    0.0000
     39 C15       10.5244    1.3990    2.4645 C.3       1 RES1    0.0000
     40 H17       10.3109    0.9427    3.3169 H         1 RES1    0.0000
     41 H18       11.1236    0.8214    1.9304 H         1 RES1    0.0000
@<TRIPOS>BOND
     1    1    7 2
     2    2    7 2
     3    3   35 2
     4    4   35 1
     5    5   10 1
     6    6   18 2
     7    7   25 1
     8    8    9 1
     9   10   11 1
    10   12   10 1
    11   13   10 1
    12   14    5 1
    13   15   14 1
    14   16   14 1
    15   17   14 1
    16   18    5 1
    17   19   18 1
    18   20    6 1
    19   21   20 ar
    20   22   21 1
    21   23   21 ar
    22   24   23 1
    23   25   23 ar
    24   26   25 ar
    25   27   26 1
    26   28    8 1
    27   29   30 1
    28   31   29 1
    29   32   29 1
    30   33    8 1
    31   34   33 2
    32   35   34 1
    33   36    4 1
    34   37   36 1
    35   38   36 1
    36   39   34 1
    37   40   39 1
    38   41   39 1
    39   20   28 ar
    40   26   28 ar
    41   29   33 1
    42   36   39 1
@<TRIPOS>SUBSTRUCTURE
     1 RES1 1

@<TRIPOS>CRYSIN
  17.2230   12.0090    7.4580  90.0000  95.8790  90.0000  14 1

