# MOL2 file generated by ConQuest
# Please check atom types

@<TRIPOS>MOLECULE
IJEPOE
    43    47     1
SMALL
NO_CHARGES
****
Generated from CSD

@<TRIPOS>ATOM
      1 C1        -3.7913    8.0564    5.8740 C.3       1 RES1    0.0000
      2 C2        -3.9344    9.3182    6.7254 C.3       1 RES1    0.0000
      3 H1        -3.5920   10.2050    6.4873 H         1 RES1    0.0000
      4 C3        -5.4216    8.9731    6.9860 C.3       1 RES1    0.0000
      5 H2        -6.1695    9.6049    6.9356 H         1 RES1    0.0000
      6 C4        -5.2622    7.6955    6.1190 C.3       1 RES1    0.0000
      7 H3        -5.8927    7.3993    5.4293 H         1 RES1    0.0000
      8 C5        -5.0179    8.1714    8.2264 C.3       1 RES1    0.0000
      9 H4        -5.4687    8.2126    9.0951 H         1 RES1    0.0000
     10 C6        -4.8824    6.9026    7.3525 C.3       1 RES1    0.0000
     11 H5        -5.2379    6.0197    7.5853 H         1 RES1    0.0000
     12 C7        -3.3959    7.2212    7.1145 C.3       1 RES1    0.0000
     13 H6        -2.6567    6.5798    7.1632 H         1 RES1    0.0000
     14 C8        -3.5402    8.5222    7.9780 C.3       1 RES1    0.0000
     15 H7        -2.9059    8.8208    8.6625 H         1 RES1    0.0000
     16 C9        -2.9284    6.9165    3.9178 C.2       1 RES1    0.0000
     17 C10       -2.0353    7.0441    2.7294 C.3       1 RES1    0.0000
     18 H8        -1.1147    6.9683    3.0248 H         1 RES1    0.0000
     19 H9        -2.1494    7.9300    2.3507 H         1 RES1    0.0000
     20 C11       -2.2753    6.0345    1.6557 C.3       1 RES1    0.0000
     21 H10       -3.1805    6.1332    1.3221 H         1 RES1    0.0000
     22 H11       -2.1919    5.1446    2.0310 H         1 RES1    0.0000
     23 C12       -1.3056    6.1838    0.5125 C.3       1 RES1    0.0000
     24 H12       -1.4077    7.0734    0.1390 H         1 RES1    0.0000
     25 H13       -0.4047    6.1190    0.8669 H         1 RES1    0.0000
     26 C13       -1.4482    5.1896   -0.5959 C.3       1 RES1    0.0000
     27 H14       -1.3916    4.2962   -0.2224 H         1 RES1    0.0000
     28 H15       -2.3286    5.2878   -0.9920 H         1 RES1    0.0000
     29 C14       -0.4266    5.3247   -1.6696 C.3       1 RES1    0.0000
     30 H16        0.4545    5.2891   -1.2648 H         1 RES1    0.0000
     31 H17       -0.5240    6.1964   -2.0831 H         1 RES1    0.0000
     32 C15       -0.5071    4.2808   -2.7294 C.3       1 RES1    0.0000
     33 H18       -0.5375    3.4102   -2.3038 H         1 RES1    0.0000
     34 H19       -1.3392    4.3978   -3.2141 H         1 RES1    0.0000
     35 C16        0.6035    4.2866   -3.7006 C.2       1 RES1    0.0000
     36 N1        -3.1357    8.0305    4.6179 N.am      1 RES1    0.0000
     37 H20       -2.8557    8.7750    4.2896 H         1 RES1    0.0000
     38 N2         0.5239    3.3625   -4.6388 N.am      1 RES1    0.0000
     39 H21       -0.1380    2.8130   -4.6318 H         1 RES1    0.0000
     40 O1        -3.4245    5.8607    4.2965 O.2       1 RES1    0.0000
     41 O2         1.4665    3.2588   -5.6204 O.3       1 RES1    0.0000
     42 H22        2.1980    3.1075   -5.2816 H         1 RES1    0.0000
     43 O3         1.5635    5.0358   -3.6189 O.2       1 RES1    0.0000
@<TRIPOS>BOND
     1    1    2 1
     2    2    3 1
     3    4    2 1
     4    5    4 1
     5    6    1 1
     6    7    6 1
     7    8    4 1
     8    9    8 1
     9   10    6 1
    10   11   10 1
    11   12    1 1
    12   13   12 1
    13   14    2 1
    14   15   14 1
    15   16   17 1
    16   17   18 1
    17   19   17 1
    18   20   17 1
    19   21   20 1
    20   22   20 1
    21   23   20 1
    22   24   23 1
    23   25   23 1
    24   26   23 1
    25   27   26 1
    26   28   26 1
    27   29   26 1
    28   30   29 1
    29   31   29 1
    30   32   29 1
    31   33   32 1
    32   34   32 1
    33   35   32 1
    34   36    1 1
    35   37   36 1
    36   38   35 1
    37   39   38 1
    38   40   16 2
    39   41   38 1
    40   42   41 1
    41   43   35 2
    42    4    6 1
    43    8   10 1
    44    8   14 1
    45   10   12 1
    46   12   14 1
    47   16   36 1
@<TRIPOS>SUBSTRUCTURE
     1 RES1 1

@<TRIPOS>CRYSIN
   5.2841    7.6160   17.7360  99.0600  97.1500  90.2200   2 1

