# MOL2 file generated by ConQuest
# Please check atom types

@<TRIPOS>MOLECULE
IJERAS
    44    45     1
SMALL
NO_CHARGES
****
Generated from CSD

@<TRIPOS>ATOM
      1 N1         3.1793    3.2026    4.8819 N.am      1 RES1    0.0000
      2 N2        -0.1099    2.8464    5.5441 N.am      1 RES1    0.0000
      3 O1         2.3725    3.0303    6.9561 O.2       1 RES1    0.0000
      4 O2         4.3755    3.7654    5.3091 O.3       1 RES1    0.0000
      5 O3        -0.7008    3.4160    3.4783 O.2       1 RES1    0.0000
      6 O4         0.7708   -0.3125    3.1222 O.3       1 RES1    0.0000
      7 H1         0.6519   -0.8049    2.4776 H         1 RES1    0.0000
      8 C1         2.2776    2.8119    5.7626 C.2       1 RES1    0.0000
      9 C2         1.0789    2.1032    5.1770 C.3       1 RES1    0.0000
     10 H2         1.1592    2.0920    4.2005 H         1 RES1    0.0000
     11 C3         1.0015    0.6669    5.6874 C.3       1 RES1    0.0000
     12 H3         1.1071    0.6669    6.6518 H         1 RES1    0.0000
     13 H4         0.1244    0.3052    5.4863 H         1 RES1    0.0000
     14 C4         2.0490   -0.2227    5.0793 C.ar      1 RES1    0.0000
     15 C5         3.1760   -0.5996    5.7523 C.ar      1 RES1    0.0000
     16 H5         3.3100   -0.2878    6.6179 H         1 RES1    0.0000
     17 C6         4.1271   -1.4327    5.1827 C.ar      1 RES1    0.0000
     18 H6         4.8838   -1.6814    5.6630 H         1 RES1    0.0000
     19 C7         3.9398   -1.8813    3.9157 C.ar      1 RES1    0.0000
     20 H7         4.5775   -2.4331    3.5237 H         1 RES1    0.0000
     21 C8         2.8331   -1.5315    3.2136 C.ar      1 RES1    0.0000
     22 H8         2.7108   -1.8487    2.3479 H         1 RES1    0.0000
     23 C9         1.8886   -0.7028    3.7879 C.ar      1 RES1    0.0000
     24 C10       -0.9245    3.4278    4.6883 C.2       1 RES1    0.0000
     25 C11       -2.1308    4.0949    5.2607 C.3       1 RES1    0.0000
     26 H9        -2.2043    4.9834    4.9054 H         1 RES1    0.0000
     27 H10       -2.0498    4.1373    6.2166 H         1 RES1    0.0000
     28 H11       -2.9143    3.5920    5.0285 H         1 RES1    0.0000
     29 C12        4.2273    5.1800    5.4167 C.3       1 RES1    0.0000
     30 H12        3.5071    5.3886    6.0324 H         1 RES1    0.0000
     31 H13        4.0030    5.5526    4.5501 H         1 RES1    0.0000
     32 C13        5.4903    5.7731    5.9045 C.ar      1 RES1    0.0000
     33 C14        6.2703    6.5573    5.0934 C.ar      1 RES1    0.0000
     34 H14        6.0245    6.6833    4.2052 H         1 RES1    0.0000
     35 C15        7.4035    7.1580    5.5690 C.ar      1 RES1    0.0000
     36 H15        7.9197    7.6978    5.0144 H         1 RES1    0.0000
     37 C16        7.7620    6.9560    6.8492 C.ar      1 RES1    0.0000
     38 H16        8.5167    7.3817    7.1866 H         1 RES1    0.0000
     39 C17        7.0491    6.1544    7.6415 C.ar      1 RES1    0.0000
     40 H17        7.3363    5.9871    8.5100 H         1 RES1    0.0000
     41 C18        5.8966    5.5754    7.1819 C.ar      1 RES1    0.0000
     42 H18        5.3895    5.0421    7.7505 H         1 RES1    0.0000
     43 H19        3.1586    3.0087    4.0510 H         1 RES1    0.0000
     44 H20       -0.3239    2.8567    6.3378 H         1 RES1    0.0000
@<TRIPOS>BOND
     1    1    4 1
     2    2    9 1
     3    3    8 2
     4    4   29 1
     5    5   24 2
     6    6    7 1
     7    8    1 1
     8    9    8 1
     9   10    9 1
    10   11    9 1
    11   12   11 1
    12   13   11 1
    13   14   11 1
    14   15   14 ar
    15   16   15 1
    16   17   15 ar
    17   18   17 1
    18   19   17 ar
    19   20   19 1
    20   21   19 ar
    21   22   21 1
    22   23    6 1
    23   24    2 1
    24   25   24 1
    25   26   25 1
    26   27   25 1
    27   28   25 1
    28   29   30 1
    29   31   29 1
    30   32   29 1
    31   33   32 ar
    32   34   33 1
    33   35   33 ar
    34   36   35 1
    35   37   35 ar
    36   38   37 1
    37   39   37 ar
    38   40   39 1
    39   41   32 ar
    40   42   41 1
    41   43    1 1
    42   44    2 1
    43   14   23 ar
    44   21   23 ar
    45   39   41 ar
@<TRIPOS>SUBSTRUCTURE
     1 RES1 1

@<TRIPOS>CRYSIN
  16.5570   10.8619    9.5381  90.0000  99.7920  90.0000  14 1

