# MOL2 file generated by ConQuest
# Please check atom types

@<TRIPOS>MOLECULE
IJESUL01
    31    30     1
SMALL
NO_CHARGES
****
Generated from CSD

@<TRIPOS>ATOM
      1 O1        -3.4714    2.6868    4.0811 O.2       1 RES1    0.0000
      2 O2        -1.6765    1.9533    3.0966 O.2       1 RES1    0.0000
      3 N1        -1.9206    2.1181    7.7092 N.2       1 RES1    0.0000
      4 N2        -2.3570    2.1222    4.1248 N.pl3     1 RES1    0.0000
      5 N3        -3.8575    1.4515    6.6802 N.3       1 RES1    0.0000
      6 N4        -0.0193    2.9100    8.6393 N.3       1 RES1    0.0000
      7 N5         0.6491    1.2179    5.4276 N.1       1 RES1    0.0000
      8 C1        -2.5743    1.8068    6.5790 C.2       1 RES1    0.0000
      9 C2        -1.8511    1.7107    5.3377 C.2       1 RES1    0.0000
     10 C3        -0.9726    3.0416    7.7400 C.2       1 RES1    0.0000
     11 C4        -0.9857    4.2684    6.8844 C.3       1 RES1    0.0000
     12 C5        -0.4773    1.4161    5.3620 C.1       1 RES1    0.0000
     13 C6         0.1141    1.6732    9.3993 C.3       1 RES1    0.0000
     14 C7         0.9910    3.9414    8.8913 C.3       1 RES1    0.0000
     15 C8        -4.6208    1.7866    7.8818 C.3       1 RES1    0.0000
     16 C9        -4.5360    0.6196    5.6934 C.3       1 RES1    0.0000
     17 H1        -1.0515    5.0623    7.4783 H         1 RES1    0.0000
     18 H2        -1.7262    4.2734    6.3359 H         1 RES1    0.0000
     19 H3        -0.1924    4.2405    6.3278 H         1 RES1    0.0000
     20 H4        -0.5452    1.6600   10.1520 H         1 RES1    0.0000
     21 H5         0.9047    1.5943    9.8279 H         1 RES1    0.0000
     22 H6        -0.2348    0.9697    8.9448 H         1 RES1    0.0000
     23 H7         1.5508    4.1090    8.0860 H         1 RES1    0.0000
     24 H8         1.4960    3.7145    9.6011 H         1 RES1    0.0000
     25 H9         0.5557    4.8486    9.0906 H         1 RES1    0.0000
     26 H10       -4.2405    2.5147    8.3695 H         1 RES1    0.0000
     27 H11       -4.6191    1.1505    8.4425 H         1 RES1    0.0000
     28 H12       -5.4739    1.8901    7.6322 H         1 RES1    0.0000
     29 H13       -3.8859    0.1644    5.0963 H         1 RES1    0.0000
     30 H14       -4.9902   -0.0822    6.2225 H         1 RES1    0.0000
     31 H15       -5.0948    1.1176    5.1287 H         1 RES1    0.0000
@<TRIPOS>BOND
     1    1    4 2
     2    2    4 2
     3    3    8 1
     4    4    9 1
     5    5    8 1
     6    6   10 1
     7    7   12 3
     8    8    9 2
     9    9   12 1
    10   10    3 2
    11   11   10 1
    12   13    6 1
    13   14    6 1
    14   15    5 1
    15   16    5 1
    16   17   11 1
    17   18   11 1
    18   19   11 1
    19   20   13 1
    20   21   13 1
    21   22   13 1
    22   23   14 1
    23   24   14 1
    24   25   14 1
    25   26   15 1
    26   27   15 1
    27   28   15 1
    28   29   16 1
    29   30   16 1
    30   31   16 1
@<TRIPOS>SUBSTRUCTURE
     1 RES1 1

@<TRIPOS>CRYSIN
   8.8440   16.4360    8.9260  90.0000 114.8100  90.0000  14 1

