# MOL2 file generated by ConQuest
# Please check atom types

@<TRIPOS>MOLECULE
IJICUZ
    37    42     1
SMALL
NO_CHARGES
****
Generated from CSD

@<TRIPOS>ATOM
      1 C1        -1.3685   -0.6572    3.8861 C.2       1 RES1    0.0000
      2 C2        -0.7888   -1.9380    4.3794 C.ar      1 RES1    0.0000
      3 C3         0.5287   -2.2566    4.6367 C.ar      1 RES1    0.0000
      4 C4         0.8264   -3.5323    5.0745 C.ar      1 RES1    0.0000
      5 C5        -0.1633   -4.4613    5.2350 C.ar      1 RES1    0.0000
      6 C6        -1.4880   -4.1667    4.9671 C.ar      1 RES1    0.0000
      7 C7        -1.8018   -2.8773    4.5364 C.ar      1 RES1    0.0000
      8 C8        -3.0856   -2.2489    4.1941 C.ar      1 RES1    0.0000
      9 C9        -4.3530   -2.7809    4.2047 C.ar      1 RES1    0.0000
     10 C10       -5.4232   -1.9619    3.8637 C.ar      1 RES1    0.0000
     11 C11       -5.2126   -0.6377    3.5604 C.ar      1 RES1    0.0000
     12 C12       -2.8517   -0.9044    3.8330 C.ar      1 RES1    0.0000
     13 C13       -3.9474   -0.1009    3.5403 C.ar      1 RES1    0.0000
     14 C14       -0.6104    0.3091    3.5852 C.2       1 RES1    0.0000
     15 C15       -1.0821    1.5376    2.9668 C.3       1 RES1    0.0000
     16 C16       -0.8461    1.3655    1.4374 C.3       1 RES1    0.0000
     17 C17       -1.5600    2.3647    0.5405 C.ar      1 RES1    0.0000
     18 C18       -2.8957    2.7013    0.5051 C.ar      1 RES1    0.0000
     19 C19       -3.3224    3.6384   -0.4319 C.ar      1 RES1    0.0000
     20 C20       -2.4239    4.2148   -1.3064 C.ar      1 RES1    0.0000
     21 C21       -1.0925    3.8720   -1.2851 C.ar      1 RES1    0.0000
     22 C22       -0.6482    2.9403   -0.3517 C.ar      1 RES1    0.0000
     23 C23        0.6705    2.3723   -0.1192 C.ar      1 RES1    0.0000
     24 C24        1.8753    2.5816   -0.7647 C.ar      1 RES1    0.0000
     25 C25        2.9824    1.8575   -0.3765 C.ar      1 RES1    0.0000
     26 C26        2.8865    0.9289    0.6278 C.ar      1 RES1    0.0000
     27 C27        1.6886    0.6971    1.2816 C.ar      1 RES1    0.0000
     28 C28        0.5776    1.4335    0.9264 C.ar      1 RES1    0.0000
     29 C29       -0.4023    2.7340    3.6760 C.3       1 RES1    0.0000
     30 C30       -0.8935    2.7309    5.1358 C.3       1 RES1    0.0000
     31 C31       -0.7943    4.0693    3.0329 C.3       1 RES1    0.0000
     32 C32        1.0801    2.5609    3.7421 C.2       1 RES1    0.0000
     33 N1         1.8810    3.4851    3.4270 N.2       1 RES1    0.0000
     34 O1         3.2301    3.0352    3.7044 O.3       1 RES1    0.0000
     35 C33        4.2120    3.8255    3.2052 C.2       1 RES1    0.0000
     36 O2         5.3282    3.5209    3.5097 O.2       1 RES1    0.0000
     37 C34        3.8217    4.9348    2.3083 C.3       1 RES1    0.0000
@<TRIPOS>BOND
     1    1    2 1
     2    2    3 ar
     3    3    4 ar
     4    4    5 ar
     5    5    6 ar
     6    6    7 ar
     7    7    2 ar
     8    8    7 1
     9    9    8 ar
    10   10    9 ar
    11   11   10 ar
    12   12    1 1
    13   13   11 ar
    14   14    1 2
    15   15   14 1
    16   16   15 1
    17   17   16 1
    18   18   17 ar
    19   19   18 ar
    20   20   19 ar
    21   21   20 ar
    22   22   17 ar
    23   23   22 1
    24   24   23 ar
    25   25   24 ar
    26   26   25 ar
    27   27   26 ar
    28   28   16 1
    29   29   15 1
    30   30   29 1
    31   31   29 1
    32   32   29 1
    33   33   32 2
    34   34   33 1
    35   35   34 1
    36   36   35 2
    37   37   35 1
    38    8   12 ar
    39   12   13 ar
    40   21   22 ar
    41   23   28 ar
    42   27   28 ar
@<TRIPOS>SUBSTRUCTURE
     1 RES1 1

@<TRIPOS>CRYSIN
   9.7370   11.4000   13.7640  98.8000 117.2600  99.8400   2 1

