# MOL2 file generated by ConQuest
# Please check atom types

@<TRIPOS>MOLECULE
IJIQEX
    15    15     1
SMALL
NO_CHARGES
****
Generated from CSD

@<TRIPOS>ATOM
      1 O1        -3.9578    3.5723    7.5567 O.2       1 RES1    0.0000
      2 O2        -3.0756    7.0567   12.6234 O.2       1 RES1    0.0000
      3 O3        -1.3579    5.7699   12.7455 O.2       1 RES1    0.0000
      4 O4        -6.3579    7.4888    6.0735 O.3       1 RES1    0.0000
      5 N1        -6.1840    5.0670    7.6224 N.3       1 RES1    0.0000
      6 N2        -2.3759    6.1595   12.1729 N.pl3     1 RES1    0.0000
      7 C1        -4.3755    5.2178    9.1971 C.2       1 RES1    0.0000
      8 C2        -3.5729    4.1824    8.6034 C.2       1 RES1    0.0000
      9 C3        -2.3257    3.9068    9.2347 C.2       1 RES1    0.0000
     10 C4        -1.9365    4.5411   10.3729 C.2       1 RES1    0.0000
     11 C5        -2.7608    5.5243   10.9337 C.2       1 RES1    0.0000
     12 C6        -3.9422    5.8656   10.3611 C.2       1 RES1    0.0000
     13 C7        -5.6184    5.6219    8.6386 C.2       1 RES1    0.0000
     14 C8        -7.4070    5.5678    7.0029 C.3       1 RES1    0.0000
     15 C9        -7.0965    6.3306    5.7403 C.3       1 RES1    0.0000
@<TRIPOS>BOND
     1    1    8 2
     2    2    6 2
     3    3    6 2
     4    4   15 1
     5    5   13 1
     6    6   11 1
     7    7    8 1
     8    8    9 1
     9    9   10 2
    10   10   11 1
    11   11   12 2
    12   12    7 1
    13   13    7 2
    14   14    5 1
    15   15   14 1
@<TRIPOS>SUBSTRUCTURE
     1 RES1 1

@<TRIPOS>CRYSIN
   8.6490    9.6680   23.4680  90.0000  90.0000  90.0000  61 1

