# MOL2 file generated by ConQuest
# Please check atom types

@<TRIPOS>MOLECULE
IJIRAU
    18    19     1
SMALL
USER_CHARGES
****
Generated from CSD

@<TRIPOS>ATOM
      1 N1         7.8261    1.4363    1.3596 N.pl3     1 RES1    0.0000
      2 C1         6.5596    1.5546    0.8873 C.ar      1 RES1    0.0000
      3 N2         5.6914    1.3622    1.9097 N.pl3     1 RES1    1.0000
      4 C2         6.4510    1.0848    3.0654 C.ar      1 RES1    0.0000
      5 C3         7.8050    1.1464    2.7116 C.ar      1 RES1    0.0000
      6 C4         8.9772    0.9501    3.4660 C.2       1 RES1   -1.0000
      7 C5         9.0726    1.1837    4.8566 C.1       1 RES1    0.0000
      8 N3         9.2826    1.4028    5.9703 N.1       1 RES1    0.0000
      9 C6        10.1737    0.5005    2.8782 C.1       1 RES1    0.0000
     10 N4        11.1541    0.0895    2.4394 N.1       1 RES1    0.0000
     11 N5         5.8734    0.6002    4.2191 N.pl3     1 RES1    0.0000
     12 O1         6.6258    0.2644    5.1431 O.2       1 RES1    0.0000
     13 O2         4.6527    0.5042    4.3042 O.2       1 RES1    0.0000
     14 C7         8.9729    1.8249    0.5571 C.3       1 RES1    0.0000
     15 C8         6.1147    1.8262   -0.3975 C.2       1 RES1    0.0000
     16 C9         4.7679    1.8955   -0.5976 C.2       1 RES1    0.0000
     17 C10        3.8832    1.7164    0.4553 C.2       1 RES1    0.0000
     18 C11        4.3341    1.4537    1.7194 C.2       1 RES1    0.0000
@<TRIPOS>BOND
     1    1    2 ar
     2    2    3 ar
     3    3    4 ar
     4    4    5 ar
     5    5    1 ar
     6    6    5 1
     7    7    6 1
     8    8    7 3
     9    9    6 1
    10   10    9 3
    11   11    4 1
    12   12   11 2
    13   13   11 2
    14   14    1 1
    15   15    2 1
    16   16   15 2
    17   17   16 1
    18   18    3 1
    19   17   18 2
@<TRIPOS>SUBSTRUCTURE
     1 RES1 1

@<TRIPOS>CRYSIN
   9.6700    7.0670   16.0060  90.0000 104.2000  90.0000  14 1

