# MOL2 file generated by ConQuest
# Please check atom types

@<TRIPOS>MOLECULE
IJITOM
   168   174     5
SMALL
NO_CHARGES
****
Generated from CSD

@<TRIPOS>ATOM
      1 O1         3.4728    5.4559    6.4919 O.2       1 RES1    0.0000
      2 O2        -0.4113    4.3181    8.9098 O.3       1 RES1    0.0000
      3 O3         6.9810    6.2984   12.3012 O.2       1 RES1    0.0000
      4 O4         5.6659    7.9624   11.6283 O.2       1 RES1    0.0000
      5 N1        -1.2473    5.3897   10.6720 N.pl3     1 RES1    0.0000
      6 H1        -1.2512    5.9821   11.2956 H         1 RES1    0.0000
      7 H2        -1.8989    4.8320   10.6055 H         1 RES1    0.0000
      8 N2         1.1330    8.0857   11.4336 N.1       1 RES1    0.0000
      9 N3         6.0082    6.7665   11.7392 N.pl3     1 RES1    0.0000
     10 C1        -0.2446    5.3356    9.8242 C.2       1 RES1    0.0000
     11 C2         0.8517    6.1279    9.7872 C.2       1 RES1    0.0000
     12 C3         2.0403    5.8734    8.8802 C.3       1 RES1    0.0000
     13 H3         2.2854    6.7279    8.4686 H         1 RES1    0.0000
     14 C4         1.5896    4.9574    7.7810 C.2       1 RES1    0.0000
     15 C5        -0.0494    3.3259    6.8049 C.3       1 RES1    0.0000
     16 H4        -0.7582    3.7619    6.3071 H         1 RES1    0.0000
     17 H5        -0.4234    2.5442    7.2387 H         1 RES1    0.0000
     18 C6         1.0671    2.8880    5.8314 C.3       1 RES1    0.0000
     19 C7         1.8504    4.1038    5.4494 C.3       1 RES1    0.0000
     20 H6         2.5756    3.8308    4.8677 H         1 RES1    0.0000
     21 H7         1.2724    4.6926    4.9367 H         1 RES1    0.0000
     22 C8         2.4137    4.8669    6.5659 C.2       1 RES1    0.0000
     23 C9         0.4899    4.2753    7.8524 C.2       1 RES1    0.0000
     24 C10        1.9559    1.8699    6.4895 C.3       1 RES1    0.0000
     25 H8         2.5826    1.5295    5.8487 H         1 RES1    0.0000
     26 H9         1.4196    1.1474    6.8271 H         1 RES1    0.0000
     27 H10        2.4304    2.2815    7.2141 H         1 RES1    0.0000
     28 C11        0.3705    2.2684    4.6139 C.3       1 RES1    0.0000
     29 H11       -0.0453    2.9614    4.0963 H         1 RES1    0.0000
     30 H12       -0.2983    1.6461    4.9096 H         1 RES1    0.0000
     31 H13        1.0176    1.8090    4.0741 H         1 RES1    0.0000
     32 C12        0.9772    7.2043   10.7361 C.1       1 RES1    0.0000
     33 C13        3.2668    5.3633    9.6566 C.ar      1 RES1    0.0000
     34 C14        4.0873    6.2444   10.2284 C.ar      1 RES1    0.0000
     35 H14        3.9615    7.1567   10.0928 H         1 RES1    0.0000
     36 C15        5.1339    5.7954   11.0269 C.ar      1 RES1    0.0000
     37 C16        5.4134    4.4034   11.1551 C.ar      1 RES1    0.0000
     38 H15        6.1756    4.0982   11.5938 H         1 RES1    0.0000
     39 C17        4.5163    3.5424   10.6079 C.ar      1 RES1    0.0000
     40 H16        4.6021    2.6264   10.7460 H         1 RES1    0.0000
     41 C18        3.4662    4.0389    9.8414 C.ar      1 RES1    0.0000
     42 H17        2.8812    3.4376    9.4397 H         1 RES1    0.0000
     43 O5        -2.1868    9.8297    3.2953 O.3       2 RES2    0.0000
     44 O6        -2.1392    5.8218    5.7969 O.2       2 RES2    0.0000
     45 O7        -0.9443    1.7404    1.1830 O.2       2 RES2    0.0000
     46 O8        -2.5494    2.0115    2.5559 O.2       2 RES2    0.0000
     47 N4        -3.5731   10.3444    1.6390 N.pl3     2 RES2    0.0000
     48 H18       -4.1814   10.2100    1.0450 H         2 RES2    0.0000
     49 H19       -3.2153   11.1223    1.7203 H         2 RES2    0.0000
     50 N5        -5.5253    7.2384    1.0426 N.1       2 RES2    0.0000
     51 N6        -1.6707    2.4748    1.8534 N.pl3     2 RES2    0.0000
     52 C19       -3.1878    9.3529    2.4277 C.2       2 RES2    0.0000
     53 C20       -3.6047    8.0948    2.4721 C.2       2 RES2    0.0000
     54 C21       -2.9954    7.0158    3.3618 C.3       2 RES2    0.0000
     55 H20       -3.7123    6.4910    3.7759 H         2 RES2    0.0000
     56 C22       -1.8380    7.0135    5.6663 C.2       2 RES2    0.0000
     57 C23       -1.1690    7.7536    6.7778 C.3       2 RES2    0.0000
     58 H21       -0.6519    7.1240    7.3053 H         2 RES2    0.0000
     59 H22       -1.8507    8.1294    7.3570 H         2 RES2    0.0000
     60 C24       -0.2440    8.8809    6.3096 C.3       2 RES2    0.0000
     61 C25       -1.0237    9.7813    5.3804 C.3       2 RES2    0.0000
     62 H23       -1.6180   10.3385    5.9078 H         2 RES2    0.0000
     63 H24       -0.4058   10.3663    4.9145 H         2 RES2    0.0000
     64 C26       -2.1964    7.7672    4.4635 C.2       2 RES2    0.0000
     65 C27       -1.8241    9.0342    4.3822 C.2       2 RES2    0.0000
     66 C28        0.2457    9.6649    7.5271 C.3       2 RES2    0.0000
     67 H25        0.7250   10.4432    7.2338 H         2 RES2    0.0000
     68 H26        0.8254    9.1089    8.0521 H         2 RES2    0.0000
     69 H27       -0.5078    9.9339    8.0570 H         2 RES2    0.0000
     70 C29        0.9671    8.3359    5.6194 C.3       2 RES2    0.0000
     71 H28        0.6981    7.8436    4.8406 H         2 RES2    0.0000
     72 H29        1.4404    7.7528    6.2184 H         2 RES2    0.0000
     73 H30        1.5409    9.0603    5.3582 H         2 RES2    0.0000
     74 C30       -4.6739    7.6364    1.6489 C.1       2 RES2    0.0000
     75 C31       -2.0535    6.0760    2.5805 C.ar      2 RES2    0.0000
     76 C32       -2.2800    4.7379    2.5337 C.ar      2 RES2    0.0000
     77 H31       -3.0255    4.3770    2.9551 H         2 RES2    0.0000
     78 C33       -1.4019    3.9109    1.8559 C.ar      2 RES2    0.0000
     79 C34       -0.3193    4.3771    1.2028 C.ar      2 RES2    0.0000
     80 H32        0.2342    3.8031    0.7246 H         2 RES2    0.0000
     81 C35       -0.0588    5.7142    1.2619 C.ar      2 RES2    0.0000
     82 H33        0.6793    6.0642    0.8183 H         2 RES2    0.0000
     83 C36       -0.8944    6.5525    1.9865 C.ar      2 RES2    0.0000
     84 H34       -0.6734    7.4511    2.0753 H         2 RES2    0.0000
     85 O9         5.4685    4.2123    3.4136 O.3       3 RES3    0.0000
     86 O10        5.2872    0.1817    5.8363 O.2       3 RES3    0.0000
     87 O11        3.4336   -2.6168    0.7197 O.2       3 RES3    0.0000
     88 O12        5.2545   -3.4320   -0.0173 O.2       3 RES3    0.0000
     89 N7         4.6695   -2.5940    0.6260 N.pl3     3 RES3    0.0000
     90 N8         4.2209    4.7934    1.6291 N.pl3     3 RES3    0.0000
     91 N9         2.2310    1.8046    0.8700 N.1       3 RES3    0.0000
     92 C37        4.5665    3.8003    2.4942 C.2       3 RES3    0.0000
     93 C38        4.0756    2.5366    2.5214 C.2       3 RES3    0.0000
     94 C39        4.5697    1.4728    3.4530 C.3       3 RES3    0.0000
     95 H35        3.7889    1.0303    3.8449 H         3 RES3    0.0000
     96 C40        5.5538    1.3554    5.7969 C.2       3 RES3    0.0000
     97 C41        6.1237    2.1206    6.9725 C.3       3 RES3    0.0000
     98 H36        6.5550    1.4964    7.5764 H         3 RES3    0.0000
     99 H37        5.3982    2.5476    7.4532 H         3 RES3    0.0000
    100 C42        7.1406    3.1893    6.5511 C.3       3 RES3    0.0000
    101 C43        6.4478    4.1360    5.5258 C.3       3 RES3    0.0000
    102 H38        5.8297    4.7165    5.9965 H         3 RES3    0.0000
    103 H39        7.1201    4.6940    5.1043 H         3 RES3    0.0000
    104 C44        5.3228    2.1246    4.5473 C.2       3 RES3    0.0000
    105 C45        5.7140    3.3867    4.4832 C.2       3 RES3    0.0000
    106 C46        3.0618    2.1733    1.5922 C.1       3 RES3    0.0000
    107 C47        5.3797    0.4125    2.6914 C.ar      3 RES3    0.0000
    108 C48        4.6518   -0.6396    2.0999 C.ar      3 RES3    0.0000
    109 H40        3.7346   -0.7363    2.2133 H         3 RES3    0.0000
    110 C49        5.4144   -1.5326    1.3309 C.ar      3 RES3    0.0000
    111 C50        6.7895   -1.4654    1.1806 C.ar      3 RES3    0.0000
    112 H41        7.2492   -2.1086    0.6926 H         3 RES3    0.0000
    113 C51        7.4586   -0.4165    1.7820 C.ar      3 RES3    0.0000
    114 H42        8.3850   -0.3462    1.7351 H         3 RES3    0.0000
    115 C52        6.6902    0.5364    2.4597 C.ar      3 RES3    0.0000
    116 H43        7.1183    1.3014    2.7703 H         3 RES3    0.0000
    117 C53        7.5461    4.0478    7.7834 C.3       3 RES3    0.0000
    118 H44        6.8056    4.6023    8.0447 H         3 RES3    0.0000
    119 H45        8.2953    4.6029    7.5542 H         3 RES3    0.0000
    120 H46        7.7864    3.4706    8.5105 H         3 RES3    0.0000
    121 C54        8.3716    2.5136    5.8758 C.3       3 RES3    0.0000
    122 H47        8.8216    1.9575    6.5166 H         3 RES3    0.0000
    123 H48        8.9748    3.1900    5.5603 H         3 RES3    0.0000
    124 H49        8.0766    1.9761    5.1364 H         3 RES3    0.0000
    125 O13        3.3015   -0.8278   15.6235 O.3       4 RES4    0.0000
    126 O14       -0.5907   -1.7299   18.1104 O.2       4 RES4    0.0000
    127 O15       -4.2123   -2.9873   14.8595 O.2       4 RES4    0.0000
    128 O16       -4.8959   -1.5001   13.5557 O.2       4 RES4    0.0000
    129 N10        4.1052   -2.0825   13.9476 N.pl3     4 RES4    0.0000
    130 H50        4.1028   -2.7350   13.3881 H         4 RES4    0.0000
    131 H51        4.7874   -1.5623   14.0018 H         4 RES4    0.0000
    132 N11        1.5468   -4.6875   13.3413 N.1       4 RES4    0.0000
    133 N12       -3.9905   -2.0387   14.1669 N.pl3     4 RES4    0.0000
    134 C55        3.0477   -1.8767   14.7363 C.2       4 RES4    0.0000
    135 C56        1.9032   -2.5806   14.7905 C.2       4 RES4    0.0000
    136 C57        0.7523   -2.2263   15.6876 C.3       4 RES4    0.0000
    137 H52        0.4041   -3.0485   16.0894 H         4 RES4    0.0000
    138 C58        0.5150   -1.1900   18.0093 C.2       4 RES4    0.0000
    139 C59        1.1137   -0.4003   19.1702 C.3       4 RES4    0.0000
    140 H53        1.6434   -0.9969   19.7223 H         4 RES4    0.0000
    141 H54        0.3968   -0.0464   19.7173 H         4 RES4    0.0000
    142 C60        2.0194    0.7850   18.6773 C.3       4 RES4    0.0000
    143 C61        3.0233    0.2573   17.7185 C.3       4 RES4    0.0000
    144 H55        3.4377    1.0049   17.2601 H         4 RES4    0.0000
    145 H56        3.7174   -0.2020   18.2164 H         4 RES4    0.0000
    146 C62        1.2797   -1.3393   16.7869 C.2       4 RES4    0.0000
    147 C63        2.4740   -0.6697   16.7105 C.2       4 RES4    0.0000
    148 C64        1.1288    1.8299   17.9625 C.3       4 RES4    0.0000
    149 H57        1.6742    2.5548   17.6520 H         4 RES4    0.0000
    150 H58        0.4721    2.1641   18.5787 H         4 RES4    0.0000
    151 H59        0.6878    1.4166   17.2157 H         4 RES4    0.0000
    152 C65        2.6724    1.4300   19.8973 C.3       4 RES4    0.0000
    153 H60        3.3782    0.8649   20.2201 H         4 RES4    0.0000
    154 H61        2.0156    1.5472   20.5874 H         4 RES4    0.0000
    155 H62        3.0341    2.2847   19.6533 H         4 RES4    0.0000
    156 C66        1.7224   -3.7076   13.9747 C.1       4 RES4    0.0000
    157 C67       -0.3757   -1.5402   14.9408 C.ar      4 RES4    0.0000
    158 C68       -1.6523   -2.1113   14.8398 C.ar      4 RES4    0.0000
    159 H63       -1.8135   -2.9445   15.2193 H         4 RES4    0.0000
    160 C69       -2.6440   -1.4718   14.2063 C.ar      4 RES4    0.0000
    161 C70       -2.4476   -0.2882   13.5483 C.ar      4 RES4    0.0000
    162 H64       -3.1353    0.1105   13.0652 H         4 RES4    0.0000
    163 C71       -1.2202    0.2891   13.6173 C.ar      4 RES4    0.0000
    164 H65       -1.0735    1.1038   13.1934 H         4 RES4    0.0000
    165 C72       -0.2005   -0.3088   14.2975 C.ar      4 RES4    0.0000
    166 H66        0.6288    0.1100   14.3370 H         4 RES4    0.0000
    167 H67        7.5868    6.8604   12.7275 Du        5 SUP5    0.0000
    168 H68        7.1174    5.3782   12.3061 Du        5 SUP5    0.0000
@<TRIPOS>BOND
     1    1   22 2
     2    2   10 1
     3    3    9 2
     4    4    9 2
     5    5    6 1
     6    7    5 1
     7    8   32 3
     8    9   36 1
     9   10    5 1
    10   11   10 2
    11   12   11 1
    12   13   12 1
    13   14   12 1
    14   15   16 1
    15   17   15 1
    16   18   15 1
    17   19   18 1
    18   20   19 1
    19   21   19 1
    20   22   14 1
    21   23    2 1
    22   24   18 1
    23   25   24 1
    24   26   24 1
    25   27   24 1
    26   28   18 1
    27   29   28 1
    28   30   28 1
    29   31   28 1
    30   32   11 1
    31   33   12 1
    32   34   33 ar
    33   35   34 1
    34   36   34 ar
    35   37   36 ar
    36   38   37 1
    37   39   37 ar
    38   40   39 1
    39   41   33 ar
    40   42   41 1
    41   43   52 1
    42   44   56 2
    43   45   51 2
    44   46   51 2
    45   47   48 1
    46   49   47 1
    47   50   74 3
    48   51   78 1
    49   52   47 1
    50   53   52 2
    51   54   53 1
    52   55   54 1
    53   56   57 1
    54   57   58 1
    55   59   57 1
    56   60   57 1
    57   61   60 1
    58   62   61 1
    59   63   61 1
    60   64   54 1
    61   65   43 1
    62   66   60 1
    63   67   66 1
    64   68   66 1
    65   69   66 1
    66   70   60 1
    67   71   70 1
    68   72   70 1
    69   73   70 1
    70   74   53 1
    71   75   54 1
    72   76   75 ar
    73   77   76 1
    74   78   76 ar
    75   79   78 ar
    76   80   79 1
    77   81   79 ar
    78   82   81 1
    79   83   75 ar
    80   84   83 1
    81   85   92 1
    82   86   96 2
    83   87   89 2
    84   88   89 2
    85   89  110 1
    86   90   92 1
    87   91  106 3
    88   92   93 2
    89   93   94 1
    90   94   95 1
    91   96   97 1
    92   97   98 1
    93   99   97 1
    94  100   97 1
    95  101  100 1
    96  102  101 1
    97  103  101 1
    98  104   94 1
    99  105   85 1
   100  106   93 1
   101  107   94 1
   102  108  107 ar
   103  109  108 1
   104  110  108 ar
   105  111  110 ar
   106  112  111 1
   107  113  111 ar
   108  114  113 1
   109  115  107 ar
   110  116  115 1
   111  117  100 1
   112  118  117 1
   113  119  117 1
   114  120  117 1
   115  121  100 1
   116  122  121 1
   117  123  121 1
   118  124  121 1
   119  125  134 1
   120  126  138 2
   121  127  133 2
   122  128  133 2
   123  129  130 1
   124  131  129 1
   125  132  156 3
   126  133  160 1
   127  134  129 1
   128  135  134 2
   129  136  135 1
   130  137  136 1
   131  138  139 1
   132  139  140 1
   133  141  139 1
   134  142  139 1
   135  143  142 1
   136  144  143 1
   137  145  143 1
   138  146  136 1
   139  147  125 1
   140  148  142 1
   141  149  148 1
   142  150  148 1
   143  151  148 1
   144  152  142 1
   145  153  152 1
   146  154  152 1
   147  155  152 1
   148  156  135 1
   149  157  136 1
   150  158  157 ar
   151  159  158 1
   152  160  158 ar
   153  161  160 ar
   154  162  161 1
   155  163  161 ar
   156  164  163 1
   157  165  157 ar
   158  166  165 1
   159   14   23 2
   160   15   23 1
   161   19   22 1
   162   39   41 ar
   163   56   64 1
   164   61   65 1
   165   64   65 2
   166   81   83 ar
   167   96  104 1
   168  101  105 1
   169  104  105 2
   170  113  115 ar
   171  138  146 1
   172  143  147 1
   173  146  147 2
   174  163  165 ar
@<TRIPOS>SUBSTRUCTURE
     1 RES1 1
     2 RES2 43
     3 RES3 85
     4 RES4 125
     5 SUP5 167

@<TRIPOS>CRYSIN
  12.0002   12.0002   24.7801  93.6700  93.6700 103.7060   2 1

