# MOL2 file generated by ConQuest
# Please check atom types

@<TRIPOS>MOLECULE
IJIVEC
    32    32     2
SMALL
USER_CHARGES
****
Generated from CSD

@<TRIPOS>ATOM
      1 O1        -0.5494    9.4689    2.4954 O.3       1 RES1    0.0000
      2 O2        -4.9698    9.3330    3.2372 O.2       1 RES1    0.0000
      3 O3        -4.3546    9.9031    5.2230 O.2       1 RES1    0.0000
      4 O4        -2.9049    8.3286    1.2372 O.3       2 RES2    0.0000
      5 O5         1.2705    6.9778    2.2132 O.2       2 RES2    0.0000
      6 O6         0.4073    5.0722    1.6921 O.2       2 RES2    0.0000
      7 N1        -0.5726    9.4339    3.8789 N.pl3     1 RES1    0.0000
      8 N2        -2.8306    9.3242    3.6433 N.2       1 RES1   -1.0000
      9 N3        -4.0905    9.5369    4.0772 N.pl3     1 RES1    0.0000
     10 N4        -3.1146    7.0019    1.5344 N.pl3     2 RES2    0.0000
     11 N5        -0.8755    6.9296    1.9039 N.2       2 RES2   -1.0000
     12 N6         0.2992    6.2739    1.9445 N.pl3     2 RES2    0.0000
     13 C1        -1.7818    9.4339    4.5158 C.ar      1 RES1    0.0000
     14 C2        -1.7315    9.4821    5.9134 C.ar      1 RES1    0.0000
     15 C3        -0.5232    9.5369    6.5530 C.ar      1 RES1    0.0000
     16 C4         0.6708    9.5501    5.8491 C.ar      1 RES1    0.0000
     17 C5         0.6226    9.4887    4.4941 C.ar      1 RES1    0.0000
     18 C6        -2.0336    6.2169    1.7990 C.ar      2 RES2    0.0000
     19 C7        -2.3092    4.8485    1.9811 C.ar      2 RES2    0.0000
     20 C8        -3.5947    4.3858    1.8978 C.ar      2 RES2    0.0000
     21 C9        -4.6525    5.2388    1.6481 C.ar      2 RES2    0.0000
     22 C10       -4.3864    6.5612    1.4762 C.ar      2 RES2    0.0000
     23 H1        -0.7010    8.4646    2.1929 H         1 RES1    1.0000
     24 H2        -2.8280    8.8374    2.1997 H         2 RES2    1.0000
     25 H3        -2.5595    9.4733    6.3283 H         1 RES1    0.0000
     26 H4        -0.5621    9.6049    7.5195 H         1 RES1    0.0000
     27 H5         1.5759    9.6049    6.2268 H         1 RES1    0.0000
     28 H6         1.3123    9.4514    3.9865 H         1 RES1    0.0000
     29 H7        -1.5934    4.2323    2.1794 H         2 RES2    0.0000
     30 H8        -3.7674    3.4429    2.0508 H         2 RES2    0.0000
     31 H9        -5.6044    4.9998    1.5702 H         2 RES2    0.0000
     32 H10       -5.0250    7.2804    1.2792 H         2 RES2    0.0000
@<TRIPOS>BOND
     1    1    7 1
     2    2    9 2
     3    3    9 2
     4    4   10 1
     5    5   12 2
     6    6   12 2
     7    7   13 ar
     8    8    9 1
     9   10   18 ar
    10   11   12 1
    11   13    8 1
    12   14   13 ar
    13   15   14 ar
    14   16   15 ar
    15   17    7 ar
    16   18   11 1
    17   19   18 ar
    18   20   19 ar
    19   21   20 ar
    20   22   10 ar
    21   23    1 1
    22   24    4 1
    23   25   14 1
    24   26   15 1
    25   27   16 1
    26   28   17 1
    27   29   19 1
    28   30   20 1
    29   31   21 1
    30   32   22 1
    31   16   17 ar
    32   21   22 ar
@<TRIPOS>SUBSTRUCTURE
     1 RES1 1
     2 RES2 4

@<TRIPOS>CRYSIN
   8.6350   21.9290    7.3360  90.0000 112.6900  90.0000  14 1

