# MOL2 file generated by ConQuest
# Please check atom types

@<TRIPOS>MOLECULE
IJOYIP
    68    73     1
SMALL
NO_CHARGES
****
Generated from CSD

@<TRIPOS>ATOM
      1 O1         5.9923    6.2723    3.7851 O.3       1 RES1    0.0000
      2 O2         6.5774   10.2231   -1.3019 O.2       1 RES1    0.0000
      3 O3         6.6025    9.4598   -3.3142 O.2       1 RES1    0.0000
      4 O4         2.2154    7.1666    2.8559 O.2       1 RES1    0.0000
      5 O5         2.8648    9.1476    2.4670 O.2       1 RES1    0.0000
      6 O6         6.9130    6.3467    1.7201 O.3       1 RES1    0.0000
      7 O7         7.0080    4.3753    0.4319 O.3       1 RES1    0.0000
      8 N1         6.6741    9.3209   -2.1132 N.pl3     1 RES1    0.0000
      9 N2         3.0582    7.9552    2.5860 N.pl3     1 RES1    0.0000
     10 N3         5.8938    5.6347    2.5329 N.3       1 RES1    0.0000
     11 C1         5.1700    7.5019    3.8271 C.3       1 RES1    0.0000
     12 H1         4.4791    7.3885    4.5277 H         1 RES1    0.0000
     13 C2         4.4739    7.5099    2.4660 C.3       1 RES1    0.0000
     14 H2         4.9624    8.1011    1.8401 H         1 RES1    0.0000
     15 C3         4.5927    6.0520    2.0066 C.3       1 RES1    0.0000
     16 H3         3.9036    5.5374    2.4960 H         1 RES1    0.0000
     17 C4         4.4090    5.7423    0.5182 C.3       1 RES1    0.0000
     18 H4         3.6879    6.3419    0.2017 H         1 RES1    0.0000
     19 C5         5.6657    6.0977   -0.3293 C.3       1 RES1    0.0000
     20 H5         5.6415    5.5195   -1.1334 H         1 RES1    0.0000
     21 C6         5.5940    7.5503   -0.8244 C.3       1 RES1    0.0000
     22 H6         4.8191    7.6574   -1.4149 H         1 RES1    0.0000
     23 H7         5.4802    8.1526   -0.0595 H         1 RES1    0.0000
     24 C7         6.8616    7.9207   -1.5782 C.3       1 RES1    0.0000
     25 H8         6.9826    7.2966   -2.3364 H         1 RES1    0.0000
     26 C8         8.0714    7.8376   -0.6658 C.3       1 RES1    0.0000
     27 H9         7.8842    8.3745    0.1451 H         1 RES1    0.0000
     28 C9         8.2002    6.3729   -0.2503 C.3       1 RES1    0.0000
     29 H10        8.4207    5.8422   -1.0434 H         1 RES1    0.0000
     30 H11        8.9485    6.2904    0.3773 H         1 RES1    0.0000
     31 C10        6.9555    5.7795    0.4004 C.3       1 RES1    0.0000
     32 C11        9.3141    8.4083   -1.3365 C.ar      1 RES1    0.0000
     33 C12        9.8505    7.8530   -2.4728 C.ar      1 RES1    0.0000
     34 H12        9.5004    7.0479   -2.8066 H         1 RES1    0.0000
     35 C13       10.9076    8.4731   -3.1346 C.ar      1 RES1    0.0000
     36 H13       11.2707    8.0854   -3.9095 H         1 RES1    0.0000
     37 C14       11.4144    9.6451   -2.6542 C.ar      1 RES1    0.0000
     38 H14       12.1024   10.0844   -3.1186 H         1 RES1    0.0000
     39 C15       10.9306   10.1691   -1.5150 C.ar      1 RES1    0.0000
     40 H15       11.3210   10.9494   -1.1668 H         1 RES1    0.0000
     41 C16        9.8706    9.5866   -0.8446 C.ar      1 RES1    0.0000
     42 H16        9.5285    9.9835   -0.0624 H         1 RES1    0.0000
     43 C17        5.9862    8.7158    4.1632 C.ar      1 RES1    0.0000
     44 C18        7.0731    9.0898    3.4016 C.ar      1 RES1    0.0000
     45 H17        7.3394    8.5560    2.6760 H         1 RES1    0.0000
     46 C19        7.7705   10.2419    3.6962 C.ar      1 RES1    0.0000
     47 H18        8.5016   10.4967    3.1636 H         1 RES1    0.0000
     48 C20        7.4006   11.0177    4.7628 C.ar      1 RES1    0.0000
     49 H19        7.8702   11.8077    4.9573 H         1 RES1    0.0000
     50 C21        6.3464   10.6365    5.5406 C.ar      1 RES1    0.0000
     51 H20        6.1023   11.1623    6.2822 H         1 RES1    0.0000
     52 C22        5.6311    9.4840    5.2518 C.ar      1 RES1    0.0000
     53 H21        4.9089    9.2283    5.7960 H         1 RES1    0.0000
     54 C23        3.9241    4.3300    0.2550 C.ar      1 RES1    0.0000
     55 C24        4.2113    3.2575    1.0898 C.ar      1 RES1    0.0000
     56 H22        4.7158    3.3951    1.8706 H         1 RES1    0.0000
     57 C25        3.7553    1.9765    0.7720 C.ar      1 RES1    0.0000
     58 H23        3.9402    1.2572    1.3482 H         1 RES1    0.0000
     59 C26        3.0392    1.7679   -0.3701 C.ar      1 RES1    0.0000
     60 H24        2.7455    0.9009   -0.5848 H         1 RES1    0.0000
     61 C27        2.7457    2.8221   -1.2117 C.ar      1 RES1    0.0000
     62 H25        2.2526    2.6735   -1.9983 H         1 RES1    0.0000
     63 C28        3.1804    4.0969   -0.8939 C.ar      1 RES1    0.0000
     64 H26        2.9684    4.8136   -1.4628 H         1 RES1    0.0000
     65 C29        8.0554    3.7910    1.2146 C.3       1 RES1    0.0000
     66 H27        8.9132    3.9956    0.8112 H         1 RES1    0.0000
     67 H28        7.9356    2.8281    1.2480 H         1 RES1    0.0000
     68 H29        8.0266    4.1525    2.1144 H         1 RES1    0.0000
@<TRIPOS>BOND
     1    1   10 1
     2    2    8 2
     3    3    8 2
     4    4    9 2
     5    5    9 2
     6    6   10 1
     7    7   31 1
     8    8   24 1
     9    9   13 1
    10   10   15 1
    11   11    1 1
    12   12   11 1
    13   13   11 1
    14   14   13 1
    15   15   13 1
    16   16   15 1
    17   17   15 1
    18   18   17 1
    19   19   17 1
    20   20   19 1
    21   21   19 1
    22   22   21 1
    23   23   21 1
    24   24   21 1
    25   25   24 1
    26   26   24 1
    27   27   26 1
    28   28   26 1
    29   29   28 1
    30   30   28 1
    31   31    6 1
    32   32   26 1
    33   33   32 ar
    34   34   33 1
    35   35   33 ar
    36   36   35 1
    37   37   35 ar
    38   38   37 1
    39   39   37 ar
    40   40   39 1
    41   41   32 ar
    42   42   41 1
    43   43   11 1
    44   44   43 ar
    45   45   44 1
    46   46   44 ar
    47   47   46 1
    48   48   46 ar
    49   49   48 1
    50   50   48 ar
    51   51   50 1
    52   52   43 ar
    53   53   52 1
    54   54   17 1
    55   55   54 ar
    56   56   55 1
    57   57   55 ar
    58   58   57 1
    59   59   57 ar
    60   60   59 1
    61   61   59 ar
    62   62   61 1
    63   63   54 ar
    64   64   63 1
    65   65    7 1
    66   66   65 1
    67   67   65 1
    68   68   65 1
    69   19   31 1
    70   28   31 1
    71   39   41 ar
    72   50   52 ar
    73   61   63 ar
@<TRIPOS>SUBSTRUCTURE
     1 RES1 1

@<TRIPOS>CRYSIN
   8.1545   22.4097   14.6603  90.0000  98.1600  90.0000  14 1

