# MOL2 file generated by ConQuest
# Please check atom types

@<TRIPOS>MOLECULE
IJUKII
    66    68     2
SMALL
NO_CHARGES
****
Generated from CSD

@<TRIPOS>ATOM
      1 O1        -8.2745    2.4691   12.4977 O.3       1 RES1    0.0000
      2 H1        -8.3733    1.6898   12.2633 H         1 RES1    0.0000
      3 O2        -8.8401    6.5561   12.9436 O.2       1 RES1    0.0000
      4 O3        -1.4732    3.8882    8.7379 O.2       1 RES1    0.0000
      5 O4        -0.5128    5.6280    7.9990 O.2       1 RES1    0.0000
      6 O5        -1.4888    8.0103    8.4903 O.3       1 RES1    0.0000
      7 H2        -0.8806    7.5144    8.2505 H         1 RES1    0.0000
      8 O6        -8.0514    9.0993   12.4243 O.3       2 RES2    0.0000
      9 H3        -8.2165    8.2984   12.4897 H         2 RES2    0.0000
     10 O7        -8.1423   13.1461   11.4086 O.2       2 RES2    0.0000
     11 O8        -7.8569   11.2411   20.0618 O.2       2 RES2    0.0000
     12 O9        -7.6097   13.0889   21.1081 O.2       2 RES2    0.0000
     13 O10       -7.7647   15.3520   19.8467 O.3       2 RES2    0.0000
     14 H4        -7.5731   14.9018   20.5048 H         2 RES2    0.0000
     15 N1        -7.6116    4.9270   11.9743 N.am      1 RES1    0.0000
     16 N2        -6.6733    5.7849   11.4477 N.2       1 RES1    0.0000
     17 N3        -1.4554    5.0838    8.5446 N.pl3     1 RES1    0.0000
     18 N4        -8.1449   11.6531   13.0873 N.am      2 RES2    0.0000
     19 N5        -8.1150   12.6306   14.0568 N.2       2 RES2    0.0000
     20 N6        -7.7724   12.4503   20.0629 N.pl3     2 RES2    0.0000
     21 C1        -9.6294    4.3246   13.1203 C.ar      1 RES1    0.0000
     22 C2        -9.4473    2.9437   12.9982 C.ar      1 RES1    0.0000
     23 C3       -10.4418    2.0733   13.4074 C.ar      1 RES1    0.0000
     24 H5       -10.3169    1.1558   13.3175 H         1 RES1    0.0000
     25 C4       -11.6027    2.5458   13.9413 C.ar      1 RES1    0.0000
     26 H6       -12.2622    1.9476   14.2112 H         1 RES1    0.0000
     27 C5       -11.8082    3.9031   14.0852 C.ar      1 RES1    0.0000
     28 H7       -12.5991    4.2251   14.4541 H         1 RES1    0.0000
     29 C6       -10.8279    4.7670   13.6750 C.ar      1 RES1    0.0000
     30 H8       -10.9672    5.6819   13.7703 H         1 RES1    0.0000
     31 C7        -8.6613    5.3730   12.6895 C.2       1 RES1    0.0000
     32 C8        -5.7564    5.2068   10.7847 C.2       1 RES1    0.0000
     33 H9        -5.7784    4.2801   10.7083 H         1 RES1    0.0000
     34 C9        -4.6771    5.9372   10.1437 C.ar      1 RES1    0.0000
     35 C10       -3.6276    5.2277    9.6034 C.ar      1 RES1    0.0000
     36 H10       -3.6462    4.2984    9.6151 H         1 RES1    0.0000
     37 C11       -2.5411    5.8874    9.0400 C.ar      1 RES1    0.0000
     38 C12       -2.4977    7.2749    8.9877 C.ar      1 RES1    0.0000
     39 C13       -3.5812    7.9777    9.5056 C.ar      1 RES1    0.0000
     40 H11       -3.5841    8.9071    9.4636 H         1 RES1    0.0000
     41 C14       -4.6365    7.3351   10.0726 C.ar      1 RES1    0.0000
     42 H12       -5.3413    7.8325   10.4189 H         1 RES1    0.0000
     43 C15       -8.2054   10.8508   10.8122 C.ar      2 RES2    0.0000
     44 C16       -8.1951    9.4882   11.1298 C.ar      2 RES2    0.0000
     45 C17       -8.3175    8.5445   10.1279 C.ar      2 RES2    0.0000
     46 H13       -8.3208    7.6400   10.3454 H         2 RES2    0.0000
     47 C18       -8.4347    8.9293    8.8158 C.ar      2 RES2    0.0000
     48 H14       -8.5246    8.2840    8.1515 H         2 RES2    0.0000
     49 C19       -8.4167   10.2605    8.4739 C.ar      2 RES2    0.0000
     50 H15       -8.4788   10.5183    7.5832 H         2 RES2    0.0000
     51 C20       -8.3055   11.2003    9.4636 C.ar      2 RES2    0.0000
     52 H16       -8.2960   12.1008    9.2297 H         2 RES2    0.0000
     53 C21       -8.1563   11.9791   11.7864 C.2       2 RES2    0.0000
     54 C22       -8.0615   12.1911   15.2429 C.2       2 RES2    0.0000
     55 H17       -8.0544   11.2683   15.3644 H         2 RES2    0.0000
     56 C23       -8.0152   13.0262   16.4230 C.ar      2 RES2    0.0000
     57 C24       -7.9367   12.4241   17.6527 C.ar      2 RES2    0.0000
     58 H18       -7.9390   11.4948   17.7051 H         2 RES2    0.0000
     59 C25       -7.8578   13.1649   18.8193 C.ar      2 RES2    0.0000
     60 C26       -7.8498   14.5589   18.7728 C.ar      2 RES2    0.0000
     61 C27       -7.9149   15.1623   17.5312 C.ar      2 RES2    0.0000
     62 H19       -7.8976   16.0916   17.4772 H         2 RES2    0.0000
     63 C28       -8.0042   14.4319   16.3840 C.ar      2 RES2    0.0000
     64 H20       -8.0569   14.8691   15.5638 H         2 RES2    0.0000
     65 H21       -8.0724   10.7945   13.3610 H         2 RES2    0.0000
     66 H22       -7.5478    4.0380   11.8614 H         1 RES1    0.0000
@<TRIPOS>BOND
     1    1    2 1
     2    3   31 2
     3    4   17 2
     4    5   17 2
     5    6    7 1
     6    8    9 1
     7   10   53 2
     8   11   20 2
     9   12   20 2
    10   13   14 1
    11   15   16 1
    12   16   32 2
    13   17   37 1
    14   18   19 1
    15   19   54 2
    16   20   59 1
    17   21   22 ar
    18   22    1 1
    19   23   22 ar
    20   24   23 1
    21   25   23 ar
    22   26   25 1
    23   27   25 ar
    24   28   27 1
    25   29   21 ar
    26   30   29 1
    27   31   15 1
    28   32   33 1
    29   34   32 1
    30   35   34 ar
    31   36   35 1
    32   37   35 ar
    33   38    6 1
    34   39   38 ar
    35   40   39 1
    36   41   34 ar
    37   42   41 1
    38   43   44 ar
    39   44    8 1
    40   45   44 ar
    41   46   45 1
    42   47   45 ar
    43   48   47 1
    44   49   47 ar
    45   50   49 1
    46   51   43 ar
    47   52   51 1
    48   53   18 1
    49   54   55 1
    50   56   54 1
    51   57   56 ar
    52   58   57 1
    53   59   57 ar
    54   60   13 1
    55   61   60 ar
    56   62   61 1
    57   63   56 ar
    58   64   63 1
    59   65   18 1
    60   66   15 1
    61   21   31 1
    62   27   29 ar
    63   37   38 ar
    64   39   41 ar
    65   43   53 1
    66   49   51 ar
    67   59   60 ar
    68   61   63 ar
@<TRIPOS>SUBSTRUCTURE
     1 RES1 1
     2 RES2 8

@<TRIPOS>CRYSIN
  13.7690   13.0890   19.9990  90.0000 131.4260  90.0000  13 1

