# MOL2 file generated by ConQuest
# Please check atom types

@<TRIPOS>MOLECULE
IJUKEE
    33    34     1
SMALL
NO_CHARGES
****
Generated from CSD

@<TRIPOS>ATOM
      1 N1         4.0159    6.0806    1.4282 N.am      1 RES1    0.0000
      2 N2         3.1487    5.0888    1.0191 N.2       1 RES1    0.0000
      3 O1         8.7606    9.6571    3.7921 O.3       1 RES1    0.0000
      4 H1         8.4544   10.4144    3.7240 H         1 RES1    0.0000
      5 O2         5.6624    4.5753    1.7044 O.2       1 RES1    0.0000
      6 O3        -1.9624    1.8858   -1.0284 O.3       1 RES1    0.0000
      7 H2        -2.6534    2.2755   -1.2365 H         1 RES1    0.0000
      8 O4        -3.3343    4.0085   -1.6003 O.2       1 RES1    0.0000
      9 O5        -2.5011    5.9820   -1.2942 O.2       1 RES1    0.0000
     10 C1         6.1492    6.8177    2.2938 C.ar      1 RES1    0.0000
     11 C2         5.7933    8.1614    2.3000 C.ar      1 RES1    0.0000
     12 H3         4.9623    8.4158    1.9671 H         1 RES1    0.0000
     13 C3         6.6440    9.1188    2.7894 C.ar      1 RES1    0.0000
     14 H4         6.3885   10.0126    2.7812 H         1 RES1    0.0000
     15 C4         7.8732    8.7643    3.2913 C.ar      1 RES1    0.0000
     16 C5         8.2447    7.4286    3.2995 C.ar      1 RES1    0.0000
     17 H5         9.0728    7.1791    3.6416 H         1 RES1    0.0000
     18 C6         7.3888    6.4722    2.8028 C.ar      1 RES1    0.0000
     19 H6         7.6479    5.5793    2.8090 H         1 RES1    0.0000
     20 C7         5.2687    5.7407    1.7961 C.2       1 RES1    0.0000
     21 C8         1.9903    5.4736    0.6739 C.2       1 RES1    0.0000
     22 H7         1.7849    6.3799    0.7059 H         1 RES1    0.0000
     23 C9         0.9709    4.5301    0.2288 C.ar      1 RES1    0.0000
     24 C10       -0.2092    5.0182   -0.2689 C.ar      1 RES1    0.0000
     25 H8        -0.3437    5.9364   -0.3102 H         1 RES1    0.0000
     26 C11       -1.2032    4.1640   -0.7131 C.ar      1 RES1    0.0000
     27 C12       -1.0357    2.7889   -0.6502 C.ar      1 RES1    0.0000
     28 C13        0.1725    2.2978   -0.1515 C.ar      1 RES1    0.0000
     29 H9         0.3069    1.3781   -0.1051 H         1 RES1    0.0000
     30 C14        1.1581    3.1401    0.2700 C.ar      1 RES1    0.0000
     31 H10        1.9594    2.7904    0.5863 H         1 RES1    0.0000
     32 N3        -2.4180    4.7652   -1.2314 N.pl3     1 RES1    0.0000
     33 H11        3.6968    6.9186    1.4838 H         1 RES1    0.0000
@<TRIPOS>BOND
     1    1    2 1
     2    2   21 2
     3    3    4 1
     4    5   20 2
     5    6    7 1
     6    8   32 2
     7    9   32 2
     8   10   11 ar
     9   11   12 1
    10   13   11 ar
    11   14   13 1
    12   15    3 1
    13   16   15 ar
    14   17   16 1
    15   18   10 ar
    16   19   18 1
    17   20    1 1
    18   21   22 1
    19   23   21 1
    20   24   23 ar
    21   25   24 1
    22   26   24 ar
    23   27    6 1
    24   28   27 ar
    25   29   28 1
    26   30   23 ar
    27   31   30 1
    28   32   26 1
    29   33    1 1
    30   10   20 1
    31   13   15 ar
    32   16   18 ar
    33   26   27 ar
    34   28   30 ar
@<TRIPOS>SUBSTRUCTURE
     1 RES1 1

@<TRIPOS>CRYSIN
   8.7860   14.8820   10.3064  90.0000  91.1000  90.0000 231 1

