# MOL2 file generated by ConQuest
# Please check atom types

@<TRIPOS>MOLECULE
IJUQOT
   104   112     2
SMALL
NO_CHARGES
****
Generated from CSD

@<TRIPOS>ATOM
      1 O1         6.0539    0.8815    8.9433 O.3       1 RES1    0.0000
      2 O2         7.8234    4.5215    9.4195 O.2       1 RES1    0.0000
      3 O3         9.4072    3.9822    7.9928 O.3       1 RES1    0.0000
      4 N1         5.4898    1.6002    7.8435 N.3       1 RES1    0.0000
      5 N2         6.5271    4.6300    6.2736 N.2       1 RES1    0.0000
      6 C1         4.4931    2.5193    8.2632 C.ar      1 RES1    0.0000
      7 C2         3.3754    2.2425    9.0663 C.ar      1 RES1    0.0000
      8 C3         2.4573    3.2225    9.2500 C.ar      1 RES1    0.0000
      9 C4         2.5891    4.4728    8.6870 C.ar      1 RES1    0.0000
     10 C5         3.6948    4.7640    7.9081 C.ar      1 RES1    0.0000
     11 C6         4.6648    3.7740    7.7144 C.ar      1 RES1    0.0000
     12 C7         5.9456    3.7629    6.9980 C.2       1 RES1    0.0000
     13 C8         6.6038    2.3986    7.2361 C.3       1 RES1    0.0000
     14 C9         7.7045    2.4075    8.3500 C.3       1 RES1    0.0000
     15 C10        6.9657    1.7984    9.5244 C.3       1 RES1    0.0000
     16 C11        8.2950    3.7574    8.6587 C.2       1 RES1    0.0000
     17 C12       10.0704    5.2613    8.1321 C.3       1 RES1    0.0000
     18 C13       10.3822    5.8216    6.9012 C.3       1 RES1    0.0000
     19 C14        7.1200    1.7641    5.9487 C.ar      1 RES1    0.0000
     20 C15        6.4538    0.7176    5.3272 C.ar      1 RES1    0.0000
     21 C16        6.9776    0.1296    4.1992 C.ar      1 RES1    0.0000
     22 C17        8.1451    0.5858    3.6483 C.ar      1 RES1    0.0000
     23 C18        8.8131    1.6290    4.2194 C.ar      1 RES1    0.0000
     24 C19        8.2984    2.2170    5.3777 C.ar      1 RES1    0.0000
     25 C20        5.8997    5.8748    6.0193 C.ar      1 RES1    0.0000
     26 C21        5.1037    6.0320    4.9075 C.ar      1 RES1    0.0000
     27 C22        4.5546    7.2889    4.6290 C.ar      1 RES1    0.0000
     28 C23        4.8253    8.3553    5.4220 C.ar      1 RES1    0.0000
     29 C24        5.6243    8.2114    6.5077 C.ar      1 RES1    0.0000
     30 C25        6.1631    6.9788    6.8184 C.ar      1 RES1    0.0000
     31 O4        -0.1585    7.5181   13.1344 O.3       2 RES2    0.0000
     32 O5         1.2861   11.0718   14.5429 O.2       2 RES2    0.0000
     33 O6         3.0438   10.9090   13.1687 O.3       2 RES2    0.0000
     34 N3        -0.6600    8.4428   12.1577 N.3       2 RES2    0.0000
     35 N4         0.3803   11.7927   11.4333 N.2       2 RES2    0.0000
     36 C26       -1.7342    9.2136   12.6784 C.ar      2 RES2    0.0000
     37 C27       -2.8452    8.6953   13.3321 C.ar      2 RES2    0.0000
     38 C28       -3.8362    9.5868   13.6792 C.ar      2 RES2    0.0000
     39 C29       -3.7388   10.9422   13.3786 C.ar      2 RES2    0.0000
     40 C30       -2.6204   11.4405   12.7470 C.ar      2 RES2    0.0000
     41 C31       -1.5911   10.5613   12.4059 C.ar      2 RES2    0.0000
     42 C32       -0.2522   10.7695   11.8450 C.2       2 RES2    0.0000
     43 C33        0.4519    9.3974   11.8490 C.3       2 RES2    0.0000
     44 C34        1.4505    9.1981   13.0416 C.3       2 RES2    0.0000
     45 C35        0.6587    8.3155   13.9980 C.3       2 RES2    0.0000
     46 C36        1.8996   10.4915   13.6812 C.2       2 RES2    0.0000
     47 C37        3.5588   12.1681   13.6651 C.3       2 RES2    0.0000
     48 C38        4.6495   12.5945   12.8418 C.3       2 RES2    0.0000
     49 C39        1.0666    9.1017   10.4890 C.ar      2 RES2    0.0000
     50 C40        0.3276    8.5170    9.5002 C.ar      2 RES2    0.0000
     51 C41        0.8865    8.3066    8.2451 C.ar      2 RES2    0.0000
     52 C42        2.1543    8.6377    7.9706 C.ar      2 RES2    0.0000
     53 C43        2.8913    9.2490    8.9311 C.ar      2 RES2    0.0000
     54 C44        2.3549    9.4838   10.1943 C.ar      2 RES2    0.0000
     55 C45       -0.2286   13.0751   11.3768 C.ar      2 RES2    0.0000
     56 C46        0.1204   14.0297   12.3272 C.ar      2 RES2    0.0000
     57 C47       -0.3326   15.3308   12.1820 C.ar      2 RES2    0.0000
     58 C48       -1.1037   15.6808   11.1125 C.ar      2 RES2    0.0000
     59 C49       -1.4639   14.7229   10.1903 C.ar      2 RES2    0.0000
     60 C50       -1.0243   13.4272   10.3073 C.ar      2 RES2    0.0000
     61 H1         3.4018    1.3289    9.3791 H         1 RES1    0.0000
     62 H2         1.5851    3.1007    9.8392 H         1 RES1    0.0000
     63 H3         1.7753    5.3188    8.9796 H         1 RES1    0.0000
     64 H4         3.7481    5.7673    7.4641 H         1 RES1    0.0000
     65 H5         8.5071    1.7796    7.9767 H         1 RES1    0.0000
     66 H6         5.4853    0.4640    5.6460 H         1 RES1    0.0000
     67 H7         6.5445   -0.6456    3.6725 H         1 RES1    0.0000
     68 H8         8.4213    0.2303    2.6555 H         1 RES1    0.0000
     69 H9         9.9685    2.0121    3.8743 H         1 RES1    0.0000
     70 H10        8.7955    3.1218    5.7611 H         1 RES1    0.0000
     71 H11        4.8928    5.3355    4.2557 H         1 RES1    0.0000
     72 H12        3.8925    7.3266    3.7956 H         1 RES1    0.0000
     73 H13        4.4140    9.3276    5.1819 H         1 RES1    0.0000
     74 H14        5.8159    9.0951    7.0666 H         1 RES1    0.0000
     75 H15        6.7573    6.8736    7.6357 H         1 RES1    0.0000
     76 H16        7.5757    1.3422   10.1217 H         1 RES1    0.0000
     77 H17        6.4863    2.4795   10.0248 H         1 RES1    0.0000
     78 H18        9.4685    5.8526    8.6365 H         1 RES1    0.0000
     79 H19       10.8608    5.1339    8.6769 H         1 RES1    0.0000
     80 H20        9.5855    5.9478    6.4310 H         1 RES1    0.0000
     81 H21       10.8078    6.6643    7.1009 H         1 RES1    0.0000
     82 H22       10.9805    5.2369    6.4754 H         1 RES1    0.0000
     83 H23       -2.8407    7.5159   13.5763 H         2 RES2    0.0000
     84 H24       -4.7963    9.2822   14.0747 H         2 RES2    0.0000
     85 H25       -4.4583   11.7218   13.7821 H         2 RES2    0.0000
     86 H26       -2.6295   12.3951   12.5714 H         2 RES2    0.0000
     87 H27        2.3227    8.6300   12.6925 H         2 RES2    0.0000
     88 H28       -0.7157    8.4162    9.7787 H         2 RES2    0.0000
     89 H29        0.2172    7.9810    7.5630 H         2 RES2    0.0000
     90 H30        2.6196    8.4295    7.0525 H         2 RES2    0.0000
     91 H31        3.8586    9.7495    8.7838 H         2 RES2    0.0000
     92 H32        2.8676   10.1881   10.8300 H         2 RES2    0.0000
     93 H33        0.7552   13.7185   13.1344 H         2 RES2    0.0000
     94 H34       -0.0313   15.9355   12.9447 H         2 RES2    0.0000
     95 H35       -1.3746   16.6110   10.9450 H         2 RES2    0.0000
     96 H36       -1.9876   15.0606    9.3569 H         2 RES2    0.0000
     97 H37       -1.2926   12.6244    9.5849 H         2 RES2    0.0000
     98 H38        1.1858    7.7418   14.5711 H         2 RES2    0.0000
     99 H39        0.0467    8.8492   14.6357 H         2 RES2    0.0000
    100 H40        2.8466   12.8370   13.9678 H         2 RES2    0.0000
    101 H41        3.8710   11.9500   14.6478 H         2 RES2    0.0000
    102 H42        4.3408   12.6986   11.9257 H         2 RES2    0.0000
    103 H43        4.9936   13.4272   13.1505 H         2 RES2    0.0000
    104 H44        5.3445   11.9289   12.8519 H         2 RES2    0.0000
@<TRIPOS>BOND
     1    1    4 1
     2    2   16 2
     3    3   16 1
     4    4    6 1
     5    5   12 2
     6    6    7 ar
     7    7    8 ar
     8    8    9 ar
     9    9   10 ar
    10   10   11 ar
    11   11    6 ar
    12   12   11 1
    13   13    4 1
    14   14   13 1
    15   15    1 1
    16   16   14 1
    17   17    3 1
    18   18   17 1
    19   19   13 1
    20   20   19 ar
    21   21   20 ar
    22   22   21 ar
    23   23   22 ar
    24   24   19 ar
    25   25    5 1
    26   26   25 ar
    27   27   26 ar
    28   28   27 ar
    29   29   28 ar
    30   30   25 ar
    31   31   34 1
    32   32   46 2
    33   33   46 1
    34   34   36 1
    35   35   42 2
    36   36   37 ar
    37   37   38 ar
    38   38   39 ar
    39   39   40 ar
    40   40   41 ar
    41   41   36 ar
    42   42   41 1
    43   43   34 1
    44   44   43 1
    45   45   31 1
    46   46   44 1
    47   47   33 1
    48   48   47 1
    49   49   43 1
    50   50   49 ar
    51   51   50 ar
    52   52   51 ar
    53   53   52 ar
    54   54   49 ar
    55   55   35 1
    56   56   55 ar
    57   57   56 ar
    58   58   57 ar
    59   59   58 ar
    60   60   55 ar
    61   61    7 1
    62   62    8 1
    63   63    9 1
    64   64   10 1
    65   65   14 1
    66   66   20 1
    67   67   21 1
    68   68   22 1
    69   69   23 1
    70   70   24 1
    71   71   26 1
    72   72   27 1
    73   73   28 1
    74   74   29 1
    75   75   30 1
    76   76   15 1
    77   77   15 1
    78   78   17 1
    79   79   17 1
    80   80   18 1
    81   81   18 1
    82   82   18 1
    83   83   37 1
    84   84   38 1
    85   85   39 1
    86   86   40 1
    87   87   44 1
    88   88   50 1
    89   89   51 1
    90   90   52 1
    91   91   53 1
    92   92   54 1
    93   93   56 1
    94   94   57 1
    95   95   58 1
    96   96   59 1
    97   97   60 1
    98   98   45 1
    99   99   45 1
   100  100   47 1
   101  101   47 1
   102  102   48 1
   103  103   48 1
   104  104   48 1
   105   12   13 1
   106   14   15 1
   107   23   24 ar
   108   29   30 ar
   109   42   43 1
   110   44   45 1
   111   53   54 ar
   112   59   60 ar
@<TRIPOS>SUBSTRUCTURE
     1 RES1 1
     2 RES2 31

@<TRIPOS>CRYSIN
  18.9570   11.0740   20.8550  90.0000 104.6300  90.0000 231 1

