# MOL2 file generated by ConQuest
# Please check atom types

@<TRIPOS>MOLECULE
IJUQUZ
    41    44     1
SMALL
NO_CHARGES
****
Generated from CSD

@<TRIPOS>ATOM
      1 O1         2.1599    1.2343   16.1010 O.3       1 RES1    0.0000
      2 O2         5.1889    3.0015   16.6786 O.2       1 RES1    0.0000
      3 O3         3.2911    2.9309   17.8300 O.3       1 RES1    0.0000
      4 O4         4.3067    3.3760   12.6919 O.2       1 RES1    0.0000
      5 N1         1.8651    1.9126   14.8461 N.3       1 RES1    0.0000
      6 C1         1.7231    3.3127   15.0361 C.ar      1 RES1    0.0000
      7 C2         0.8146    3.9327   15.8941 C.ar      1 RES1    0.0000
      8 C3         0.7753    5.3148   15.8790 C.ar      1 RES1    0.0000
      9 C4         1.5680    6.0621   15.0023 C.ar      1 RES1    0.0000
     10 C5         2.4809    5.4585   14.1782 C.ar      1 RES1    0.0000
     11 C6         2.5442    4.0526   14.2065 C.ar      1 RES1    0.0000
     12 C7         3.4222    3.1493   13.4972 C.2       1 RES1    0.0000
     13 C8         3.0313    1.6876   13.9148 C.3       1 RES1    0.0000
     14 C9         4.1210    1.0479   14.8311 C.3       1 RES1    0.0000
     15 C10        3.6100    1.2548   16.2515 C.3       1 RES1    0.0000
     16 C11        4.1472    2.5170   16.8780 C.2       1 RES1    0.0000
     17 C12        3.6952    4.1602   18.5130 C.3       1 RES1    0.0000
     18 C13        2.5770    4.6381   19.2298 C.3       1 RES1    0.0000
     19 C14        2.6250    0.8811   12.7089 C.ar      1 RES1    0.0000
     20 C15        3.6253    0.3104   11.9300 C.ar      1 RES1    0.0000
     21 C16        3.3217   -0.3876   10.7804 C.ar      1 RES1    0.0000
     22 C17        1.9895   -0.4845   10.3740 C.ar      1 RES1    0.0000
     23 C18        0.9849    0.0797   11.1473 C.ar      1 RES1    0.0000
     24 C19        1.3060    0.7727   12.3138 C.ar      1 RES1    0.0000
     25 H1         0.2511    3.4219   16.4886 H         1 RES1    0.0000
     26 H2         0.1354    5.7648   16.4020 H         1 RES1    0.0000
     27 H3         1.5309    7.0533   15.0869 H         1 RES1    0.0000
     28 H4         3.0116    5.9652   13.5047 H         1 RES1    0.0000
     29 H5         3.8153    0.1552   16.7840 H         1 RES1    0.0000
     30 H6         4.5534    0.3958   12.2498 H         1 RES1    0.0000
     31 H7         4.0053   -0.7916   10.2198 H         1 RES1    0.0000
     32 H8         1.7384   -0.9813    9.5575 H         1 RES1    0.0000
     33 H9         0.0524    0.0567   10.8500 H         1 RES1    0.0000
     34 H10        0.6202    1.1776   12.8669 H         1 RES1    0.0000
     35 H11        4.2280    0.0969   14.6241 H         1 RES1    0.0000
     36 H12        4.9815    1.4880   14.6956 H         1 RES1    0.0000
     37 H13        3.9616    4.8845   17.9034 H         1 RES1    0.0000
     38 H14        4.4268    4.0419   19.1621 H         1 RES1    0.0000
     39 H15        2.7386    5.4355   19.7528 H         1 RES1    0.0000
     40 H16        1.7449    4.8040   18.6936 H         1 RES1    0.0000
     41 H17        2.2014    3.9565   19.9316 H         1 RES1    0.0000
@<TRIPOS>BOND
     1    1    5 1
     2    2   16 2
     3    3   16 1
     4    4   12 2
     5    5    6 1
     6    6    7 ar
     7    7    8 ar
     8    8    9 ar
     9    9   10 ar
    10   10   11 ar
    11   11    6 ar
    12   12   11 1
    13   13    5 1
    14   14   13 1
    15   15    1 1
    16   16   15 1
    17   17    3 1
    18   18   17 1
    19   19   13 1
    20   20   19 ar
    21   21   20 ar
    22   22   21 ar
    23   23   22 ar
    24   24   19 ar
    25   25    7 1
    26   26    8 1
    27   27    9 1
    28   28   10 1
    29   29   15 1
    30   30   20 1
    31   31   21 1
    32   32   22 1
    33   33   23 1
    34   34   24 1
    35   35   14 1
    36   36   14 1
    37   37   17 1
    38   38   17 1
    39   39   18 1
    40   40   18 1
    41   41   18 1
    42   12   13 1
    43   14   15 1
    44   23   24 ar
@<TRIPOS>SUBSTRUCTURE
     1 RES1 1

@<TRIPOS>CRYSIN
  21.8390    8.2120   18.8140  90.0000  90.0000  90.0000  60 1

