# MOL2 file generated by ConQuest
# Please check atom types

@<TRIPOS>MOLECULE
IJURAG
    52    56     1
SMALL
NO_CHARGES
****
Generated from CSD

@<TRIPOS>ATOM
      1 O1         7.6837    3.7890    6.7113 O.3       1 RES1    0.0000
      2 O2         8.9960    4.6603    4.5182 O.2       1 RES1    0.0000
      3 O3        10.4857    5.7195    5.8028 O.3       1 RES1    0.0000
      4 N1         6.9127    3.8246    7.9519 N.3       1 RES1    0.0000
      5 N2         7.3916    6.2082   10.6132 N.2       1 RES1    0.0000
      6 C1         7.5783    3.0403    8.9444 C.ar      1 RES1    0.0000
      7 C2         7.9076    1.7218    8.8183 C.ar      1 RES1    0.0000
      8 C3         8.4563    1.0808    9.9249 C.ar      1 RES1    0.0000
      9 C4         8.6641    1.7856   11.1074 C.ar      1 RES1    0.0000
     10 C5         8.3486    3.1016   11.2295 C.ar      1 RES1    0.0000
     11 C6         7.7907    3.7716   10.1190 C.ar      1 RES1    0.0000
     12 C7         7.3902    5.1630    9.8888 C.2       1 RES1    0.0000
     13 C8         6.9015    5.2475    8.4221 C.3       1 RES1    0.0000
     14 C9         7.9574    5.9440    7.5157 C.3       1 RES1    0.0000
     15 C10        8.7037    4.7729    6.9154 C.3       1 RES1    0.0000
     16 C11        9.3855    5.0263    5.5927 C.2       1 RES1    0.0000
     17 C12       11.3081    6.0475    4.6523 C.3       1 RES1    0.0000
     18 C13       12.5643    6.5171    5.0845 C.3       1 RES1    0.0000
     19 C14        5.5109    5.8446    8.3361 C.ar      1 RES1    0.0000
     20 C15        4.3885    5.0636    8.3001 C.ar      1 RES1    0.0000
     21 C16        3.1234    5.6467    8.2580 C.ar      1 RES1    0.0000
     22 C17        2.9753    7.0033    8.2881 C.ar      1 RES1    0.0000
     23 C18        4.0885    7.7801    8.3401 C.ar      1 RES1    0.0000
     24 C19        5.3531    7.2045    8.3641 C.ar      1 RES1    0.0000
     25 C20        7.8196    6.1602   11.9659 C.ar      1 RES1    0.0000
     26 C21        9.1331    6.3664   12.2720 C.ar      1 RES1    0.0000
     27 C22        9.5556    6.4078   13.6007 C.ar      1 RES1    0.0000
     28 C23        8.6564    6.1684   14.5951 C.ar      1 RES1    0.0000
     29 C24        7.3459    5.9655   14.2870 C.ar      1 RES1    0.0000
     30 C25        6.9117    5.9813   12.9744 C.ar      1 RES1    0.0000
     31 H1         7.7691    1.2671    8.0199 H         1 RES1    0.0000
     32 H2         8.6840    0.1805    9.8728 H         1 RES1    0.0000
     33 H3         9.0323    1.3409   11.8358 H         1 RES1    0.0000
     34 H4         8.4956    3.5521   12.0299 H         1 RES1    0.0000
     35 H5         8.5115    6.6405    8.0279 H         1 RES1    0.0000
     36 H6         7.5408    6.6504    6.7513 H         1 RES1    0.0000
     37 H7         9.4544    4.3273    7.7018 H         1 RES1    0.0000
     38 H8        10.8724    6.7134    4.1160 H         1 RES1    0.0000
     39 H9        11.4424    5.2491    4.1140 H         1 RES1    0.0000
     40 H10       13.1091    6.7374    4.3261 H         1 RES1    0.0000
     41 H11       12.4366    7.3213    5.6167 H         1 RES1    0.0000
     42 H12       13.0039    5.8603    5.6208 H         1 RES1    0.0000
     43 H13        4.4700    4.1377    8.3061 H         1 RES1    0.0000
     44 H14        2.3690    5.1042    8.2060 H         1 RES1    0.0000
     45 H15        2.1297    7.3875    8.2741 H         1 RES1    0.0000
     46 H16        4.0041    8.7060    8.3561 H         1 RES1    0.0000
     47 H17        6.1046    7.7511    8.4021 H         1 RES1    0.0000
     48 H18        9.7524    6.4798   11.5877 H         1 RES1    0.0000
     49 H19       10.4428    6.5974   13.8048 H         1 RES1    0.0000
     50 H20        8.9375    6.1428   15.4816 H         1 RES1    0.0000
     51 H21        6.7330    5.8148   14.9713 H         1 RES1    0.0000
     52 H22        6.0097    5.8703   12.7783 H         1 RES1    0.0000
@<TRIPOS>BOND
     1    1    4 1
     2    2   16 2
     3    3   16 1
     4    4    6 1
     5    5   12 2
     6    6    7 ar
     7    7    8 ar
     8    8    9 ar
     9    9   10 ar
    10   10   11 ar
    11   11    6 ar
    12   12   11 1
    13   13    4 1
    14   14   13 1
    15   15    1 1
    16   16   15 1
    17   17    3 1
    18   18   17 1
    19   19   13 1
    20   20   19 ar
    21   21   20 ar
    22   22   21 ar
    23   23   22 ar
    24   24   19 ar
    25   25    5 1
    26   26   25 ar
    27   27   26 ar
    28   28   27 ar
    29   29   28 ar
    30   30   25 ar
    31   31    7 1
    32   32    8 1
    33   33    9 1
    34   34   10 1
    35   35   14 1
    36   36   14 1
    37   37   15 1
    38   38   17 1
    39   39   17 1
    40   40   18 1
    41   41   18 1
    42   42   18 1
    43   43   20 1
    44   44   21 1
    45   45   22 1
    46   46   23 1
    47   47   24 1
    48   48   26 1
    49   49   27 1
    50   50   28 1
    51   51   29 1
    52   52   30 1
    53   12   13 1
    54   14   15 1
    55   23   24 ar
    56   29   30 ar
@<TRIPOS>SUBSTRUCTURE
     1 RES1 1

@<TRIPOS>CRYSIN
  12.7700    8.2820   20.6350  90.0000 104.1400  90.0000 231 1

