# MOL2 file generated by ConQuest
# Please check atom types

@<TRIPOS>MOLECULE
IJUREK
    44    47     1
SMALL
NO_CHARGES
****
Generated from CSD

@<TRIPOS>ATOM
      1 O1        -1.7237   -0.8643    6.6343 O.3       1 RES1    0.0000
      2 O2         2.6941   -0.7198    8.1135 O.2       1 RES1    0.0000
      3 O3         1.4340    1.1129    8.0858 O.3       1 RES1    0.0000
      4 O4         1.9840    1.4639    5.1731 O.2       1 RES1    0.0000
      5 N1        -1.1612   -0.1735    5.4993 N.3       1 RES1    0.0000
      6 C1        -1.4756    1.2089    5.5173 C.ar      1 RES1    0.0000
      7 C2        -2.7539    1.7480    5.6044 C.ar      1 RES1    0.0000
      8 C3        -2.8567    3.1207    5.4730 C.ar      1 RES1    0.0000
      9 C4        -1.7511    3.9293    5.2574 C.ar      1 RES1    0.0000
     10 C5        -0.4868    3.3870    5.1731 C.ar      1 RES1    0.0000
     11 C6        -0.3630    2.0078    5.3224 C.ar      1 RES1    0.0000
     12 C7         0.8226    1.1621    5.3445 C.2       1 RES1    0.0000
     13 C8         0.3300   -0.2913    5.5961 C.3       1 RES1    0.0000
     14 C9         0.5668   -0.8135    7.0476 C.3       1 RES1    0.0000
     15 C10       -0.7976   -0.6214    7.7167 C.3       1 RES1    0.0000
     16 C11        1.6931   -0.1574    7.8080 C.2       1 RES1    0.0000
     17 C12        2.4784    1.8965    8.7162 C.3       1 RES1    0.0000
     18 C13        2.2261    3.3079    8.4646 C.3       1 RES1    0.0000
     19 C14        0.8861   -1.1758    4.4998 C.ar      1 RES1    0.0000
     20 C15        0.2212   -1.2508    3.2847 C.ar      1 RES1    0.0000
     21 C16        0.7679   -1.9489    2.2271 C.ar      1 RES1    0.0000
     22 C17        1.9928   -2.5880    2.3778 C.ar      1 RES1    0.0000
     23 C18        2.6493   -2.5235    3.5805 C.ar      1 RES1    0.0000
     24 C19        2.1118   -1.8166    4.6436 C.ar      1 RES1    0.0000
     25 C20       -1.1039   -1.5874    8.8268 C.3       1 RES1    0.0000
     26 H1        -3.5874    1.1790    5.6680 H         1 RES1    0.0000
     27 H2        -3.8102    3.4943    5.3915 H         1 RES1    0.0000
     28 H3        -1.9036    4.9372    5.1150 H         1 RES1    0.0000
     29 H4         0.3184    3.9341    4.9781 H         1 RES1    0.0000
     30 H5         0.7274   -1.8190    7.0545 H         1 RES1    0.0000
     31 H6        -0.9226    0.3357    8.0209 H         1 RES1    0.0000
     32 H7         2.4247    1.6221    9.9452 H         1 RES1    0.0000
     33 H8         3.3029    1.6108    8.5642 H         1 RES1    0.0000
     34 H9         2.9133    3.8341    8.8807 H         1 RES1    0.0000
     35 H10        1.3723    3.5524    8.8282 H         1 RES1    0.0000
     36 H11        2.2293    3.4693    7.5177 H         1 RES1    0.0000
     37 H12       -0.7532   -0.8304    3.1796 H         1 RES1    0.0000
     38 H13        0.1826   -1.9933    1.3824 H         1 RES1    0.0000
     39 H14        2.4257   -3.0973    1.5221 H         1 RES1    0.0000
     40 H15        3.4854   -2.9351    3.7381 H         1 RES1    0.0000
     41 H16        2.6119   -1.6535    5.3970 H         1 RES1    0.0000
     42 H17       -1.9740   -1.3945    9.1863 H         1 RES1    0.0000
     43 H18       -0.4454   -1.5010    9.5194 H         1 RES1    0.0000
     44 H19       -1.0929   -2.4839    8.4826 H         1 RES1    0.0000
@<TRIPOS>BOND
     1    1    5 1
     2    2   16 2
     3    3   16 1
     4    4   12 2
     5    5    6 1
     6    6    7 ar
     7    7    8 ar
     8    8    9 ar
     9    9   10 ar
    10   10   11 ar
    11   11    6 ar
    12   12   11 1
    13   13    5 1
    14   14   13 1
    15   15    1 1
    16   16   14 1
    17   17    3 1
    18   18   17 1
    19   19   13 1
    20   20   19 ar
    21   21   20 ar
    22   22   21 ar
    23   23   22 ar
    24   24   19 ar
    25   25   15 1
    26   26    7 1
    27   27    8 1
    28   28    9 1
    29   29   10 1
    30   30   14 1
    31   31   15 1
    32   32   17 1
    33   33   17 1
    34   34   18 1
    35   35   18 1
    36   36   18 1
    37   37   20 1
    38   38   21 1
    39   39   22 1
    40   40   23 1
    41   41   24 1
    42   42   25 1
    43   43   25 1
    44   44   25 1
    45   12   13 1
    46   14   15 1
    47   23   24 ar
@<TRIPOS>SUBSTRUCTURE
     1 RES1 1

@<TRIPOS>CRYSIN
  31.0400    8.0700   15.8710  90.0000 119.4200  90.0000  15 1

