# MOL2 file generated by ConQuest
# Please check atom types

@<TRIPOS>MOLECULE
IKABUS
    28    30     1
SMALL
NO_CHARGES
****
Generated from CSD

@<TRIPOS>ATOM
      1 O1         6.0538    5.0713    2.5752 O.3       1 RES1    0.0000
      2 H1         6.3359    5.2636    1.8288 H         1 RES1    0.0000
      3 O2         3.3932   -0.4339    1.5157 O.2       1 RES1    0.0000
      4 O3         3.1065   -0.2863    3.6334 O.2       1 RES1    0.0000
      5 N1         6.7109    4.7424    0.0915 N.2       1 RES1    0.0000
      6 N2         6.1798    2.8883   -1.0107 N.3       1 RES1    0.0000
      7 N3         3.5325    0.1530    2.5861 N.pl3     1 RES1    0.0000
      8 C1         5.4478    3.0806    1.3647 C.ar      1 RES1    0.0000
      9 C2         5.4555    3.8732    2.5310 C.ar      1 RES1    0.0000
     10 C3         4.8485    3.4156    3.6877 C.ar      1 RES1    0.0000
     11 H2         4.8591    3.9450    4.4517 H         1 RES1    0.0000
     12 C4         4.2377    2.2013    3.7204 C.ar      1 RES1    0.0000
     13 H3         3.8393    1.8946    4.5032 H         1 RES1    0.0000
     14 C5         4.2161    1.4303    2.5750 C.ar      1 RES1    0.0000
     15 C6         4.8081    1.8554    1.4055 C.ar      1 RES1    0.0000
     16 H4         4.7782    1.3200    0.6460 H         1 RES1    0.0000
     17 C7         6.1104    3.5652    0.1600 C.2       1 RES1    0.0000
     18 C8         7.1999    4.8405   -1.2088 C.ar      1 RES1    0.0000
     19 C9         6.8788    3.6823   -1.9101 C.ar      1 RES1    0.0000
     20 C10        7.2286    3.4962   -3.2275 C.ar      1 RES1    0.0000
     21 H5         7.0131    2.7150   -3.6844 H         1 RES1    0.0000
     22 C11        7.9160    4.5298   -3.8410 C.ar      1 RES1    0.0000
     23 H6         8.1671    4.4438   -4.7315 H         1 RES1    0.0000
     24 C12        8.2383    5.6948   -3.1524 C.ar      1 RES1    0.0000
     25 H7         8.6981    6.3723   -3.5939 H         1 RES1    0.0000
     26 C13        7.8905    5.8660   -1.8317 C.ar      1 RES1    0.0000
     27 H8         8.1123    6.6445   -1.3742 H         1 RES1    0.0000
     28 H9         5.8697    2.0781   -1.2549 H         1 RES1    0.0000
@<TRIPOS>BOND
     1    1    2 1
     2    3    7 2
     3    4    7 2
     4    5   17 2
     5    6   17 1
     6    7   14 1
     7    8    9 ar
     8    9    1 1
     9   10    9 ar
    10   11   10 1
    11   12   10 ar
    12   13   12 1
    13   14   12 ar
    14   15    8 ar
    15   16   15 1
    16   17    8 1
    17   18    5 1
    18   19    6 1
    19   20   19 ar
    20   21   20 1
    21   22   20 ar
    22   23   22 1
    23   24   22 ar
    24   25   24 1
    25   26   18 ar
    26   27   26 1
    27   28    6 1
    28   14   15 ar
    29   18   19 ar
    30   24   26 ar
@<TRIPOS>SUBSTRUCTURE
     1 RES1 1

@<TRIPOS>CRYSIN
   8.1170    6.7690   20.8420  90.0000  99.2350  90.0000  14 1

