# MOL2 file generated by ConQuest
# Please check atom types

@<TRIPOS>MOLECULE
IKACIH
    33    34     1
SMALL
NO_CHARGES
****
Generated from CSD

@<TRIPOS>ATOM
      1 O1         7.0825    2.5773    4.8889 O.3       1 RES1    0.0000
      2 O2         6.8343    0.2637    5.3270 O.3       1 RES1    0.0000
      3 O3         5.5762    4.0589    5.5095 O.2       1 RES1    0.0000
      4 O4         4.9562   -0.5422    6.1524 O.2       1 RES1    0.0000
      5 O5        -2.0516    3.7294    9.7694 O.2       1 RES1    0.0000
      6 O6        -2.5784    1.6500    9.8432 O.2       1 RES1    0.0000
      7 N1        -1.8132    2.5485    9.5508 N.pl3     1 RES1    0.0000
      8 N2         3.0943    1.2460    7.1600 N.pl3     1 RES1    0.0000
      9 H1         3.2717    0.4076    7.0915 H         1 RES1    0.0000
     10 C1        -0.5334    2.2195    8.9171 C.ar      1 RES1    0.0000
     11 C2         0.3347    3.2262    8.5971 C.ar      1 RES1    0.0000
     12 H2         0.1112    4.1113    8.7740 H         1 RES1    0.0000
     13 C3         1.5363    2.9185    8.0123 C.ar      1 RES1    0.0000
     14 H3         2.1281    3.5982    7.7785 H         1 RES1    0.0000
     15 C4         1.8691    1.5989    7.7697 C.ar      1 RES1    0.0000
     16 C5         0.9907    0.5985    8.1118 C.ar      1 RES1    0.0000
     17 H4         1.2195   -0.2909    7.9625 H         1 RES1    0.0000
     18 C6        -0.2263    0.9072    8.6744 C.ar      1 RES1    0.0000
     19 H5        -0.8312    0.2345    8.8860 H         1 RES1    0.0000
     20 C7         3.9897    2.0943    6.6862 C.2       1 RES1    0.0000
     21 H6         3.7848    2.9978    6.7680 H         1 RES1    0.0000
     22 C8         5.1827    1.7961    6.0890 C.2       1 RES1    0.0000
     23 C9         5.9217    2.8984    5.5273 C.2       1 RES1    0.0000
     24 C10        5.6179    0.4428    5.8908 C.2       1 RES1    0.0000
     25 C11        7.7545    1.3789    5.2713 C.3       1 RES1    0.0000
     26 C12        8.4090    1.5763    6.6160 C.3       1 RES1    0.0000
     27 H7         7.7362    1.7751    7.2728 H         1 RES1    0.0000
     28 H8         9.0309    2.3055    6.5654 H         1 RES1    0.0000
     29 H9         8.8745    0.7759    6.8667 H         1 RES1    0.0000
     30 C13        8.7203    1.0643    4.1683 C.3       1 RES1    0.0000
     31 H10        9.1861    0.2504    4.3728 H         1 RES1    0.0000
     32 H11        9.3516    1.7825    4.0821 H         1 RES1    0.0000
     33 H12        8.2409    0.9600    3.3436 H         1 RES1    0.0000
@<TRIPOS>BOND
     1    1   23 1
     2    2   24 1
     3    3   23 2
     4    4   24 2
     5    5    7 2
     6    6    7 2
     7    7   10 1
     8    8    9 1
     9   10   11 ar
    10   11   12 1
    11   13   11 ar
    12   14   13 1
    13   15    8 1
    14   16   15 ar
    15   17   16 1
    16   18   10 ar
    17   19   18 1
    18   20    8 1
    19   21   20 1
    20   22   20 2
    21   23   22 1
    22   24   22 1
    23   25    1 1
    24   26   25 1
    25   27   26 1
    26   28   26 1
    27   29   26 1
    28   30   25 1
    29   31   30 1
    30   32   30 1
    31   33   30 1
    32    2   25 1
    33   13   15 ar
    34   16   18 ar
@<TRIPOS>SUBSTRUCTURE
     1 RES1 1

@<TRIPOS>CRYSIN
  12.2822   12.2762    9.2760  90.0000 106.6360  90.0000  14 1

