# MOL2 file generated by ConQuest
# Please check atom types

@<TRIPOS>MOLECULE
IKAGIM
    59    61     1
SMALL
NO_CHARGES
****
Generated from CSD

@<TRIPOS>ATOM
      1 O1         3.0841    0.0659   10.9781 O.3       1 RES1    0.0000
      2 O2         2.8446    1.7525    7.1423 O.3       1 RES1    0.0000
      3 O3         5.9616    1.4923    9.8604 O.3       1 RES1    0.0000
      4 O4         1.8310   -3.9633   15.6065 O.2       1 RES1    0.0000
      5 C1         1.7576    2.3240    6.5593 C.ar      1 RES1    0.0000
      6 O5        10.4422    5.0834   12.2333 O.2       1 RES1    0.0000
      7 C2         6.7410    2.5191   10.2778 C.ar      1 RES1    0.0000
      8 C3         4.0320    0.5149    8.8102 C.3       1 RES1    0.0000
      9 C4         7.9892    2.1612   10.7816 C.ar      1 RES1    0.0000
     10 H1         8.2319    1.2644   10.8131 H         1 RES1    0.0000
     11 O6         9.0660    6.6253   11.6289 O.2       1 RES1    0.0000
     12 N1         9.3988    5.4516   11.7157 N.pl3     1 RES1    0.0000
     13 C5         3.8525   -0.5174    9.9246 C.3       1 RES1    0.0000
     14 H2         3.3968   -1.3004    9.5786 H         1 RES1    0.0000
     15 H3         4.7190   -0.7931   10.2616 H         1 RES1    0.0000
     16 C6         6.3851    3.8622   10.2199 C.ar      1 RES1    0.0000
     17 H4         5.5606    4.1146    9.8731 H         1 RES1    0.0000
     18 C7         2.6471    0.8889    8.2648 C.3       1 RES1    0.0000
     19 H5         2.1676    0.0903    7.9933 H         1 RES1    0.0000
     20 H6         2.1285    1.3410    8.9482 H         1 RES1    0.0000
     21 C8         8.8643    3.1162   11.2319 C.ar      1 RES1    0.0000
     22 H7         9.7006    2.8753   11.5613 H         1 RES1    0.0000
     23 O7        -1.0700    4.9417    3.5367 O.2       1 RES1    0.0000
     24 C9         8.4850    4.4334   11.1884 C.ar      1 RES1    0.0000
     25 N2         1.6248   -2.7825   15.5232 N.pl3     1 RES1    0.0000
     26 C10        0.4540    2.1369    6.9647 C.ar      1 RES1    0.0000
     27 H8         0.2639    1.5956    7.6962 H         1 RES1    0.0000
     28 C11        4.6593    1.7989    9.3344 C.3       1 RES1    0.0000
     29 H9         4.7362    2.4475    8.6161 H         1 RES1    0.0000
     30 H10        4.1012    2.1795   10.0310 H         1 RES1    0.0000
     31 C12        2.7966   -0.6999   12.0702 C.ar      1 RES1    0.0000
     32 C13        2.0641   -2.0512   14.3402 C.ar      1 RES1    0.0000
     33 O8        -2.5000    3.9943    4.7975 O.2       1 RES1    0.0000
     34 C14        3.0544   -2.0589   12.1730 C.ar      1 RES1    0.0000
     35 H11        3.4796   -2.5103   11.4798 H         1 RES1    0.0000
     36 N3        -1.3541    4.2141    4.4691 N.pl3     1 RES1    0.0000
     37 C15       -0.5622    2.7590    6.2770 C.ar      1 RES1    0.0000
     38 H12       -1.4448    2.6359    6.5432 H         1 RES1    0.0000
     39 C16        7.2657    4.8145   10.6811 C.ar      1 RES1    0.0000
     40 H13        7.0361    5.7150   10.6502 H         1 RES1    0.0000
     41 C17        2.0420    3.1449    5.4755 C.ar      1 RES1    0.0000
     42 H14        2.9224    3.2694    5.2023 H         1 RES1    0.0000
     43 C18        2.2079   -0.0242   13.1296 C.ar      1 RES1    0.0000
     44 H15        2.0617    0.8910   13.0677 H         1 RES1    0.0000
     45 C19       -0.2787    3.5562    5.2019 C.ar      1 RES1    0.0000
     46 C20        2.6691   -2.7371   13.3230 C.ar      1 RES1    0.0000
     47 H16        2.8224   -3.6518   13.4010 H         1 RES1    0.0000
     48 C21        4.9299   -0.0981    7.7096 C.3       1 RES1    0.0000
     49 H17        5.0185    0.5525    6.9957 H         1 RES1    0.0000
     50 H18        5.8131   -0.2388    8.0847 H         1 RES1    0.0000
     51 C22        1.0213    3.7745    4.8062 C.ar      1 RES1    0.0000
     52 H19        1.2063    4.3428    4.0931 H         1 RES1    0.0000
     53 C23        1.8423   -0.6927   14.2608 C.ar      1 RES1    0.0000
     54 H20        1.4485   -0.2370   14.9701 H         1 RES1    0.0000
     55 O9         1.0133   -2.1719   16.3738 O.2       1 RES1    0.0000
     56 C24        4.4669   -1.3983    7.1022 C.3       1 RES1    0.0000
     57 H21        5.0960   -1.6822    6.4355 H         1 RES1    0.0000
     58 H22        3.6056   -1.2751    6.6974 H         1 RES1    0.0000
     59 H23        4.4046   -2.0681    7.7890 H         1 RES1    0.0000
@<TRIPOS>BOND
     1    1   13 1
     2    2    5 1
     3    3    7 1
     4    4   25 2
     5    5   26 ar
     6    6   12 2
     7    7    9 ar
     8    8   13 1
     9    9   10 1
    10   11   12 2
    11   12   24 1
    12   13   14 1
    13   15   13 1
    14   16    7 ar
    15   17   16 1
    16   18    2 1
    17   19   18 1
    18   20   18 1
    19   21    9 ar
    20   22   21 1
    21   23   36 2
    22   24   21 ar
    23   25   32 1
    24   26   27 1
    25   28    3 1
    26   29   28 1
    27   30   28 1
    28   31    1 1
    29   32   46 ar
    30   33   36 2
    31   34   31 ar
    32   35   34 1
    33   36   45 1
    34   37   26 ar
    35   38   37 1
    36   39   16 ar
    37   40   39 1
    38   41    5 ar
    39   42   41 1
    40   43   31 ar
    41   44   43 1
    42   45   37 ar
    43   46   34 ar
    44   47   46 1
    45   48    8 1
    46   49   48 1
    47   50   48 1
    48   51   41 ar
    49   52   51 1
    50   53   32 ar
    51   54   53 1
    52   55   25 2
    53   56   48 1
    54   57   56 1
    55   58   56 1
    56   59   56 1
    57    8   18 1
    58    8   28 1
    59   24   39 ar
    60   43   53 ar
    61   45   51 ar
@<TRIPOS>SUBSTRUCTURE
     1 RES1 1

@<TRIPOS>CRYSIN
   7.8731   12.5683   13.1155  97.5540 103.1840 102.8400   2 1

