# MOL2 file generated by ConQuest
# Please check atom types

@<TRIPOS>MOLECULE
IKAGEG
    69    74     1
SMALL
NO_CHARGES
****
Generated from CSD

@<TRIPOS>ATOM
      1 O1         1.5680    2.4911   -0.5665 O.3       1 RES1    0.0000
      2 O2         1.6867    0.3275    1.7078 O.3       1 RES1    0.0000
      3 O3         0.4827    3.6802    1.1241 O.3       1 RES1    0.0000
      4 N1        -0.3889    1.7143    0.4196 N.3       1 RES1    0.0000
      5 H1        -0.3166    1.0496   -0.2553 H         1 RES1    0.0000
      6 N2         2.8889    3.0038   -0.1597 N.3       1 RES1    0.0000
      7 C1         1.8592    1.7480    1.5601 C.3       1 RES1    0.0000
      8 C2         1.5833    1.1644    2.8841 C.3       1 RES1    0.0000
      9 C3         3.4102    4.2780    2.5030 C.ar      1 RES1    0.0000
     10 H2         2.5413    4.5208    2.1743 H         1 RES1    0.0000
     11 C4         0.8275    2.4092    0.6415 C.3       1 RES1    0.0000
     12 C5         3.2293    2.2251    1.0706 C.3       1 RES1    0.0000
     13 H3         3.7785    1.4577    0.8979 H         1 RES1    0.0000
     14 C6         0.2203    1.2336    3.5055 C.ar      1 RES1    0.0000
     15 C7        -0.9256    3.8856    0.9588 C.3       1 RES1    0.0000
     16 H4        -1.0936    4.7092    0.4926 H         1 RES1    0.0000
     17 H5        -1.3965    3.8898    1.7958 H         1 RES1    0.0000
     18 C8         5.8931    3.5528    3.4338 C.ar      1 RES1    0.0000
     19 H6         6.7640    3.3100    3.7552 H         1 RES1    0.0000
     20 C9         2.7106    0.9620    3.8752 C.ar      1 RES1    0.0000
     21 C10       -0.2638    2.4226    4.0192 C.ar      1 RES1    0.0000
     22 H7         0.2488    3.2305    3.9410 H         1 RES1    0.0000
     23 C11        2.9261    1.8805    4.8942 C.ar      1 RES1    0.0000
     24 H8         2.3470    2.6392    5.0002 H         1 RES1    0.0000
     25 C12        5.2357    2.7345    2.5052 C.ar      1 RES1    0.0000
     26 H9         5.6277    1.9255    2.1676 H         1 RES1    0.0000
     27 C13       -1.4248    2.7205    0.1057 C.3       1 RES1    0.0000
     28 C14        3.9818    3.1025    2.0377 C.ar      1 RES1    0.0000
     29 C15        3.7719    2.7742   -1.3404 C.3       1 RES1    0.0000
     30 C16        3.1506    3.5434   -2.5034 C.3       1 RES1    0.0000
     31 H10        3.0773    4.4706   -2.2683 H         1 RES1    0.0000
     32 H11        2.2779    3.1897   -2.6871 H         1 RES1    0.0000
     33 H12        3.7034    3.4534   -3.2849 H         1 RES1    0.0000
     34 C17        3.5434   -0.1423    3.7704 C.ar      1 RES1    0.0000
     35 H13        3.3981   -0.7765    3.0632 H         1 RES1    0.0000
     36 C18       -0.5432    0.0816    3.6286 C.ar      1 RES1    0.0000
     37 H14       -0.2145   -0.7430    3.2648 H         1 RES1    0.0000
     38 C19       -1.4518    3.0861   -1.3764 C.3       1 RES1    0.0000
     39 H15       -0.5848    3.4021   -1.6413 H         1 RES1    0.0000
     40 H16       -2.1016    3.7788   -1.5159 H         1 RES1    0.0000
     41 H17       -1.6860    2.3169   -1.9011 H         1 RES1    0.0000
     42 C20        4.0648    5.0650    3.4280 C.ar      1 RES1    0.0000
     43 H18        3.6563    5.8760    3.7395 H         1 RES1    0.0000
     44 C21       -2.7758    2.2196    0.5714 C.3       1 RES1    0.0000
     45 H19       -2.6981    1.9967    1.5025 H         1 RES1    0.0000
     46 H20       -3.0292    1.4379    0.0739 H         1 RES1    0.0000
     47 H21       -3.4448    2.8998    0.4613 H         1 RES1    0.0000
     48 C22        4.5816   -0.3139    4.6797 C.ar      1 RES1    0.0000
     49 H22        5.1387   -1.0957    4.6396 H         1 RES1    0.0000
     50 C23       -1.7694    0.1360    4.2686 C.ar      1 RES1    0.0000
     51 H23       -2.2985   -0.6614    4.3418 H         1 RES1    0.0000
     52 C24       -2.2375    1.2997    4.7843 C.ar      1 RES1    0.0000
     53 H24       -3.0997    1.2872    5.2084 H         1 RES1    0.0000
     54 C25        5.3013    4.6997    3.8888 C.ar      1 RES1    0.0000
     55 H25        5.7524    5.2460    4.5366 H         1 RES1    0.0000
     56 C26        3.9788    1.7058    5.7765 C.ar      1 RES1    0.0000
     57 H26        4.1444    2.3399    6.4780 H         1 RES1    0.0000
     58 C27        5.1146    3.3812   -0.9846 C.3       1 RES1    0.0000
     59 H27        4.9625    4.3031   -0.7636 H         1 RES1    0.0000
     60 H28        5.7157    3.3247   -1.7309 H         1 RES1    0.0000
     61 H29        5.4986    2.9301   -0.2284 H         1 RES1    0.0000
     62 C28       -1.4986    2.4540    4.6647 C.ar      1 RES1    0.0000
     63 H30       -1.8556    3.2566    5.0494 H         1 RES1    0.0000
     64 C29        4.7988    0.6028    5.6659 C.ar      1 RES1    0.0000
     65 H31        5.5421    0.4782    6.2608 H         1 RES1    0.0000
     66 C30        3.9176    1.2987   -1.7029 C.3       1 RES1    0.0000
     67 H32        3.0485    0.9513   -1.9190 H         1 RES1    0.0000
     68 H33        4.2803    0.8100   -0.9606 H         1 RES1    0.0000
     69 H34        4.4974    1.2045   -2.4631 H         1 RES1    0.0000
@<TRIPOS>BOND
     1    1    6 1
     2    2    7 1
     3    3   11 1
     4    4    5 1
     5    6   12 1
     6    7    8 1
     7    8    2 1
     8    9   10 1
     9   11    1 1
    10   12    7 1
    11   13   12 1
    12   14    8 1
    13   15    3 1
    14   16   15 1
    15   17   15 1
    16   18   19 1
    17   20    8 1
    18   21   14 ar
    19   22   21 1
    20   23   20 ar
    21   24   23 1
    22   25   18 ar
    23   26   25 1
    24   27    4 1
    25   28    9 ar
    26   29    6 1
    27   30   29 1
    28   31   30 1
    29   32   30 1
    30   33   30 1
    31   34   20 ar
    32   35   34 1
    33   36   14 ar
    34   37   36 1
    35   38   27 1
    36   39   38 1
    37   40   38 1
    38   41   38 1
    39   42    9 ar
    40   43   42 1
    41   44   27 1
    42   45   44 1
    43   46   44 1
    44   47   44 1
    45   48   34 ar
    46   49   48 1
    47   50   36 ar
    48   51   50 1
    49   52   50 ar
    50   53   52 1
    51   54   18 ar
    52   55   54 1
    53   56   23 ar
    54   57   56 1
    55   58   29 1
    56   59   58 1
    57   60   58 1
    58   61   58 1
    59   62   21 ar
    60   63   62 1
    61   64   48 ar
    62   65   64 1
    63   66   29 1
    64   67   66 1
    65   68   66 1
    66   69   66 1
    67    4   11 1
    68    7   11 1
    69   12   28 1
    70   15   27 1
    71   25   28 ar
    72   42   54 ar
    73   52   62 ar
    74   56   64 ar
@<TRIPOS>SUBSTRUCTURE
     1 RES1 1

@<TRIPOS>CRYSIN
  11.2723   10.4648   22.3924  90.0000  90.2830  90.0000 231 1

