# MOL2 file generated by ConQuest
# Please check atom types

@<TRIPOS>MOLECULE
IKALOW
    44    38     2
SMALL
NO_CHARGES
****
Generated from CSD

@<TRIPOS>ATOM
      1 O1        -1.4358    0.3396    0.1562 O.2       1 RES1    0.0000
      2 O2        -0.5650    2.2930    0.0788 O.2       1 RES1    0.0000
      3 O3        -0.2431   -0.0252    6.8771 O.2       1 RES1    0.0000
      4 O4         0.1661    4.8560    6.7541 O.2       1 RES1    0.0000
      5 O5         0.3706    6.0501    8.6171 O.3       1 RES1    0.0000
      6 N1        -0.9063    1.3071    0.6800 N.pl3     1 RES1    0.0000
      7 N2        -0.1022    2.2201    7.0292 N.am      1 RES1    0.0000
      8 H1        -0.0813    2.9315    6.5460 H         1 RES1    0.0000
      9 C1        -0.3706    1.1896    4.8600 C.ar      1 RES1    0.0000
     10 C2        -0.6069    0.0196    4.1426 C.ar      1 RES1    0.0000
     11 H2        -0.6553   -0.7925    4.5922 H         1 RES1    0.0000
     12 C3        -0.7697    0.0497    2.7784 C.ar      1 RES1    0.0000
     13 H3        -0.9306   -0.7330    2.3028 H         1 RES1    0.0000
     14 C4        -0.6905    1.2520    2.1325 C.ar      1 RES1    0.0000
     15 C5        -0.4334    2.4285    2.8009 C.ar      1 RES1    0.0000
     16 H4        -0.3641    3.2333    2.3391 H         1 RES1    0.0000
     17 C6        -0.2821    2.3851    4.1662 C.ar      1 RES1    0.0000
     18 H5        -0.1170    3.1728    4.6322 H         1 RES1    0.0000
     19 C7        -0.2331    1.0642    6.3448 C.2       1 RES1    0.0000
     20 C8         0.0049    2.4316    8.4044 C.ar      1 RES1    0.0000
     21 C9        -0.0740    1.3984    9.3372 C.ar      1 RES1    0.0000
     22 H6        -0.1880    0.5224    9.0463 H         1 RES1    0.0000
     23 C10        0.0149    1.6628   10.6821 C.ar      1 RES1    0.0000
     24 H7        -0.0543    0.9622   11.2897 H         1 RES1    0.0000
     25 C11        0.2036    2.9402   11.1458 C.ar      1 RES1    0.0000
     26 H8         0.2813    3.1028   12.0581 H         1 RES1    0.0000
     27 C12        0.2768    3.9738   10.2488 C.ar      1 RES1    0.0000
     28 H9         0.3957    4.8414   10.5613 H         1 RES1    0.0000
     29 C13        0.1773    3.7493    8.8807 C.ar      1 RES1    0.0000
     30 C14        0.2338    4.9114    7.9608 C.2       1 RES1    0.0000
     31 C15        0.5439    7.2556    7.8646 C.3       1 RES1    0.0000
     32 H10       -0.2462    7.4245    7.3277 H         1 RES1    0.0000
     33 H11        1.3038    7.1646    7.2683 H         1 RES1    0.0000
     34 C16        0.7702    8.3925    8.8039 C.3       1 RES1    0.0000
     35 H12        0.9767    9.1854    8.3021 H         1 RES1    0.0000
     36 H13        1.5015    8.1839    9.3893 H         1 RES1    0.0000
     37 H14       -0.0236    8.5412    9.3238 H         1 RES1    0.0000
     38 C17        0.2659    7.2929    7.8016 Du        2 SUP2    0.0000
     39 C18        0.2402    8.3432    8.8584 Du        2 SUP2    0.0000
     40 H15        1.0312    7.3983    7.2150 Du        2 SUP2    0.0000
     41 H16       -0.5478    7.3025    7.2731 Du        2 SUP2    0.0000
     42 H17        0.2774    9.2100    8.4476 Du        2 SUP2    0.0000
     43 H18        0.9964    8.2305    9.4390 Du        2 SUP2    0.0000
     44 H19       -0.5692    8.2647    9.3675 Du        2 SUP2    0.0000
@<TRIPOS>BOND
     1    1    6 2
     2    2    6 2
     3    3   19 2
     4    4   30 2
     5    5   30 1
     6    6   14 1
     7    7    8 1
     8    9   10 ar
     9   10   11 1
    10   12   10 ar
    11   13   12 1
    12   14   12 ar
    13   15   14 ar
    14   16   15 1
    15   17    9 ar
    16   18   17 1
    17   19    7 1
    18   20    7 1
    19   21   20 ar
    20   22   21 1
    21   23   21 ar
    22   24   23 1
    23   25   23 ar
    24   26   25 1
    25   27   25 ar
    26   28   27 1
    27   29   20 ar
    28   30   29 1
    29   31    5 1
    30   32   31 1
    31   33   31 1
    32   34   31 1
    33   35   34 1
    34   36   34 1
    35   37   34 1
    36    9   19 1
    37   15   17 ar
    38   27   29 ar
@<TRIPOS>SUBSTRUCTURE
     1 RES1 1
     2 SUP2 38

@<TRIPOS>CRYSIN
   6.9802    9.3570   12.5779 102.8330  94.2960 107.5670   2 1

