# MOL2 file generated by ConQuest
# Please check atom types

@<TRIPOS>MOLECULE
IKANUE
    16    16     1
SMALL
NO_CHARGES
****
Generated from CSD

@<TRIPOS>ATOM
      1 O1         1.7491    2.1964    9.6879 O.2       1 RES1    0.0000
      2 O2         2.7301    2.5231    7.2257 O.2       1 RES1    0.0000
      3 O3         4.5556    1.3703    6.9889 O.2       1 RES1    0.0000
      4 N1         2.5310    2.2520   12.3723 N.3       1 RES1    0.0000
      5 N2         3.9515    1.9655    9.0236 N.am      1 RES1    0.0000
      6 N3         3.7098    1.9442    7.6563 N.pl3     1 RES1    0.0000
      7 C1         3.1811    2.1365   13.5539 C.2       1 RES1    0.0000
      8 H1         2.7966    2.2566   14.4149 H         1 RES1    0.0000
      9 C2         4.4902    1.8170   13.2968 C.2       1 RES1    0.0000
     10 H2         5.1668    1.6660   13.9468 H         1 RES1    0.0000
     11 C3         4.6538    1.7525   11.9048 C.2       1 RES1    0.0000
     12 H3         5.4574    1.5601   11.4375 H         1 RES1    0.0000
     13 C4         3.4135    2.0248   11.3439 C.2       1 RES1    0.0000
     14 C5         2.9300    2.0681    9.9809 C.2       1 RES1    0.0000
     15 H4         1.6880    2.4528   12.2298 H         1 RES1    0.0000
     16 H5         4.7343    1.6137    9.1968 H         1 RES1    0.0000
@<TRIPOS>BOND
     1    1   14 2
     2    2    6 2
     3    3    6 2
     4    4    7 1
     5    5    6 1
     6    7    8 1
     7    9    7 2
     8   10    9 1
     9   11    9 1
    10   12   11 1
    11   13    4 1
    12   14    5 1
    13   15    4 1
    14   16    5 1
    15   11   13 2
    16   13   14 1
@<TRIPOS>SUBSTRUCTURE
     1 RES1 1

@<TRIPOS>CRYSIN
   9.9880    6.4547   19.1840  90.0000  90.0000  90.0000  61 1

