# MOL2 file generated by ConQuest
# Please check atom types

@<TRIPOS>MOLECULE
IKAPUH
    92    96     2
SMALL
NO_CHARGES
****
Generated from CSD

@<TRIPOS>ATOM
      1 C1         7.9206    8.6794    0.0447 C.2       1 RES1    0.0000
      2 C2         6.9800    7.8930    0.6058 C.2       1 RES1    0.0000
      3 C3         6.4124    6.6877   -0.0407 C.2       1 RES1    0.0000
      4 C4         6.8901    6.3325   -1.3682 C.ar      1 RES1    0.0000
      5 C5         6.3317    5.2464   -2.0564 C.ar      1 RES1    0.0000
      6 H1         5.6390    4.7567   -1.6772 H         1 RES1    0.0000
      7 C6         6.8155    4.9164   -3.2884 C.ar      1 RES1    0.0000
      8 H2         6.4550    4.1898   -3.7438 H         1 RES1    0.0000
      9 C7         7.8286    5.6448   -3.8648 C.ar      1 RES1    0.0000
     10 H3         8.1435    5.4058   -4.7065 H         1 RES1    0.0000
     11 C8         8.3954    6.7443   -3.1990 C.ar      1 RES1    0.0000
     12 H4         9.0790    7.2377   -3.5913 H         1 RES1    0.0000
     13 C9         7.9132    7.0768   -1.9476 C.ar      1 RES1    0.0000
     14 C10        8.4967    8.2626   -1.2452 C.2       1 RES1    0.0000
     15 C11        8.4291    9.8875    0.8061 C.3       1 RES1    0.0000
     16 H5         7.7268   10.1375    1.4414 H         1 RES1    0.0000
     17 C12        9.6531    9.4951    1.6325 C.ar      1 RES1    0.0000
     18 C13        9.4882    9.2007    2.9753 C.ar      1 RES1    0.0000
     19 H6         8.6463    9.2876    3.3616 H         1 RES1    0.0000
     20 C14       10.5580    8.7783    3.7540 C.ar      1 RES1    0.0000
     21 H7        10.4274    8.5685    4.6505 H         1 RES1    0.0000
     22 C15       11.8157    8.6724    3.1980 C.ar      1 RES1    0.0000
     23 H8        12.5337    8.3827    3.7133 H         1 RES1    0.0000
     24 C16       12.0006    9.0008    1.8633 C.ar      1 RES1    0.0000
     25 H9        12.8497    8.9490    1.4882 H         1 RES1    0.0000
     26 C17       10.9283    9.4053    1.0856 C.ar      1 RES1    0.0000
     27 H10       11.0616    9.6192    0.1901 H         1 RES1    0.0000
     28 C18        8.6968   11.1178   -0.0620 C.3       1 RES1    0.0000
     29 H11        9.3802   10.8762   -0.7217 H         1 RES1    0.0000
     30 C19        9.1821   12.3382    0.6739 C.3       1 RES1    0.0000
     31 H12        9.8938   12.0886    1.2849 H         1 RES1    0.0000
     32 H13        9.5399   12.9798    0.0407 H         1 RES1    0.0000
     33 C20        8.4441   13.6091    2.5118 C.2       1 RES1    0.0000
     34 C21        7.3236   14.4290    3.0434 C.3       1 RES1    0.0000
     35 H14        7.4703   14.6057    3.9756 H         1 RES1    0.0000
     36 H15        6.4975   13.9513    2.9347 H         1 RES1    0.0000
     37 H16        7.2787   15.2592    2.5636 H         1 RES1    0.0000
     38 N1         7.4485   11.5357   -0.8193 N.pl3     1 RES1    0.0000
     39 O1         6.4730    8.1887    1.8175 O.3       1 RES1    0.0000
     40 H17        6.1481    7.4523    2.0239 H         1 RES1    0.0000
     41 O2         5.5707    6.0234    0.6018 O.2       1 RES1    0.0000
     42 O3         9.4413    8.8488   -1.7413 O.2       1 RES1    0.0000
     43 O4         6.3547   11.1967   -0.3741 O.2       1 RES1    0.0000
     44 O5         7.6168   12.2063   -1.8155 O.2       1 RES1    0.0000
     45 O6         8.0975   12.9395    1.4130 O.3       1 RES1    0.0000
     46 O7         9.5335   13.5347    3.0099 O.2       1 RES1    0.0000
     47 C22        3.6938    2.2446    7.2782 C.2       2 RES2    0.0000
     48 C23        4.6650    2.8423    6.5565 C.2       2 RES2    0.0000
     49 C24        5.3931    4.0578    7.0078 C.2       2 RES2    0.0000
     50 C25        5.0602    4.6203    8.3181 C.ar      2 RES2    0.0000
     51 C26        5.7466    5.7370    8.7949 C.ar      2 RES2    0.0000
     52 H18        6.4269    6.1183    8.2876 H         2 RES2    0.0000
     53 C27        5.4156    6.2683   10.0055 C.ar      2 RES2    0.0000
     54 H19        5.8667    7.0164   10.3247 H         2 RES2    0.0000
     55 C28        4.3978    5.6854   10.7659 C.ar      2 RES2    0.0000
     56 H20        4.1695    6.0562   11.5883 H         2 RES2    0.0000
     57 C29        3.7286    4.5704   10.3166 C.ar      2 RES2    0.0000
     58 H21        3.0566    4.1883   10.8340 H         2 RES2    0.0000
     59 C30        4.0574    4.0168    9.0876 C.ar      2 RES2    0.0000
     60 C31        3.3462    2.8112    8.5936 C.2       2 RES2    0.0000
     61 C32        2.9129    1.0273    6.7913 C.3       2 RES2    0.0000
     62 H22        2.3654    0.7266    7.5466 H         2 RES2    0.0000
     63 C33        1.9452    1.3917    5.6701 C.ar      2 RES2    0.0000
     64 C34        0.6164    1.6489    5.9893 C.ar      2 RES2    0.0000
     65 H23        0.3414    1.5849    6.8757 H         2 RES2    0.0000
     66 C35       -0.3071    1.9961    5.0195 C.ar      2 RES2    0.0000
     67 H24       -1.1880    2.1689    5.2605 H         2 RES2    0.0000
     68 C36        0.0727    2.0885    3.7062 C.ar      2 RES2    0.0000
     69 H25       -0.5376    2.3500    3.0556 H         2 RES2    0.0000
     70 C37        1.3857    1.7830    3.3636 C.ar      2 RES2    0.0000
     71 H26        1.6443    1.8101    2.4701 H         2 RES2    0.0000
     72 C38        2.3055    1.4435    4.3242 C.ar      2 RES2    0.0000
     73 H27        3.1794    1.2457    4.0752 H         2 RES2    0.0000
     74 C39        3.8016   -0.1621    6.3918 C.3       2 RES2    0.0000
     75 H28        4.3173    0.0759    5.5929 H         2 RES2    0.0000
     76 C40        2.9722   -1.3836    6.1011 C.3       2 RES2    0.0000
     77 H29        2.5601   -1.7118    6.9153 H         2 RES2    0.0000
     78 H30        2.2724   -1.1705    5.4648 H         2 RES2    0.0000
     79 C41        3.3515   -3.1439    4.5763 C.2       2 RES2    0.0000
     80 C42        4.3850   -4.0358    3.9888 C.3       2 RES2    0.0000
     81 H31        4.0288   -4.4691    3.2101 H         2 RES2    0.0000
     82 H32        4.6410   -4.6989    4.6343 H         2 RES2    0.0000
     83 H33        5.1533   -3.5160    3.7418 H         2 RES2    0.0000
     84 N2         4.7488   -0.4688    7.5151 N.pl3     2 RES2    0.0000
     85 O8         5.0281    2.3946    5.3469 O.3       2 RES2    0.0000
     86 H34        5.5438    2.9726    5.0439 H         2 RES2    0.0000
     87 O9         6.2199    4.5484    6.2526 O.2       2 RES2    0.0000
     88 O10        2.4489    2.3065    9.2574 O.2       2 RES2    0.0000
     89 O11        5.9529   -0.2239    7.3291 O.2       2 RES2    0.0000
     90 O12        4.3015   -0.9266    8.5550 O.2       2 RES2    0.0000
     91 O13        3.8510   -2.3708    5.5583 O.3       2 RES2    0.0000
     92 O14        2.2038   -3.0625    4.2073 O.2       2 RES2    0.0000
@<TRIPOS>BOND
     1    1    2 2
     2    2    3 1
     3    3    4 1
     4    4    5 ar
     5    5    6 1
     6    7    5 ar
     7    8    7 1
     8    9    7 ar
     9   10    9 1
    10   11    9 ar
    11   12   11 1
    12   13    4 ar
    13   14    1 1
    14   15    1 1
    15   16   15 1
    16   17   15 1
    17   18   17 ar
    18   19   18 1
    19   20   18 ar
    20   21   20 1
    21   22   20 ar
    22   23   22 1
    23   24   22 ar
    24   25   24 1
    25   26   17 ar
    26   27   26 1
    27   28   15 1
    28   29   28 1
    29   30   28 1
    30   31   30 1
    31   32   30 1
    32   33   34 1
    33   34   35 1
    34   36   34 1
    35   37   34 1
    36   38   28 1
    37   39    2 1
    38   40   39 1
    39   41    3 2
    40   42   14 2
    41   43   38 2
    42   44   38 2
    43   45   30 1
    44   46   33 2
    45   47   48 2
    46   48   49 1
    47   49   50 1
    48   50   51 ar
    49   51   52 1
    50   53   51 ar
    51   54   53 1
    52   55   53 ar
    53   56   55 1
    54   57   55 ar
    55   58   57 1
    56   59   50 ar
    57   60   47 1
    58   61   47 1
    59   62   61 1
    60   63   61 1
    61   64   63 ar
    62   65   64 1
    63   66   64 ar
    64   67   66 1
    65   68   66 ar
    66   69   68 1
    67   70   68 ar
    68   71   70 1
    69   72   63 ar
    70   73   72 1
    71   74   61 1
    72   75   74 1
    73   76   74 1
    74   77   76 1
    75   78   76 1
    76   79   80 1
    77   80   81 1
    78   82   80 1
    79   83   80 1
    80   84   74 1
    81   85   48 1
    82   86   85 1
    83   87   49 2
    84   88   60 2
    85   89   84 2
    86   90   84 2
    87   91   76 1
    88   92   79 2
    89   11   13 ar
    90   13   14 1
    91   24   26 ar
    92   33   45 1
    93   57   59 ar
    94   59   60 1
    95   70   72 ar
    96   79   91 1
@<TRIPOS>SUBSTRUCTURE
     1 RES1 1
     2 RES2 47

@<TRIPOS>CRYSIN
   8.9140   10.5590   10.6874  82.7790  72.0660  70.2610   1 1

