# MOL2 file generated by ConQuest
# Please check atom types

@<TRIPOS>MOLECULE
IKAXEY
    33    33     1
SMALL
NO_CHARGES
****
Generated from CSD

@<TRIPOS>ATOM
      1 O1         6.9681    5.8360    0.5381 O.2       1 RES1    0.0000
      2 O2         7.0495    7.0968    2.2957 O.2       1 RES1    0.0000
      3 O3         6.6899    1.4135    4.8931 O.3       1 RES1    0.0000
      4 O4         9.2572    1.5993    5.7893 O.2       1 RES1    0.0000
      5 O5         8.5415    1.4155    7.9384 O.3       1 RES1    0.0000
      6 N1         6.9746    5.9939    1.7586 N.pl3     1 RES1    0.0000
      7 C1         6.8952    4.8071    2.6086 C.ar      1 RES1    0.0000
      8 C2         6.8189    4.9698    3.9776 C.ar      1 RES1    0.0000
      9 H1         6.8020    5.8397    4.3599 H         1 RES1    0.0000
     10 C3         6.7676    3.8455    4.7858 C.ar      1 RES1    0.0000
     11 H2         6.7162    3.9355    5.7297 H         1 RES1    0.0000
     12 C4         6.7917    2.5852    4.2021 C.ar      1 RES1    0.0000
     13 C5         6.8698    2.4464    2.8193 C.ar      1 RES1    0.0000
     14 H3         6.8904    1.5795    2.4311 H         1 RES1    0.0000
     15 C6         6.9183    3.5586    2.0117 C.ar      1 RES1    0.0000
     16 H4         6.9663    3.4716    1.0668 H         1 RES1    0.0000
     17 C7         6.9064    1.4124    6.3003 C.3       1 RES1    0.0000
     18 H5         6.5303    0.5839    6.6919 H         1 RES1    0.0000
     19 H6         6.4375    2.1840    6.7071 H         1 RES1    0.0000
     20 C8         8.3902    1.4952    6.6187 C.2       1 RES1    0.0000
     21 C9         9.8935    1.4627    8.5746 C.3       1 RES1    0.0000
     22 C10       10.7222    0.2765    8.1231 C.3       1 RES1    0.0000
     23 H7        10.9179    0.3598    7.1659 H         1 RES1    0.0000
     24 H8        10.2228   -0.5511    8.2839 H         1 RES1    0.0000
     25 H9        11.5629    0.2544    8.6272 H         1 RES1    0.0000
     26 C11        9.5435    1.3628   10.0460 C.3       1 RES1    0.0000
     27 H10        9.1079    0.5027   10.2203 H         1 RES1    0.0000
     28 H11        8.9350    2.0919   10.2868 H         1 RES1    0.0000
     29 H12       10.3616    1.4293   10.5821 H         1 RES1    0.0000
     30 C12       10.5606    2.7916    8.2605 C.3       1 RES1    0.0000
     31 H13       10.7597    2.8393    7.3021 H         1 RES1    0.0000
     32 H14       11.3939    2.8672    8.7710 H         1 RES1    0.0000
     33 H15        9.9591    3.5249    8.5062 H         1 RES1    0.0000
@<TRIPOS>BOND
     1    1    6 2
     2    2    6 2
     3    3   12 1
     4    4   20 2
     5    5   20 1
     6    6    7 1
     7    7    8 ar
     8    8    9 1
     9   10    8 ar
    10   11   10 1
    11   12   10 ar
    12   13   12 ar
    13   14   13 1
    14   15    7 ar
    15   16   15 1
    16   17    3 1
    17   18   17 1
    18   19   17 1
    19   20   17 1
    20   21    5 1
    21   22   21 1
    22   23   22 1
    23   24   22 1
    24   25   22 1
    25   26   21 1
    26   27   26 1
    27   28   26 1
    28   29   26 1
    29   30   21 1
    30   31   30 1
    31   32   30 1
    32   33   30 1
    33   13   15 ar
@<TRIPOS>SUBSTRUCTURE
     1 RES1 1

@<TRIPOS>CRYSIN
  19.2761   12.1131   11.7267  90.0000 111.6820  90.0000  15 1

