# MOL2 file generated by ConQuest
# Please check atom types

@<TRIPOS>MOLECULE
IKAYAV
    47    50     1
SMALL
NO_CHARGES
****
Generated from CSD

@<TRIPOS>ATOM
      1 O1         4.5153    2.7789   10.1602 O.3       1 RES1    0.0000
      2 O2         5.8565    9.3957   10.7971 O.2       1 RES1    0.0000
      3 O3         8.1822   10.4647    8.9530 O.3       1 RES1    0.0000
      4 O4        12.3186    8.2491    6.1088 O.2       1 RES1    0.0000
      5 O5        11.5011    8.1371    4.1357 O.2       1 RES1    0.0000
      6 N1         7.1144    7.6612    9.8406 N.am      1 RES1    0.0000
      7 N2        11.3842    8.1373    5.3529 N.pl3     1 RES1    0.0000
      8 C1         5.0818    6.4112   10.2896 C.ar      1 RES1    0.0000
      9 C2         4.4168    5.1990   10.3867 C.ar      1 RES1    0.0000
     10 C3         5.0667    4.0218   10.0920 C.ar      1 RES1    0.0000
     11 C4         6.3965    4.0594    9.6839 C.ar      1 RES1    0.0000
     12 C5         7.0651    5.2605    9.5903 C.ar      1 RES1    0.0000
     13 C6         6.4133    6.4400    9.9047 C.ar      1 RES1    0.0000
     14 C7         3.1473    2.6618   10.5220 C.3       1 RES1    0.0000
     15 C8         8.4636    7.9756    9.3256 C.3       1 RES1    0.0000
     16 C9         8.2241    9.4218    9.8897 C.3       1 RES1    0.0000
     17 C10        6.8358    8.9212   10.2734 C.2       1 RES1    0.0000
     18 C11        8.6300    7.8865    7.8380 C.ar      1 RES1    0.0000
     19 C12        9.8981    7.9515    7.2820 C.ar      1 RES1    0.0000
     20 C13       10.0352    7.9958    5.9227 C.ar      1 RES1    0.0000
     21 C14        8.9639    7.9487    5.0731 C.ar      1 RES1    0.0000
     22 C15        7.7019    7.8498    5.6187 C.ar      1 RES1    0.0000
     23 C16        7.5393    7.8378    6.9792 C.ar      1 RES1    0.0000
     24 C17        9.4021   10.9552    8.5038 C.ar      1 RES1    0.0000
     25 C18       10.6205   10.6423    9.0644 C.ar      1 RES1    0.0000
     26 C19       11.7801   11.1755    8.5130 C.ar      1 RES1    0.0000
     27 C20       11.7222   11.9868    7.4277 C.ar      1 RES1    0.0000
     28 C21       10.5090   12.2908    6.8717 C.ar      1 RES1    0.0000
     29 C22        9.3420   11.7861    7.4150 C.ar      1 RES1    0.0000
     30 H1         4.6363    7.2036   10.4827 H         1 RES1    0.0000
     31 H2         3.5260    5.1814   10.6526 H         1 RES1    0.0000
     32 H3         6.8375    3.2680    9.4724 H         1 RES1    0.0000
     33 H4         7.9538    5.2788    9.3164 H         1 RES1    0.0000
     34 H5         3.0113    3.0482   11.3900 H         1 RES1    0.0000
     35 H6         2.8996    1.7348   10.5416 H         1 RES1    0.0000
     36 H7         2.6049    3.1232    9.8770 H         1 RES1    0.0000
     37 H8         9.1694    7.4977    9.8088 H         1 RES1    0.0000
     38 H9         8.7851    9.6268   10.6664 H         1 RES1    0.0000
     39 H10       10.6494    7.9640    7.8299 H         1 RES1    0.0000
     40 H11        9.0836    7.9828    4.1508 H         1 RES1    0.0000
     41 H12        6.9598    7.7920    5.0616 H         1 RES1    0.0000
     42 H13        6.6811    7.7954    7.3352 H         1 RES1    0.0000
     43 H14       10.6676   10.0812    9.8042 H         1 RES1    0.0000
     44 H15       12.6054   10.9741    8.8933 H         1 RES1    0.0000
     45 H16       12.5030   12.3335    7.0613 H         1 RES1    0.0000
     46 H17       10.4690   12.8409    6.1238 H         1 RES1    0.0000
     47 H18        8.5199   12.0102    7.0428 H         1 RES1    0.0000
@<TRIPOS>BOND
     1    1   10 1
     2    2   17 2
     3    3   16 1
     4    4    7 2
     5    5    7 2
     6    6   13 1
     7    7   20 1
     8    8    9 ar
     9    9   10 ar
    10   10   11 ar
    11   11   12 ar
    12   12   13 ar
    13   13    8 ar
    14   14    1 1
    15   15    6 1
    16   16   15 1
    17   17    6 1
    18   18   15 1
    19   19   18 ar
    20   20   19 ar
    21   21   20 ar
    22   22   21 ar
    23   23   18 ar
    24   24    3 1
    25   25   24 ar
    26   26   25 ar
    27   27   26 ar
    28   28   27 ar
    29   29   24 ar
    30   30    8 1
    31   31    9 1
    32   32   11 1
    33   33   12 1
    34   34   14 1
    35   35   14 1
    36   36   14 1
    37   37   15 1
    38   38   16 1
    39   39   19 1
    40   40   21 1
    41   41   22 1
    42   42   23 1
    43   43   25 1
    44   44   26 1
    45   45   27 1
    46   46   28 1
    47   47   29 1
    48   16   17 1
    49   22   23 ar
    50   28   29 ar
@<TRIPOS>SUBSTRUCTURE
     1 RES1 1

@<TRIPOS>CRYSIN
   7.7934   11.2813   11.8818  77.7710  80.9480  71.0520   2 1

