# MOL2 file generated by ConQuest
# Please check atom types

@<TRIPOS>MOLECULE
IKEGOW
    64    60     2
SMALL
NO_CHARGES
****
Generated from CSD

@<TRIPOS>ATOM
      1 O1         5.5846    3.9906   11.1376 O.3       1 RES1    0.0000
      2 H1         6.3869    4.1494   11.3295 H         1 RES1    0.0000
      3 O2         4.6975    0.7208   13.0024 O.3       1 RES1    0.0000
      4 O3         5.6605   -4.3519   16.5351 O.3       1 RES1    0.0000
      5 O4         3.4201   -4.3389   16.6632 O.2       1 RES1    0.0000
      6 N1         5.1796    2.8192   11.7738 N.2       1 RES1    0.0000
      7 C1         2.8768    3.3208   10.9876 C.ar      1 RES1    0.0000
      8 C2         1.5828    3.3936   11.5034 C.ar      1 RES1    0.0000
      9 H2         1.3623    2.9453   12.3104 H         1 RES1    0.0000
     10 C3         0.6263    4.1227   10.8296 C.ar      1 RES1    0.0000
     11 H3        -0.2489    4.1713   11.1942 H         1 RES1    0.0000
     12 C4         0.8883    4.7926    9.6335 C.ar      1 RES1    0.0000
     13 C5        -0.2400    5.5649    8.9585 C.3       1 RES1    0.0000
     14 C6         0.1221    5.8811    7.4877 C.3       1 RES1    0.0000
     15 H4         0.1111    5.0484    6.9489 H         1 RES1    0.0000
     16 H5        -0.5356    6.5107    7.1036 H         1 RES1    0.0000
     17 C7         1.4908    6.4852    7.4708 C.3       1 RES1    0.0000
     18 H6         1.5287    7.2291    8.1256 H         1 RES1    0.0000
     19 H7         1.6702    6.8643    6.5720 H         1 RES1    0.0000
     20 C8         2.6056    5.4257    7.8229 C.3       1 RES1    0.0000
     21 C9         2.1845    4.7185    9.1039 C.ar      1 RES1    0.0000
     22 C10        3.1356    3.9705    9.7993 C.ar      1 RES1    0.0000
     23 H8         4.0095    3.9048    9.4328 H         1 RES1    0.0000
     24 C11        3.9230    2.5538   11.7006 C.2       1 RES1    0.0000
     25 C12        3.5296    1.3036   12.4440 C.3       1 RES1    0.0000
     26 H9         2.8867    1.5263   13.1633 H         1 RES1    0.0000
     27 H10        3.0959    0.6645   11.8248 H         1 RES1    0.0000
     28 C13       -1.3961    4.6273    8.6009 C.3       1 RES1    0.0000
     29 H11       -1.0717    3.9225    8.0024 H         1 RES1    0.0000
     30 H12       -2.1020    5.1367    8.1522 H         1 RES1    0.0000
     31 H13       -1.7532    4.2228    9.4183 H         1 RES1    0.0000
     32 C14       -0.7778    6.6327    9.8918 C.3       1 RES1    0.0000
     33 H14       -1.1945    6.2069   10.6698 H         1 RES1    0.0000
     34 H15       -1.4454    7.1735    9.4207 H         1 RES1    0.0000
     35 H16       -0.0411    7.2078   10.1890 H         1 RES1    0.0000
     36 C15        3.1068    4.4248    6.7936 C.3       1 RES1    0.0000
     37 H17        2.4136    3.7526    6.6252 H         1 RES1    0.0000
     38 H18        3.9143    3.9841    7.1326 H         1 RES1    0.0000
     39 H19        3.3173    4.8927    5.9583 H         1 RES1    0.0000
     40 C16        3.7371    6.4106    8.1288 C.3       1 RES1    0.0000
     41 H20        3.9898    6.8827    7.3089 H         1 RES1    0.0000
     42 H21        4.5113    5.9202    8.4760 H         1 RES1    0.0000
     43 H22        3.4349    7.0586    8.7973 H         1 RES1    0.0000
     44 C17        4.5652   -0.3832   13.7800 C.ar      1 RES1    0.0000
     45 C18        5.7556   -0.9672   14.1929 C.ar      1 RES1    0.0000
     46 H23        6.5839   -0.5834   13.9341 H         1 RES1    0.0000
     47 C19        5.7397   -2.0984   14.9757 C.ar      1 RES1    0.0000
     48 H24        6.5570   -2.5035   15.2364 H         1 RES1    0.0000
     49 C20        4.5240   -2.6533   15.3879 C.ar      1 RES1    0.0000
     50 C21        3.3304   -2.0599   14.9798 C.ar      1 RES1    0.0000
     51 H25        2.5000   -2.4318   15.2533 H         1 RES1    0.0000
     52 C22        3.3502   -0.9304   14.1784 C.ar      1 RES1    0.0000
     53 H26        2.5352   -0.5295   13.9003 H         1 RES1    0.0000
     54 C23        4.4363   -3.8532   16.2302 C.2       1 RES1    0.0000
     55 C24        5.6571   -5.4903   17.4190 C.3       1 RES1    0.0000
     56 H27        5.3253   -5.2184   18.3001 H         1 RES1    0.0000
     57 H28        6.5692   -5.8379   17.5076 H         1 RES1    0.0000
     58 H29        5.0759   -6.1879   17.0510 H         1 RES1    0.0000
     59 C25        0.4258    6.6037    7.9589 Du        2 SUP2    0.0000
     60 H30       -0.2815    7.0443    7.4249 Du        2 SUP2    0.0000
     61 H31        0.9004    7.2990    8.4784 Du        2 SUP2    0.0000
     62 C26        1.4197    5.8989    7.0142 Du        2 SUP2    0.0000
     63 H32        0.9812    5.1313    6.5720 Du        2 SUP2    0.0000
     64 H33        1.7208    6.5320    6.3111 Du        2 SUP2    0.0000
@<TRIPOS>BOND
     1    1    2 1
     2    3   25 1
     3    4   54 1
     4    5   54 2
     5    6    1 1
     6    7    8 ar
     7    8    9 1
     8   10    8 ar
     9   11   10 1
    10   12   10 ar
    11   13   12 1
    12   14   13 1
    13   15   14 1
    14   16   14 1
    15   17   14 1
    16   18   17 1
    17   19   17 1
    18   20   17 1
    19   21   12 ar
    20   22    7 ar
    21   23   22 1
    22   24    6 2
    23   25   24 1
    24   26   25 1
    25   27   25 1
    26   28   13 1
    27   29   28 1
    28   30   28 1
    29   31   28 1
    30   32   13 1
    31   33   32 1
    32   34   32 1
    33   35   32 1
    34   36   20 1
    35   37   36 1
    36   38   36 1
    37   39   36 1
    38   40   20 1
    39   41   40 1
    40   42   40 1
    41   43   40 1
    42   44    3 1
    43   45   44 ar
    44   46   45 1
    45   47   45 ar
    46   48   47 1
    47   49   47 ar
    48   50   49 ar
    49   51   50 1
    50   52   44 ar
    51   53   52 1
    52   54   49 1
    53   55    4 1
    54   56   55 1
    55   57   55 1
    56   58   55 1
    57    7   24 1
    58   20   21 1
    59   21   22 ar
    60   50   52 ar
@<TRIPOS>SUBSTRUCTURE
     1 RES1 1
     2 SUP2 59

@<TRIPOS>CRYSIN
  14.3226    5.9226   24.1937  90.0000  92.9430  90.0000  14 1

