# MOL2 file generated by ConQuest
# Please check atom types

@<TRIPOS>MOLECULE
IKEJUD
    45    49     1
SMALL
NO_CHARGES
****
Generated from CSD

@<TRIPOS>ATOM
      1 C1        -0.7132    2.4933    8.0576 C.3       1 RES1    0.0000
      2 H1        -1.5091    1.9364    7.8649 H         1 RES1    0.0000
      3 H2        -0.7125    2.7160    9.0220 H         1 RES1    0.0000
      4 C2         1.2718    2.7399    7.0939 C.ar      1 RES1    0.0000
      5 C3         2.5862    2.6334    6.7402 C.ar      1 RES1    0.0000
      6 H3         3.0850    1.8412    6.9005 H         1 RES1    0.0000
      7 C4         3.1578    3.7498    6.1315 C.ar      1 RES1    0.0000
      8 H4         4.0767    3.7220    5.8920 H         1 RES1    0.0000
      9 C5         2.4341    4.8928    5.8648 C.ar      1 RES1    0.0000
     10 C6         1.0734    4.9666    6.2379 C.ar      1 RES1    0.0000
     11 H5         0.5471    5.7410    6.0724 H         1 RES1    0.0000
     12 C7         0.5592    3.8603    6.8512 C.ar      1 RES1    0.0000
     13 C8         3.1386    6.0674    5.1937 C.3       1 RES1    0.0000
     14 H6         3.6060    5.7123    4.3838 H         1 RES1    0.0000
     15 C9         4.1925    6.7338    6.0737 C.3       1 RES1    0.0000
     16 H7         4.7891    6.0230    6.4456 H         1 RES1    0.0000
     17 C10        3.5090    7.4319    7.2250 C.2       1 RES1    0.0000
     18 C11        2.2651    8.1416    6.8804 C.2       1 RES1    0.0000
     19 C12        1.7290    7.9275    5.6856 C.2       1 RES1    0.0000
     20 H8         0.9613    8.4427    5.4663 H         1 RES1    0.0000
     21 C13        5.0577    7.7295    5.2878 C.3       1 RES1    0.0000
     22 H9         4.4821    8.3367    4.7583 H         1 RES1    0.0000
     23 H10        5.5999    8.2756    5.9108 H         1 RES1    0.0000
     24 C14        1.6177    9.0956    7.8188 C.ar      1 RES1    0.0000
     25 C15        2.3057   10.2363    8.2523 C.ar      1 RES1    0.0000
     26 H11        3.2362   10.3378    8.0933 H         1 RES1    0.0000
     27 C16        1.5929   11.1993    8.9130 C.ar      1 RES1    0.0000
     28 C17        0.2502   11.0480    9.1979 C.ar      1 RES1    0.0000
     29 C18       -0.4250    9.9156    8.8624 C.ar      1 RES1    0.0000
     30 H12       -1.3346    9.7953    9.1077 H         1 RES1    0.0000
     31 C19        0.2689    8.9330    8.1413 C.ar      1 RES1    0.0000
     32 H13       -0.1858    8.1445    7.8681 H         1 RES1    0.0000
     33 C20        0.8474   13.1238    9.7871 C.3       1 RES1    0.0000
     34 H14        0.9866   13.5532   10.6684 H         1 RES1    0.0000
     35 H15        0.6270   13.8262    9.1252 H         1 RES1    0.0000
     36 N1         3.9207    7.4827    8.4321 N.2       1 RES1    0.0000
     37 O1        -0.7471    3.6846    7.2782 O.3       1 RES1    0.0000
     38 O2         0.4837    1.7800    7.7143 O.3       1 RES1    0.0000
     39 O3         2.1630    7.0466    4.7401 O.3       1 RES1    0.0000
     40 O4         5.9051    6.9850    4.4260 O.3       1 RES1    0.0000
     41 O5         5.1239    6.7683    8.5930 O.3       1 RES1    0.0000
     42 O6        -0.2078   12.1644    9.8631 O.3       1 RES1    0.0000
     43 O7         2.0393   12.4069    9.3822 O.3       1 RES1    0.0000
     44 H16        5.3547    6.8619    9.4945 H         1 RES1    0.0000
     45 H17        6.0752    7.5445    3.8679 H         1 RES1    0.0000
@<TRIPOS>BOND
     1    1    2 1
     2    3    1 1
     3    4    5 ar
     4    5    6 1
     5    7    5 ar
     6    8    7 1
     7    9    7 ar
     8   10    9 ar
     9   11   10 1
    10   12    4 ar
    11   13    9 1
    12   14   13 1
    13   15   13 1
    14   16   15 1
    15   17   15 1
    16   18   17 1
    17   19   18 2
    18   20   19 1
    19   21   15 1
    20   22   21 1
    21   23   21 1
    22   24   18 1
    23   25   24 ar
    24   26   25 1
    25   27   25 ar
    26   28   27 ar
    27   29   28 ar
    28   30   29 1
    29   31   24 ar
    30   32   31 1
    31   33   34 1
    32   35   33 1
    33   36   17 2
    34   37    1 1
    35   38    1 1
    36   39   13 1
    37   40   21 1
    38   41   36 1
    39   42   28 1
    40   43   27 1
    41   44   41 1
    42   45   40 1
    43    4   38 1
    44   10   12 ar
    45   12   37 1
    46   19   39 1
    47   29   31 ar
    48   33   42 1
    49   33   43 1
@<TRIPOS>SUBSTRUCTURE
     1 RES1 1

@<TRIPOS>CRYSIN
   7.3943   17.9631    7.4227  90.0000 119.0370  90.0000   4 1

