# MOL2 file generated by ConQuest
# Please check atom types

@<TRIPOS>MOLECULE
IKIHAL
    34    32     3
SMALL
NO_CHARGES
****
Generated from CSD

@<TRIPOS>ATOM
      1 N1         8.4674    2.3427    2.2303 N.pl3     1 RES1    0.0000
      2 H1         8.7796    1.5371    2.3452 H         1 RES1    0.0000
      3 C1         7.2178    2.8048    2.4388 C.2       1 RES1    0.0000
      4 C2         6.1025    1.9603    2.9113 C.3       1 RES1    0.0000
      5 H2         5.2795    2.2132    2.4430 H         1 RES1    0.0000
      6 H3         5.9812    2.0885    3.8753 H         1 RES1    0.0000
      7 H4         6.3052    1.0191    2.7299 H         1 RES1    0.0000
      8 N2         7.1438    4.1062    2.1823 N.2       1 RES1    0.0000
      9 C3         8.3916    4.4698    1.8098 C.2       1 RES1    0.0000
     10 N3         8.6585    5.8532    1.4758 N.pl3     1 RES1    0.0000
     11 O1         7.8489    6.6856    1.8696 O.2       1 RES1    0.0000
     12 O2         9.6559    6.1094    0.8097 O.2       1 RES1    0.0000
     13 C4         9.2317    3.3911    1.8380 C.2       1 RES1    0.0000
     14 N4        10.6277    3.1873    1.5793 N.pl3     1 RES1    0.0000
     15 O3        11.3777    4.1528    1.5867 O.2       1 RES1    0.0000
     16 O4        10.9823    2.0296    1.3737 O.2       1 RES1    0.0000
     17 N5         5.1878    5.9544    3.0814 N.pl3     2 RES2    0.0000
     18 H5         5.7974    5.3260    2.7907 H         2 RES2    0.0000
     19 C5         4.5985    6.8689    2.2903 C.2       2 RES2    0.0000
     20 C6         4.7747    6.8998    0.8160 C.3       2 RES2    0.0000
     21 H6         5.6352    7.3146    0.5977 H         2 RES2    0.0000
     22 H7         4.0488    7.4194    0.4108 H         2 RES2    0.0000
     23 H8         4.7560    5.9844    0.4662 H         2 RES2    0.0000
     24 N6         3.8539    7.7099    3.0010 N.2       2 RES2    0.0000
     25 C7         3.9818    7.2981    4.2830 C.2       2 RES2    0.0000
     26 N7         3.2930    8.0401    5.3192 N.pl3     2 RES2    0.0000
     27 O5         2.8914    9.1543    5.0473 O.2       2 RES2    0.0000
     28 O6         3.0951    7.4738    6.4017 O.2       2 RES2    0.0000
     29 O7         2.2982    8.6619    4.9989 Du        3 SUP3    0.0000
     30 O8         3.8704    8.1715    6.4063 Du        3 SUP3    0.0000
     31 C8         4.8042    6.2042    4.3516 C.2       2 RES2    0.0000
     32 N8         5.2661    5.3425    5.4023 N.pl3     2 RES2    0.0000
     33 O9         4.8473    5.5014    6.5266 O.2       2 RES2    0.0000
     34 O10        6.0555    4.4598    5.0764 O.2       2 RES2    0.0000
@<TRIPOS>BOND
     1    1    2 1
     2    3    1 1
     3    4    3 1
     4    5    4 1
     5    6    4 1
     6    7    4 1
     7    8    3 2
     8    9    8 1
     9   10    9 1
    10   11   10 2
    11   12   10 2
    12   13    1 1
    13   14   13 1
    14   15   14 2
    15   16   14 2
    16   17   18 1
    17   19   17 1
    18   20   19 1
    19   21   20 1
    20   22   20 1
    21   23   20 1
    22   24   19 2
    23   25   24 1
    24   26   25 1
    25   27   26 2
    26   28   26 2
    27   31   17 1
    28   32   31 1
    29   33   32 2
    30   34   32 2
    31    9   13 2
    32   25   31 2
@<TRIPOS>SUBSTRUCTURE
     1 RES1 1
     2 RES2 17
     3 SUP3 29

@<TRIPOS>CRYSIN
   7.9962    8.2860   11.8913  70.7020  71.2050  72.9830   2 1

