# MOL2 file generated by ConQuest
# Please check atom types

@<TRIPOS>MOLECULE
IKOBER
    90    98     2
SMALL
NO_CHARGES
****
Generated from CSD

@<TRIPOS>ATOM
      1 C1        21.6319    5.0967    8.1062 C.ar      1 RES1    0.0000
      2 H1        22.5594    5.2417    7.9596 H         1 RES1    0.0000
      3 C2        20.8746    2.3990    5.6341 C.ar      1 RES1    0.0000
      4 H2        21.3025    1.8736    4.9676 H         1 RES1    0.0000
      5 C3        19.5025    2.1957    5.8935 C.ar      1 RES1    0.0000
      6 H3        19.0226    1.5405    5.4006 H         1 RES1    0.0000
      7 C4        18.8594    2.9312    6.8458 C.ar      1 RES1    0.0000
      8 H4        17.9350    2.7853    7.0124 H         1 RES1    0.0000
      9 C5        20.9811    5.8386    9.0581 C.ar      1 RES1    0.0000
     10 H5        21.4580    6.4876    9.5605 H         1 RES1    0.0000
     11 C6        19.6082    5.6406    9.2922 C.ar      1 RES1    0.0000
     12 H6        19.1604    6.1597    9.9498 H         1 RES1    0.0000
     13 C7        18.9165    4.7025    8.5769 C.ar      1 RES1    0.0000
     14 H7        17.9909    4.5754    8.7431 H         1 RES1    0.0000
     15 C8        19.5663    3.9153    7.5886 C.ar      1 RES1    0.0000
     16 C9        20.9529    4.1184    7.3352 C.ar      1 RES1    0.0000
     17 C10       21.6065    3.3376    6.3209 C.ar      1 RES1    0.0000
     18 N1        23.8448    2.9144    7.2050 N.3       1 RES1    0.0000
     19 O1        23.8695    1.5370    6.7616 O.3       1 RES1    0.0000
     20 C11       23.0877    3.5521    6.0782 C.3       1 RES1    0.0000
     21 H8        23.2827    4.5325    6.0591 H         1 RES1    0.0000
     22 C12       23.6915    2.8838    4.8218 C.3       1 RES1    0.0000
     23 H9        22.9854    2.6492    4.1684 H         1 RES1    0.0000
     24 H10       24.3521    3.4773    4.3843 H         1 RES1    0.0000
     25 C13       24.3684    1.6210    5.3858 C.3       1 RES1    0.0000
     26 H11       24.1091    0.8109    4.8609 H         1 RES1    0.0000
     27 C14       25.8722    1.7477    5.4822 C.3       1 RES1    0.0000
     28 H12       26.2451    1.9786    4.5953 H         1 RES1    0.0000
     29 H13       26.2622    0.8849    5.7681 H         1 RES1    0.0000
     30 C15       27.5413    3.2788    6.6499 C.ar      1 RES1    0.0000
     31 C16       27.8020    4.2874    7.5748 C.ar      1 RES1    0.0000
     32 H14       28.6950    4.5903    7.6843 H         1 RES1    0.0000
     33 C17       26.7927    4.8678    8.3459 C.ar      1 RES1    0.0000
     34 C18       25.4967    4.4022    8.1854 C.ar      1 RES1    0.0000
     35 H15       24.7939    4.7767    8.7042 H         1 RES1    0.0000
     36 C19       26.2262    2.8268    6.4830 C.ar      1 RES1    0.0000
     37 C20       28.6610    2.6941    5.8242 C.3       1 RES1    0.0000
     38 H16       28.6602    1.7183    5.9172 H         1 RES1    0.0000
     39 H17       29.5180    3.0509    6.1368 H         1 RES1    0.0000
     40 H18       28.5320    2.9331    4.8827 H         1 RES1    0.0000
     41 C21       27.1257    5.9363    9.3572 C.3       1 RES1    0.0000
     42 H19       27.5684    6.6857    8.9068 H         1 RES1    0.0000
     43 H20       27.7236    5.5652   10.0395 H         1 RES1    0.0000
     44 H21       26.3017    6.2519    9.7824 H         1 RES1    0.0000
     45 C22       25.2144    3.3900    7.2710 C.ar      1 RES1    0.0000
     46 C23        9.7512    8.1312    3.4167 C.ar      2 RES2    0.0000
     47 H22       10.2443    7.6370    4.0617 H         2 RES2    0.0000
     48 C24        8.3503    8.2124    3.5332 C.ar      2 RES2    0.0000
     49 H23        7.9110    7.7613    4.2448 H         2 RES2    0.0000
     50 C25        7.6163    8.9335    2.6325 C.ar      2 RES2    0.0000
     51 H24        6.6723    8.9879    2.7252 H         2 RES2    0.0000
     52 C26        8.2646    9.6027    1.5563 C.ar      2 RES2    0.0000
     53 C27        7.5306   10.3815    0.6229 C.ar      2 RES2    0.0000
     54 H25        6.5880   10.4609    0.7180 H         2 RES2    0.0000
     55 C28        8.1596   11.0192   -0.4109 C.ar      2 RES2    0.0000
     56 H26        7.6546   11.5385   -1.0248 H         2 RES2    0.0000
     57 C29        9.5539   10.9089   -0.5666 C.ar      2 RES2    0.0000
     58 H27        9.9843   11.3446   -1.2928 H         2 RES2    0.0000
     59 C30       10.2980   10.1743    0.3250 C.ar      2 RES2    0.0000
     60 H28       11.2396   10.1127    0.2098 H         2 RES2    0.0000
     61 C31        9.6798    9.5044    1.4191 C.ar      2 RES2    0.0000
     62 C32       10.4225    8.7520    2.3884 C.ar      2 RES2    0.0000
     63 N2        12.5351    8.0926    3.4998 N.3       2 RES2    0.0000
     64 O2        12.4893    6.6684    3.2268 O.3       2 RES2    0.0000
     65 C33       11.9328    8.6747    2.2727 C.3       2 RES2    0.0000
     66 H29       12.3010    9.5921    2.1236 H         2 RES2    0.0000
     67 C34       12.4199    7.7274    1.1289 C.3       2 RES2    0.0000
     68 H30       11.6606    7.4153    0.5749 H         2 RES2    0.0000
     69 H31       13.0799    8.1801    0.5470 H         2 RES2    0.0000
     70 C35       13.0637    6.5601    1.8972 C.3       2 RES2    0.0000
     71 H32       12.8094    5.6873    1.4796 H         2 RES2    0.0000
     72 C36       14.5765    6.6583    2.0382 C.3       2 RES2    0.0000
     73 H33       14.9356    5.8019    2.3831 H         2 RES2    0.0000
     74 H34       14.9842    6.8282    1.1509 H         2 RES2    0.0000
     75 C37       16.2708    8.1489    3.2076 C.ar      2 RES2    0.0000
     76 C38       16.5386    9.2484    4.0252 C.ar      2 RES2    0.0000
     77 H35       17.4431    9.4989    4.1769 H         2 RES2    0.0000
     78 C39       15.5223    9.9932    4.6280 C.ar      2 RES2    0.0000
     79 C40       14.2100    9.5839    4.4357 C.ar      2 RES2    0.0000
     80 H36       13.5009   10.0602    4.8524 H         2 RES2    0.0000
     81 C41       14.9385    7.7757    2.9837 C.ar      2 RES2    0.0000
     82 C42       17.3898    7.3917    2.5407 C.3       2 RES2    0.0000
     83 H37       18.2495    7.7731    2.8137 H         2 RES2    0.0000
     84 H38       17.2948    7.4603    1.5681 H         2 RES2    0.0000
     85 H39       17.3521    6.4490    2.8076 H         2 RES2    0.0000
     86 C43       15.8475   11.2042    5.4774 C.3       2 RES2    0.0000
     87 H40       15.0238   11.5503    5.8809 H         2 RES2    0.0000
     88 H41       16.2527   11.8974    4.9155 H         2 RES2    0.0000
     89 H42       16.4756   10.9483    6.1841 H         2 RES2    0.0000
     90 C44       13.9236    8.4799    3.6365 C.ar      2 RES2    0.0000
@<TRIPOS>BOND
     1    1    2 1
     2    3    4 1
     3    5    3 ar
     4    6    5 1
     5    7    5 ar
     6    8    7 1
     7    9    1 ar
     8   10    9 1
     9   11    9 ar
    10   12   11 1
    11   13   11 ar
    12   14   13 1
    13   15    7 ar
    14   16    1 ar
    15   17    3 ar
    16   18   19 1
    17   19   25 1
    18   20   17 1
    19   21   20 1
    20   22   20 1
    21   23   22 1
    22   24   22 1
    23   25   22 1
    24   26   25 1
    25   27   25 1
    26   28   27 1
    27   29   27 1
    28   30   31 ar
    29   31   32 1
    30   33   31 ar
    31   34   33 ar
    32   35   34 1
    33   36   27 1
    34   37   30 1
    35   38   37 1
    36   39   37 1
    37   40   37 1
    38   41   33 1
    39   42   41 1
    40   43   41 1
    41   44   41 1
    42   45   18 1
    43   46   47 1
    44   48   46 ar
    45   49   48 1
    46   50   48 ar
    47   51   50 1
    48   52   50 ar
    49   53   52 ar
    50   54   53 1
    51   55   53 ar
    52   56   55 1
    53   57   55 ar
    54   58   57 1
    55   59   57 ar
    56   60   59 1
    57   61   52 ar
    58   62   46 ar
    59   63   64 1
    60   64   70 1
    61   65   62 1
    62   66   65 1
    63   67   65 1
    64   68   67 1
    65   69   67 1
    66   70   67 1
    67   71   70 1
    68   72   70 1
    69   73   72 1
    70   74   72 1
    71   75   76 ar
    72   76   77 1
    73   78   76 ar
    74   79   78 ar
    75   80   79 1
    76   81   72 1
    77   82   75 1
    78   83   82 1
    79   84   82 1
    80   85   82 1
    81   86   78 1
    82   87   86 1
    83   88   86 1
    84   89   86 1
    85   90   63 1
    86   13   15 ar
    87   15   16 ar
    88   16   17 ar
    89   18   20 1
    90   30   36 ar
    91   34   45 ar
    92   36   45 ar
    93   59   61 ar
    94   61   62 ar
    95   63   65 1
    96   75   81 ar
    97   79   90 ar
    98   81   90 ar
@<TRIPOS>SUBSTRUCTURE
     1 RES1 1
     2 RES2 46

@<TRIPOS>CRYSIN
  24.8049   10.7126   12.1932  90.0000  95.9290  90.0000  14 1

