# MOL2 file generated by ConQuest
# Please check atom types

@<TRIPOS>MOLECULE
IKOBOB
    45    49     1
SMALL
NO_CHARGES
****
Generated from CSD

@<TRIPOS>ATOM
      1 N1         0.8908    2.7973    3.1252 N.3       1 RES1    0.0000
      2 O1         0.4951    1.5187    2.5818 O.3       1 RES1    0.0000
      3 C1         0.3269    2.7481    4.4947 C.3       1 RES1    0.0000
      4 H1         0.1536    3.6790    4.8162 H         1 RES1    0.0000
      5 C2        -1.0303    2.0032    4.3097 C.3       1 RES1    0.0000
      6 H2        -1.1346    1.2790    4.9765 H         1 RES1    0.0000
      7 H3        -1.7949    2.6282    4.3881 H         1 RES1    0.0000
      8 C3        -0.9205    1.4368    2.8875 C.3       1 RES1    0.0000
      9 H4        -1.2322    0.4875    2.8612 H         1 RES1    0.0000
     10 C4        -1.6450    2.2665    1.8394 C.3       1 RES1    0.0000
     11 H5        -1.6286    1.7938    0.9694 H         1 RES1    0.0000
     12 H6        -2.5900    2.3907    2.1065 H         1 RES1    0.0000
     13 C5        -1.5403    4.6330    0.9216 C.ar      1 RES1    0.0000
     14 C6        -0.9055    5.8682    0.8741 C.ar      1 RES1    0.0000
     15 H7        -1.2832    6.5651    0.3501 H         1 RES1    0.0000
     16 C7         0.2687    6.1041    1.5762 C.ar      1 RES1    0.0000
     17 H8         0.6686    6.9651    1.5446 H         1 RES1    0.0000
     18 C8         0.8707    5.0938    2.3291 C.ar      1 RES1    0.0000
     19 C9         1.2505    2.0458    5.4667 C.ar      1 RES1    0.0000
     20 C10        2.3888    1.4008    5.0506 C.ar      1 RES1    0.0000
     21 H9         2.6225    1.4133    4.1292 H         1 RES1    0.0000
     22 C11        3.2207    0.7172    5.9695 C.ar      1 RES1    0.0000
     23 H10        3.9961    0.2656    5.6576 H         1 RES1    0.0000
     24 C12        2.9180    0.7008    7.3006 C.ar      1 RES1    0.0000
     25 H11        3.4849    0.2414    7.9083 H         1 RES1    0.0000
     26 C13        1.7602    1.3664    7.7799 C.ar      1 RES1    0.0000
     27 C14        1.4345    1.3758    9.1601 C.ar      1 RES1    0.0000
     28 H12        2.0056    0.9321    9.7765 H         1 RES1    0.0000
     29 C15        0.3137    2.0118    9.6222 C.ar      1 RES1    0.0000
     30 H13        0.1138    2.0126   10.5503 H         1 RES1    0.0000
     31 C16       -0.5423    2.6673    8.7113 C.ar      1 RES1    0.0000
     32 H14       -1.3267    3.0986    9.0292 H         1 RES1    0.0000
     33 C17       -0.2517    2.6867    7.3684 C.ar      1 RES1    0.0000
     34 H15       -0.8352    3.1392    6.7712 H         1 RES1    0.0000
     35 C18       -2.8147    4.3939    0.1498 C.3       1 RES1    0.0000
     36 H16       -2.9590    5.1330   -0.4781 H         1 RES1    0.0000
     37 H17       -3.5689    4.3424    0.7723 H         1 RES1    0.0000
     38 H18       -2.7422    3.5525   -0.3472 H         1 RES1    0.0000
     39 C19        2.1268    5.3502    3.1159 C.3       1 RES1    0.0000
     40 H19        2.7461    4.6002    2.9965 H         1 RES1    0.0000
     41 H20        1.9038    5.4416    4.0659 H         1 RES1    0.0000
     42 H21        2.5480    6.1760    2.7979 H         1 RES1    0.0000
     43 C20        0.9092    2.0412    6.8581 C.ar      1 RES1    0.0000
     44 C21       -0.9747    3.6093    1.7018 C.ar      1 RES1    0.0000
     45 C22        0.2391    3.8452    2.3607 C.ar      1 RES1    0.0000
@<TRIPOS>BOND
     1    1    2 1
     2    2    8 1
     3    3    1 1
     4    4    3 1
     5    5    3 1
     6    6    5 1
     7    7    5 1
     8    8    5 1
     9    9    8 1
    10   10    8 1
    11   11   10 1
    12   12   10 1
    13   13   14 ar
    14   14   15 1
    15   16   14 ar
    16   17   16 1
    17   18   16 ar
    18   19    3 1
    19   20   19 ar
    20   21   20 1
    21   22   20 ar
    22   23   22 1
    23   24   22 ar
    24   25   24 1
    25   26   24 ar
    26   27   26 ar
    27   28   27 1
    28   29   27 ar
    29   30   29 1
    30   31   29 ar
    31   32   31 1
    32   33   31 ar
    33   34   33 1
    34   35   13 1
    35   36   35 1
    36   37   35 1
    37   38   35 1
    38   39   18 1
    39   40   39 1
    40   41   39 1
    41   42   39 1
    42   43   19 ar
    43   44   10 1
    44   45    1 1
    45   13   44 ar
    46   18   45 ar
    47   26   43 ar
    48   33   43 ar
    49   44   45 ar
@<TRIPOS>SUBSTRUCTURE
     1 RES1 1

@<TRIPOS>CRYSIN
   7.2201    7.8128   14.7409  90.0000  93.6900  90.0000   4 1

