# MOL2 file generated by ConQuest
# Please check atom types

@<TRIPOS>MOLECULE
IKUFUR
    48    52     2
SMALL
NO_CHARGES
****
Generated from CSD

@<TRIPOS>ATOM
      1 O1         2.7207   10.0230    5.4661 O.2       1 RES1    0.0000
      2 O2         1.4028    8.3028    5.4468 O.2       1 RES1    0.0000
      3 N1         4.2070    9.9233   10.4471 N.ar      1 RES1    0.0000
      4 N2         4.4879    7.2394   10.8364 N.ar      1 RES1    0.0000
      5 N3         2.2569    9.0037    5.9831 N.pl3     1 RES1    0.0000
      6 C1         4.0926   11.2227   10.2395 C.ar      1 RES1    0.0000
      7 H1         4.3806   11.8104   10.9283 H         1 RES1    0.0000
      8 C2         3.5744   11.7870    9.0706 C.ar      1 RES1    0.0000
      9 H2         3.5213   12.7309    8.9750 H         1 RES1    0.0000
     10 C3         3.1446   10.9625    8.0656 C.ar      1 RES1    0.0000
     11 H3         2.7887   11.3261    7.2630 H         1 RES1    0.0000
     12 C4         3.2380    9.5686    8.2390 C.ar      1 RES1    0.0000
     13 C5         2.7693    8.5879    7.2973 C.ar      1 RES1    0.0000
     14 C6         2.7758    7.2587    7.5397 C.ar      1 RES1    0.0000
     15 H4         2.4103    6.6557    6.9033 H         1 RES1    0.0000
     16 C7         3.3326    6.7651    8.7543 C.ar      1 RES1    0.0000
     17 C8         3.3859    5.3848    9.0274 C.ar      1 RES1    0.0000
     18 H5         3.0085    4.7562    8.4244 H         1 RES1    0.0000
     19 C9         3.9915    4.9683   10.1777 C.ar      1 RES1    0.0000
     20 H6         4.0399    4.0438   10.3923 H         1 RES1    0.0000
     21 C10        4.5407    5.9335   11.0377 C.ar      1 RES1    0.0000
     22 H7         4.9810    5.6264   11.8217 H         1 RES1    0.0000
     23 C11        3.8752    7.6627    9.7022 C.ar      1 RES1    0.0000
     24 C12        3.7808    9.0933    9.4605 C.ar      1 RES1    0.0000
     25 O3         3.3123    0.9615    2.1598 O.2       2 RES2    0.0000
     26 O4         2.2253    1.9778    0.6307 O.2       2 RES2    0.0000
     27 N4         4.4966    4.9711    5.3241 N.ar      2 RES2    0.0000
     28 N5         3.8746    7.1173    3.7902 N.ar      2 RES2    0.0000
     29 N6         2.8977    1.9850    1.6479 N.pl3     2 RES2    0.0000
     30 C13        4.9148    3.9379    6.0355 C.ar      2 RES2    0.0000
     31 H8         5.2793    4.1087    6.8960 H         2 RES2    0.0000
     32 C14        4.8542    2.6102    5.6011 C.ar      2 RES2    0.0000
     33 H9         5.2005    1.9079    6.1378 H         2 RES2    0.0000
     34 C15        4.2846    2.3439    4.3844 C.ar      2 RES2    0.0000
     35 H10        4.2062    1.4466    4.0830 H         2 RES2    0.0000
     36 C16        3.8138    3.4062    3.5796 C.ar      2 RES2    0.0000
     37 C17        3.1920    3.2872    2.2794 C.ar      2 RES2    0.0000
     38 C18        2.8230    4.3665    1.5477 C.ar      2 RES2    0.0000
     39 H11        2.4057    4.2373    0.7051 H         2 RES2    0.0000
     40 C19        3.0482    5.6869    2.0188 C.ar      2 RES2    0.0000
     41 C20        2.7101    6.8071    1.2353 C.ar      2 RES2    0.0000
     42 H12        2.2971    6.7059    0.3863 H         2 RES2    0.0000
     43 C21        2.9971    8.0474    1.7385 C.ar      2 RES2    0.0000
     44 H13        2.8071    8.8282    1.2314 H         2 RES2    0.0000
     45 C22        3.5742    8.1485    3.0095 C.ar      2 RES2    0.0000
     46 H14        3.7654    9.0197    3.3369 H         2 RES2    0.0000
     47 C23        3.6219    5.8840    3.2918 C.ar      2 RES2    0.0000
     48 C24        3.9803    4.7188    4.0944 C.ar      2 RES2    0.0000
@<TRIPOS>BOND
     1    1    5 2
     2    2    5 2
     3    3    6 ar
     4    4   21 ar
     5    5   13 1
     6    6    7 1
     7    8    6 ar
     8    9    8 1
     9   10    8 ar
    10   11   10 1
    11   12   10 ar
    12   13   12 ar
    13   14   13 ar
    14   15   14 1
    15   16   14 ar
    16   17   16 ar
    17   18   17 1
    18   19   17 ar
    19   20   19 1
    20   21   19 ar
    21   22   21 1
    22   23    4 ar
    23   24    3 ar
    24   25   29 2
    25   26   29 2
    26   27   30 ar
    27   28   45 ar
    28   29   37 1
    29   30   31 1
    30   32   30 ar
    31   33   32 1
    32   34   32 ar
    33   35   34 1
    34   36   34 ar
    35   37   36 ar
    36   38   37 ar
    37   39   38 1
    38   40   38 ar
    39   41   40 ar
    40   42   41 1
    41   43   41 ar
    42   44   43 1
    43   45   43 ar
    44   46   45 1
    45   47   28 ar
    46   48   27 ar
    47   12   24 ar
    48   16   23 ar
    49   23   24 ar
    50   36   48 ar
    51   40   47 ar
    52   47   48 ar
@<TRIPOS>SUBSTRUCTURE
     1 RES1 1
     2 RES2 25

@<TRIPOS>CRYSIN
   7.4690   10.4600   24.1580  90.0000  91.8280  90.0000 231 1

