# MOL2 file generated by ConQuest
# Please check atom types

@<TRIPOS>MOLECULE
ILADEF
    43    43     1
SMALL
NO_CHARGES
****
Generated from CSD

@<TRIPOS>ATOM
      1 O1        -5.8968    1.5716    1.9811 O.2       1 RES1    0.0000
      2 O2        -7.3866    3.0178    2.5894 O.2       1 RES1    0.0000
      3 O3        -0.9012    5.0874    8.8019 O.2       1 RES1    0.0000
      4 O4        -1.4116    7.2544    8.4291 O.3       1 RES1    0.0000
      5 O5         1.5318    6.9253    8.7507 O.3       1 RES1    0.0000
      6 O6         3.0514    7.4101    7.1623 O.2       1 RES1    0.0000
      7 N1        -6.2416    2.5802    2.5934 N.pl3     1 RES1    0.0000
      8 C1        -2.9765    3.4989    4.1284 C.ar      1 RES1    0.0000
      9 H1        -2.0836    3.2414    4.0822 H         1 RES1    0.0000
     10 C2        -3.9075    2.8683    3.3223 C.ar      1 RES1    0.0000
     11 H2        -3.6549    2.1849    2.7449 H         1 RES1    0.0000
     12 C3        -5.2223    3.2823    3.3979 C.ar      1 RES1    0.0000
     13 C4        -5.6354    4.2971    4.2418 C.ar      1 RES1    0.0000
     14 H3        -6.5245    4.5674    4.2607 H         1 RES1    0.0000
     15 C5        -4.6963    4.9001    5.0584 C.ar      1 RES1    0.0000
     16 H4        -4.9612    5.5701    5.6473 H         1 RES1    0.0000
     17 C6        -3.3542    4.5150    5.0092 C.ar      1 RES1    0.0000
     18 C7        -2.3938    5.1519    5.9358 C.2       1 RES1    0.0000
     19 H5        -2.6756    5.2590    6.8156 H         1 RES1    0.0000
     20 C8        -1.1649    5.5920    5.6464 C.2       1 RES1    0.0000
     21 C9        -0.6114    5.5777    4.2449 C.3       1 RES1    0.0000
     22 H6         0.0224    4.8623    4.1578 H         1 RES1    0.0000
     23 H7        -0.1760    6.4144    4.0644 H         1 RES1    0.0000
     24 H8        -1.3274    5.4486    3.6193 H         1 RES1    0.0000
     25 C10       -0.2869    6.1127    6.7177 C.2       1 RES1    0.0000
     26 C11       -0.8754    6.0773    8.1082 C.2       1 RES1    0.0000
     27 C12       -2.0493    7.3303    9.7442 C.3       1 RES1    0.0000
     28 H9        -1.4139    7.0955   10.4391 H         1 RES1    0.0000
     29 H10       -2.7961    6.7127    9.7904 H         1 RES1    0.0000
     30 C13       -2.5293    8.7357    9.9363 C.3       1 RES1    0.0000
     31 H11       -1.7858    9.3395    9.8734 H         1 RES1    0.0000
     32 H12       -2.9363    8.8201   10.8023 H         1 RES1    0.0000
     33 H13       -3.1735    8.9495    9.2572 H         1 RES1    0.0000
     34 C14        0.9660    6.5335    6.4944 C.2       1 RES1    0.0000
     35 H14        1.2450    6.5293    5.6074 H         1 RES1    0.0000
     36 C15        1.9538    7.0038    7.4806 C.2       1 RES1    0.0000
     37 C16        2.4786    7.3482    9.7768 C.3       1 RES1    0.0000
     38 H15        3.3771    7.0947    9.5144 H         1 RES1    0.0000
     39 H16        2.2714    6.9019   10.6134 H         1 RES1    0.0000
     40 C17        2.4141    8.8327    9.9720 C.3       1 RES1    0.0000
     41 H17        2.7197    9.2740    9.1753 H         1 RES1    0.0000
     42 H18        2.9735    9.0827   10.7110 H         1 RES1    0.0000
     43 H19        1.5082    9.0929   10.1536 H         1 RES1    0.0000
@<TRIPOS>BOND
     1    1    7 2
     2    2    7 2
     3    3   26 2
     4    4   26 1
     5    5   36 1
     6    6   36 2
     7    7   12 1
     8    8    9 1
     9   10    8 ar
    10   11   10 1
    11   12   10 ar
    12   13   12 ar
    13   14   13 1
    14   15   13 ar
    15   16   15 1
    16   17    8 ar
    17   18   17 1
    18   19   18 1
    19   20   18 2
    20   21   20 1
    21   22   21 1
    22   23   21 1
    23   24   21 1
    24   25   20 1
    25   26   25 1
    26   27    4 1
    27   28   27 1
    28   29   27 1
    29   30   27 1
    30   31   30 1
    31   32   30 1
    32   33   30 1
    33   34   25 2
    34   35   34 1
    35   36   34 1
    36   37    5 1
    37   38   37 1
    38   39   37 1
    39   40   37 1
    40   41   40 1
    41   42   40 1
    42   43   40 1
    43   15   17 ar
@<TRIPOS>SUBSTRUCTURE
     1 RES1 1

@<TRIPOS>CRYSIN
   8.8667    9.0480   11.1010 105.7100  98.6100  96.2900   2 1

