# MOL2 file generated by ConQuest
# Please check atom types

@<TRIPOS>MOLECULE
ILAFUW
    32    33     1
SMALL
NO_CHARGES
****
Generated from CSD

@<TRIPOS>ATOM
      1 O1        -3.3713    8.7144   11.7045 O.2       1 RES1    0.0000
      2 N1        -2.5596    9.5240   11.1588 N.pl3     1 RES1    0.0000
      3 C1        -1.9883   10.7359   11.8626 C.3       1 RES1    0.0000
      4 C2        -1.7673   10.4503   13.3165 C.3       1 RES1    0.0000
      5 H1        -2.5889   10.3052   13.6571 H         1 RES1    0.0000
      6 H2        -1.2200    9.6029   13.4308 H         1 RES1    0.0000
      7 H3        -1.3919   11.1754   13.6797 H         1 RES1    0.0000
      8 C3        -3.0104   11.8640   11.6951 C.3       1 RES1    0.0000
      9 H4        -2.6431   12.7785   12.1296 H         1 RES1    0.0000
     10 H5        -3.1545   12.1373   10.7152 H         1 RES1    0.0000
     11 H6        -3.8718   11.5419   12.1635 H         1 RES1    0.0000
     12 C4        -0.7262   10.9590   11.0094 C.3       1 RES1    0.0000
     13 C5         0.4253   10.0075   11.3986 C.3       1 RES1    0.0000
     14 H7         0.7984   10.2594   12.2993 H         1 RES1    0.0000
     15 H8        -0.0003    9.0381   11.6770 H         1 RES1    0.0000
     16 H9         1.0971   10.0304   10.6021 H         1 RES1    0.0000
     17 C6        -0.2361   12.3647   10.9042 C.3       1 RES1    0.0000
     18 H10        0.5178   12.4273   10.3758 H         1 RES1    0.0000
     19 H11       -0.0162   12.7479   11.7901 H         1 RES1    0.0000
     20 N2        -1.2273   10.4580    9.6899 N.pl3     1 RES1    0.0000
     21 O2        -0.7388   10.8124    8.5643 O.2       1 RES1    0.0000
     22 C7        -2.1591    9.5164    9.8789 C.2       1 RES1    0.0000
     23 N3        -3.9228    8.4481    8.5156 N.2       1 RES1    0.0000
     24 N4        -3.8934    7.6411    7.4316 N.2       1 RES1    0.0000
     25 N5        -2.6718    7.3614    7.0868 N.2       1 RES1    0.0000
     26 N6        -1.8744    7.9952    7.9603 N.pl3     1 RES1    0.0000
     27 C8        -0.4326    7.8549    7.9091 C.3       1 RES1    0.0000
     28 H12       -0.2423    7.5266    7.1850 H         1 RES1    0.0000
     29 H13       -0.1541    7.2060    8.4409 H         1 RES1    0.0000
     30 H14        0.0518    8.5648    8.3278 H         1 RES1    0.0000
     31 H15       -0.9846   12.9159   10.5229 H         1 RES1    0.0000
     32 C9        -2.6580    8.6564    8.8234 C.2       1 RES1    0.0000
@<TRIPOS>BOND
     1    1    2 1
     2    2    3 1
     3    3    4 1
     4    4    5 1
     5    6    4 1
     6    7    4 1
     7    8    3 1
     8    9    8 1
     9   10    8 1
    10   11    8 1
    11   12    3 1
    12   13   12 1
    13   14   13 1
    14   15   13 1
    15   16   13 1
    16   17   12 1
    17   18   17 1
    18   19   17 1
    19   20   12 1
    20   21   20 1
    21   22    2 1
    22   23   24 1
    23   24   25 2
    24   25   26 1
    25   26   27 1
    26   27   28 1
    27   29   27 1
    28   30   27 1
    29   31   17 1
    30   32   22 1
    31   20   22 2
    32   23   32 2
    33   26   32 1
@<TRIPOS>SUBSTRUCTURE
     1 RES1 1

@<TRIPOS>CRYSIN
   6.7880   15.2670   11.5390  90.0000 101.3100  90.0000 231 1

