# MOL2 file generated by ConQuest
# Please check atom types

@<TRIPOS>MOLECULE
ILEVUR
    72    72     2
SMALL
NO_CHARGES
****
Generated from CSD

@<TRIPOS>ATOM
      1 O1        10.7526    6.5457    6.0360 O.3       1 RES1    0.0000
      2 O2         9.7899    2.5357    5.1883 O.3       1 RES1    0.0000
      3 O3        10.9516    4.4922    2.3431 O.3       1 RES1    0.0000
      4 O4        13.8515    4.7841    4.0116 O.3       1 RES1    0.0000
      5 C1        15.2263    4.5940    4.3385 C.3       1 RES1    0.0000
      6 H1        15.3734    3.6996    4.7372 H         1 RES1    0.0000
      7 H2        15.5349    5.2839    4.9772 H         1 RES1    0.0000
      8 N1        10.7065    5.1419    5.6559 N.3       1 RES1    0.0000
      9 N2         8.2171    4.2146    7.1298 N.pl3     1 RES1    0.0000
     10 H3         8.8665    3.7084    7.4410 H         1 RES1    0.0000
     11 C2         9.3968    4.9005    5.0072 C.3       1 RES1    0.0000
     12 H4         9.2463    5.6256    4.3358 H         1 RES1    0.0000
     13 C3         9.7094    3.6202    4.2512 C.3       1 RES1    0.0000
     14 H5         9.0303    3.4397    3.5398 H         1 RES1    0.0000
     15 C4        11.0901    3.9186    3.6471 C.3       1 RES1    0.0000
     16 H6        11.6564    3.0948    3.6198 H         1 RES1    0.0000
     17 C5        11.6932    4.9686    4.5802 C.3       1 RES1    0.0000
     18 H7        11.7942    5.8310    4.0847 H         1 RES1    0.0000
     19 C6         9.7689    1.2321    4.5827 C.3       1 RES1    0.0000
     20 H8        10.0271    0.5599    5.2628 H         1 RES1    0.0000
     21 H9        10.4436    1.2041    3.8598 H         1 RES1    0.0000
     22 C7         8.4366    0.8567    4.0152 C.ar      1 RES1    0.0000
     23 C8         7.2567    1.2578    4.6075 C.ar      1 RES1    0.0000
     24 H10        7.2806    1.8217    5.3704 H         1 RES1    0.0000
     25 C9         6.0339    0.8407    4.0944 C.ar      1 RES1    0.0000
     26 H11        5.2255    1.1359    4.4972 H         1 RES1    0.0000
     27 C10        5.9925    0.0000    3.0018 C.ar      1 RES1    0.0000
     28 H12        5.1580   -0.2976    2.6583 H         1 RES1    0.0000
     29 C11        7.1559   -0.3987    2.4183 C.ar      1 RES1    0.0000
     30 H13        7.1291   -0.9794    1.6678 H         1 RES1    0.0000
     31 C12        8.3696    0.0297    2.9052 C.ar      1 RES1    0.0000
     32 H14        9.1712   -0.2455    2.4762 H         1 RES1    0.0000
     33 C13       10.8382    3.5023    1.3176 C.3       1 RES1    0.0000
     34 H15       10.1793    2.8140    1.5837 H         1 RES1    0.0000
     35 H16       11.7134    3.0595    1.1781 H         1 RES1    0.0000
     36 C14       10.3933    4.1769    0.0388 C.ar      1 RES1    0.0000
     37 C15       10.8828    3.7405   -1.1857 C.ar      1 RES1    0.0000
     38 H17       11.5344    3.0499   -1.2195 H         1 RES1    0.0000
     39 C16       10.4193    4.3149   -2.3583 C.ar      1 RES1    0.0000
     40 H18       10.7446    4.0028   -3.1949 H         1 RES1    0.0000
     41 C17        9.4961    5.3256   -2.3258 C.ar      1 RES1    0.0000
     42 H19        9.1930    5.7179   -3.1356 H         1 RES1    0.0000
     43 C18        9.0083    5.7748   -1.1215 C.ar      1 RES1    0.0000
     44 H20        8.3707    6.4783   -1.0953 H         1 RES1    0.0000
     45 C19        9.4538    5.1916    0.0537 C.ar      1 RES1    0.0000
     46 H21        9.1081    5.4941    0.8856 H         1 RES1    0.0000
     47 C20       13.0334    4.5684    5.1662 C.3       1 RES1    0.0000
     48 H22       13.3878    5.3577    5.6477 H         1 RES1    0.0000
     49 H23       12.8565    3.8729    5.8491 H         1 RES1    0.0000
     50 C21       15.9569    4.7216    3.0004 C.ar      1 RES1    0.0000
     51 C22       17.1702    4.1079    3.0045 C.ar      1 RES1    0.0000
     52 H24       17.4978    3.7181    3.8060 H         1 RES1    0.0000
     53 C23       17.9211    4.0477    1.8692 C.ar      1 RES1    0.0000
     54 H25       18.7643    3.6106    1.8885 H         1 RES1    0.0000
     55 C24       17.4855    4.6004    0.7146 C.ar      1 RES1    0.0000
     56 H26       18.0126    4.5443   -0.0745 H         1 RES1    0.0000
     57 C25       16.2716    5.2446    0.6980 C.ar      1 RES1    0.0000
     58 H27       15.9604    5.6489   -0.1035 H         1 RES1    0.0000
     59 C26       15.5160    5.3031    1.8251 C.ar      1 RES1    0.0000
     60 H28       14.6773    5.7484    1.8071 H         1 RES1    0.0000
     61 C27        8.2580    4.9125    5.9534 C.2       1 RES1    0.0000
     62 C28        7.0818    5.5823    5.8449 C.2       1 RES1    0.0000
     63 H29        6.8336    6.1647    5.1359 H         1 RES1    0.0000
     64 C29        6.2953    5.2622    6.9665 C.2       1 RES1    0.0000
     65 H30        5.4168    5.5767    7.1458 H         1 RES1    0.0000
     66 C30        7.0231    4.4192    7.7473 C.2       1 RES1    0.0000
     67 H31        6.7472    4.0421    8.5750 H         1 RES1    0.0000
     68 H32       10.9130    6.5297    6.9085 H         1 RES1    0.0000
     69 C31       14.9541    5.1700    4.0530 Du        2 SUP2    0.0000
     70 H33       15.4235    5.4467    4.8793 Du        2 SUP2    0.0000
     71 H34       14.4241    5.9369    3.7177 Du        2 SUP2    0.0000
     72 O5        14.1138    4.0670    4.3096 Du        2 SUP2    0.0000
@<TRIPOS>BOND
     1    1    8 1
     2    2   13 1
     3    3   15 1
     4    4    5 1
     5    5    6 1
     6    7    5 1
     7    8   11 1
     8    9   10 1
     9   11   12 1
    10   13   11 1
    11   14   13 1
    12   15   13 1
    13   16   15 1
    14   17    8 1
    15   18   17 1
    16   19    2 1
    17   20   19 1
    18   21   19 1
    19   22   19 1
    20   23   22 ar
    21   24   23 1
    22   25   23 ar
    23   26   25 1
    24   27   25 ar
    25   28   27 1
    26   29   27 ar
    27   30   29 1
    28   31   22 ar
    29   32   31 1
    30   33    3 1
    31   34   33 1
    32   35   33 1
    33   36   33 1
    34   37   36 ar
    35   38   37 1
    36   39   37 ar
    37   40   39 1
    38   41   39 ar
    39   42   41 1
    40   43   41 ar
    41   44   43 1
    42   45   36 ar
    43   46   45 1
    44   47    4 1
    45   48   47 1
    46   49   47 1
    47   50    5 1
    48   51   50 ar
    49   52   51 1
    50   53   51 ar
    51   54   53 1
    52   55   53 ar
    53   56   55 1
    54   57   55 ar
    55   58   57 1
    56   59   50 ar
    57   60   59 1
    58   61    9 1
    59   62   61 2
    60   63   62 1
    61   64   62 1
    62   65   64 1
    63   66    9 1
    64   67   66 1
    65   68    1 1
    66   11   61 1
    67   15   17 1
    68   17   47 1
    69   29   31 ar
    70   43   45 ar
    71   57   59 ar
    72   64   66 2
@<TRIPOS>SUBSTRUCTURE
     1 RES1 1
     2 SUP2 69

@<TRIPOS>CRYSIN
  11.7170    8.0217   13.9340  90.0000  98.1000  90.0000   4 1

