# MOL2 file generated by ConQuest
# Please check atom types

@<TRIPOS>MOLECULE
ILIDEM
    67    62     2
SMALL
NO_CHARGES
****
Generated from CSD

@<TRIPOS>ATOM
      1 O1         2.9642    4.7430   13.6683 O.3       1 RES1    0.0000
      2 O2         4.4243    6.5557   10.9919 O.3       1 RES1    0.0000
      3 O3         2.7074    8.0421   10.8501 O.3       1 RES1    0.0000
      4 O4         3.7445    6.9513   13.7962 O.3       1 RES1    0.0000
      5 O5         0.4680    8.5315   13.6489 O.3       1 RES1    0.0000
      6 H1        -0.2017    8.2102   13.7809 H         1 RES1    0.0000
      7 O6         1.4399   10.3377   16.3191 O.2       1 RES1    0.0000
      8 O7         3.2962    9.7677   15.2337 O.3       1 RES1    0.0000
      9 O8         0.8012    5.5912   16.5291 O.2       1 RES1    0.0000
     10 O9        -4.6176    2.4092   20.5737 O.2       1 RES1    0.0000
     11 O10       -3.0097    1.1145   20.0100 O.2       1 RES1    0.0000
     12 N1         0.5843    7.8344   16.5082 N.am      1 RES1    0.0000
     13 H2         0.2230    8.5296   16.8012 H         1 RES1    0.0000
     14 N2        -0.8500    6.5844   17.7811 N.am      1 RES1    0.0000
     15 H3        -1.1961    7.4064   17.9586 H         1 RES1    0.0000
     16 N3        -3.5243    2.2205   20.0524 N.pl3     1 RES1    0.0000
     17 C1         3.8339    5.6890   13.1301 C.3       1 RES1    0.0000
     18 H4         4.7749    5.3511   13.1278 H         1 RES1    0.0000
     19 C2         3.3619    5.9760   11.7350 C.3       1 RES1    0.0000
     20 H5         2.9698    5.1736   11.2865 H         1 RES1    0.0000
     21 C3         2.3625    7.1209   11.8719 C.3       1 RES1    0.0000
     22 H6         1.4192    6.8030   11.7802 H         1 RES1    0.0000
     23 C4         2.6293    7.7088   13.2585 C.3       1 RES1    0.0000
     24 H7         2.9114    8.6623   13.1534 H         1 RES1    0.0000
     25 C5         1.4265    7.6551   14.1971 C.3       1 RES1    0.0000
     26 H8         1.0551    6.7268   14.1907 H         1 RES1    0.0000
     27 C6         1.7450    8.0527   15.6553 C.3       1 RES1    0.0000
     28 H9         2.5035    7.4923   15.9876 H         1 RES1    0.0000
     29 C7         2.1181    9.5110   15.7814 C.2       1 RES1    0.0000
     30 C8         3.5074   11.2577   15.1425 C.3       1 RES1    0.0000
     31 H10        2.6507   11.7082   14.9332 H         1 RES1    0.0000
     32 H11        3.8412   11.6064   16.0054 H         1 RES1    0.0000
     33 C9         3.9698   11.0771   15.3285 Du        2 SUP2    0.0000
     34 H12        4.9569   10.9984   15.3285 Du        2 SUP2    0.0000
     35 H13        3.6687   11.6064   16.1087 Du        2 SUP2    0.0000
     36 C10        4.4788   11.5277   14.0884 C.3       1 RES1    0.0000
     37 H14        4.7985   12.4504   14.1659 H         1 RES1    0.0000
     38 H15        4.0558   11.4012   13.2125 H         1 RES1    0.0000
     39 H16        5.2362   10.9105   14.1762 H         1 RES1    0.0000
     40 C11        3.4338   11.6017   14.0341 Du        2 SUP2    0.0000
     41 H17        3.8934   12.4350   13.8042 Du        2 SUP2    0.0000
     42 H18        2.4737   11.7746   14.1245 Du        2 SUP2    0.0000
     43 H19        3.5844   10.9398   13.3262 Du        2 SUP2    0.0000
     44 C12        3.3204    4.3373   14.9973 C.3       1 RES1    0.0000
     45 H20        2.8563    3.5026   15.2200 H         1 RES1    0.0000
     46 H21        3.0585    5.0348   15.6334 H         1 RES1    0.0000
     47 H22        4.2884    4.1954   15.0469 H         1 RES1    0.0000
     48 C13        3.8485    7.5545   10.1626 C.3       1 RES1    0.0000
     49 C14        4.8204    8.6870   10.0166 C.3       1 RES1    0.0000
     50 H23        5.0463    9.0388   10.9028 H         1 RES1    0.0000
     51 H24        4.4165    9.3968    9.4766 H         1 RES1    0.0000
     52 H25        5.6345    8.3645    9.5774 H         1 RES1    0.0000
     53 C15        3.4063    6.9820    8.8245 C.3       1 RES1    0.0000
     54 H26        2.7776    6.2460    8.9757 H         1 RES1    0.0000
     55 H27        4.1884    6.6503    8.3373 H         1 RES1    0.0000
     56 H28        2.9670    7.6841    8.2985 H         1 RES1    0.0000
     57 C16        0.2354    6.5974   16.9081 C.2       1 RES1    0.0000
     58 C17       -1.4619    5.4614   18.3322 C.ar      1 RES1    0.0000
     59 C18       -2.6406    5.6628   19.0600 C.ar      1 RES1    0.0000
     60 H29       -2.9760    6.5454   19.1672 H         1 RES1    0.0000
     61 C19       -3.3159    4.6197   19.6175 C.ar      1 RES1    0.0000
     62 H30       -4.1232    4.7694   20.0960 H         1 RES1    0.0000
     63 C20       -2.8147    3.3495   19.4785 C.ar      1 RES1    0.0000
     64 C21       -1.6433    3.1168   18.8213 C.ar      1 RES1    0.0000
     65 H31       -1.2961    2.2342   18.7655 H         1 RES1    0.0000
     66 C22       -0.9630    4.1678   18.2363 C.ar      1 RES1    0.0000
     67 H32       -0.1523    4.0059   17.7679 H         1 RES1    0.0000
@<TRIPOS>BOND
     1    1   17 1
     2    2   19 1
     3    3   21 1
     4    4   17 1
     5    5    6 1
     6    7   29 2
     7    8   29 1
     8    9   57 2
     9   10   16 2
    10   11   16 2
    11   12   13 1
    12   14   15 1
    13   16   63 1
    14   17   18 1
    15   19   17 1
    16   20   19 1
    17   21   19 1
    18   22   21 1
    19   23    4 1
    20   24   23 1
    21   25    5 1
    22   26   25 1
    23   27   12 1
    24   28   27 1
    25   29   27 1
    26   30    8 1
    27   31   30 1
    28   32   30 1
    29   36   30 1
    30   37   36 1
    31   38   36 1
    32   39   36 1
    33   44    1 1
    34   45   44 1
    35   46   44 1
    36   47   44 1
    37   48    2 1
    38   49   48 1
    39   50   49 1
    40   51   49 1
    41   52   49 1
    42   53   48 1
    43   54   53 1
    44   55   53 1
    45   56   53 1
    46   57   12 1
    47   58   14 1
    48   59   58 ar
    49   60   59 1
    50   61   59 ar
    51   62   61 1
    52   63   61 ar
    53   64   63 ar
    54   65   64 1
    55   66   58 ar
    56   67   66 1
    57    3   48 1
    58   14   57 1
    59   21   23 1
    60   23   25 1
    61   25   27 1
    62   64   66 ar
@<TRIPOS>SUBSTRUCTURE
     1 RES1 1
     2 SUP2 33

@<TRIPOS>CRYSIN
   5.6182   15.4299   25.8360  90.0000  90.0000  90.0000  19 1

