# MOL2 file generated by ConQuest
# Please check atom types

@<TRIPOS>MOLECULE
ILISON
    33    34     1
SMALL
NO_CHARGES
****
Generated from CSD

@<TRIPOS>ATOM
      1 N1        11.1554    1.9910   10.0508 N.pl3     1 RES1    0.0000
      2 O1        12.1280    2.9185   10.3884 O.3       1 RES1    0.0000
      3 C1        12.9823    3.1563    9.2524 C.3       1 RES1    0.0000
      4 H1        13.3770    2.3090    8.9573 H         1 RES1    0.0000
      5 H2        13.6965    3.7785    9.5040 H         1 RES1    0.0000
      6 H3        12.4557    3.5415    8.5213 H         1 RES1    0.0000
      7 C2        11.3494    0.6449   10.1501 C.2       1 RES1    0.0000
      8 H4        12.1208    0.2044   10.4859 H         1 RES1    0.0000
      9 C3        10.2148    0.0583    9.6724 C.2       1 RES1    0.0000
     10 H5        10.0436   -0.8750    9.6334 H         1 RES1    0.0000
     11 C4         9.3363    1.0834    9.2444 C.2       1 RES1    0.0000
     12 C5         9.9533    2.3110    9.4819 C.2       1 RES1    0.0000
     13 C6         7.9965    0.8098    8.7295 C.2       1 RES1    0.0000
     14 O2         7.5235   -0.3124    8.6383 O.2       1 RES1    0.0000
     15 O3         7.3291    1.9102    8.3742 O.3       1 RES1    0.0000
     16 C7         6.0172    1.7253    7.7778 C.3       1 RES1    0.0000
     17 H6         5.3965    1.3115    8.4291 H         1 RES1    0.0000
     18 H7         6.0791    1.1387    6.9829 H         1 RES1    0.0000
     19 C8         5.5318    3.0803    7.3879 C.3       1 RES1    0.0000
     20 H8         5.4998    3.6570    8.1792 H         1 RES1    0.0000
     21 H9         4.6331    3.0072    7.0015 H         1 RES1    0.0000
     22 H10        6.1404    3.4674    6.7251 H         1 RES1    0.0000
     23 C9         9.5300    3.7203    9.2967 C.ar      1 RES1    0.0000
     24 C10        9.4897    4.5854   10.3884 C.ar      1 RES1    0.0000
     25 H11        9.7663    4.2832   11.2445 H         1 RES1    0.0000
     26 C11        9.0455    5.8910   10.2245 C.ar      1 RES1    0.0000
     27 H12        9.0102    6.4766   10.9715 H         1 RES1    0.0000
     28 C12        8.6508    6.3403    8.9750 C.ar      1 RES1    0.0000
     29 H13        8.3416    7.2311    8.8642 H         1 RES1    0.0000
     30 C13        8.7090    5.4871    7.8912 C.ar      1 RES1    0.0000
     31 H14        8.4445    5.7952    7.0326 H         1 RES1    0.0000
     32 C14        9.1502    4.1854    8.0507 C.ar      1 RES1    0.0000
     33 H15        9.1918    3.6057    7.2993 H         1 RES1    0.0000
@<TRIPOS>BOND
     1    1    2 1
     2    2    3 1
     3    3    4 1
     4    5    3 1
     5    6    3 1
     6    7    1 1
     7    8    7 1
     8    9    7 2
     9   10    9 1
    10   11    9 1
    11   12    1 1
    12   13   11 1
    13   14   13 2
    14   15   13 1
    15   16   15 1
    16   17   16 1
    17   18   16 1
    18   19   16 1
    19   20   19 1
    20   21   19 1
    21   22   19 1
    22   23   12 1
    23   24   23 ar
    24   25   24 1
    25   26   24 ar
    26   27   26 1
    27   28   26 ar
    28   29   28 1
    29   30   28 ar
    30   31   30 1
    31   32   23 ar
    32   33   32 1
    33   11   12 2
    34   30   32 ar
@<TRIPOS>SUBSTRUCTURE
     1 RES1 1

@<TRIPOS>CRYSIN
  14.5790    9.8759    9.0753  90.0000 102.4590  90.0000  14 1

