# MOL2 file generated by ConQuest
# Please check atom types

@<TRIPOS>MOLECULE
ILISIH
   201   190     6
SMALL
NO_CHARGES
****
Generated from CSD

@<TRIPOS>ATOM
      1 N1        -2.5507   13.9460    8.0161 N.pl3     1 RES1    0.0000
      2 O1        -3.0413   13.2796    8.9033 O.2       1 RES1    0.0000
      3 O2        -2.6056   15.1842    7.9890 O.2       1 RES1    0.0000
      4 C1        -1.8642   13.2621    6.9158 C.ar      1 RES1    0.0000
      5 C2        -1.7500   11.8901    6.9684 C.ar      1 RES1    0.0000
      6 H1        -2.1138   11.3983    7.6964 H         1 RES1    0.0000
      7 C3        -1.0928   11.2441    5.9341 C.ar      1 RES1    0.0000
      8 H2        -1.0046   10.2983    5.9523 H         1 RES1    0.0000
      9 C4        -0.5585   11.9614    4.8695 C.ar      1 RES1    0.0000
     10 C5        -0.7050   13.3480    4.8424 C.ar      1 RES1    0.0000
     11 H3        -0.3532   13.8456    4.1157 H         1 RES1    0.0000
     12 C6        -1.3623   14.0042    5.8707 C.ar      1 RES1    0.0000
     13 H4        -1.4652   14.9485    5.8532 H         1 RES1    0.0000
     14 C7         0.0784   11.2412    3.7897 C.2       1 RES1    0.0000
     15 N2         0.1204    9.9724    3.5760 N.2       1 RES1    0.0000
     16 C8         0.7989    9.7935    2.3644 C.2       1 RES1    0.0000
     17 C9         1.1144   11.0418    1.8947 C.2       1 RES1    0.0000
     18 O3         0.6798   11.9768    2.7826 O.3       1 RES1    0.0000
     19 C10        0.9096    8.4345    1.8098 C.2       1 RES1    0.0000
     20 C11       -0.0041    7.3884    2.3849 C.3       1 RES1    0.0000
     21 H5        -0.0484    6.6231    1.7738 H         1 RES1    0.0000
     22 H6        -0.9018    7.7667    2.5005 H         1 RES1    0.0000
     23 H7         0.3429    7.0945    3.2536 H         1 RES1    0.0000
     24 N3         1.7066    8.0198    0.8948 N.2       1 RES1    0.0000
     25 O4         2.5983    9.0356    0.5027 O.3       1 RES1    0.0000
     26 C12        3.1530    8.6993   -0.7501 C.3       1 RES1    0.0000
     27 H8         3.6494    7.8583   -0.6738 H         1 RES1    0.0000
     28 H9         3.7589    9.4123   -1.0405 H         1 RES1    0.0000
     29 H10        2.4345    8.5946   -1.4071 H         1 RES1    0.0000
     30 O5         1.6523   11.4772    0.7729 O.3       1 RES1    0.0000
     31 C13        2.1947   12.8271    0.7644 C.3       1 RES1    0.0000
     32 H11        2.7498   12.9813    1.5690 H         1 RES1    0.0000
     33 H12        1.4614   13.4935    0.7531 H         1 RES1    0.0000
     34 C14        3.0293   12.9479   -0.4733 C.3       1 RES1    0.0000
     35 H13        3.7429   12.2786   -0.4525 H         1 RES1    0.0000
     36 H14        3.4215   13.8441   -0.5153 H         1 RES1    0.0000
     37 H15        2.4664   12.8009   -1.2618 H         1 RES1    0.0000
     38 N4         5.0253    8.8637    2.0453 N.pl3     2 RES2    0.0000
     39 O6         5.6289    9.4844    1.1660 O.2       2 RES2    0.0000
     40 O7         4.9489    7.6349    2.0671 O.2       2 RES2    0.0000
     41 C15        4.3806    9.6232    3.1185 C.ar      2 RES2    0.0000
     42 C16        4.3919   11.0069    3.0531 C.ar      2 RES2    0.0000
     43 H16        4.7971   11.4521    2.3188 H         2 RES2    0.0000
     44 C17        3.8059   11.7271    4.0748 C.ar      2 RES2    0.0000
     45 H17        3.7985   12.6758    4.0398 H         2 RES2    0.0000
     46 C18        3.2250   11.0622    5.1582 C.ar      2 RES2    0.0000
     47 C19        3.2276    9.6683    5.1988 C.ar      2 RES2    0.0000
     48 H18        2.8279    9.2158    5.9325 H         2 RES2    0.0000
     49 C20        3.8056    8.9423    4.1802 C.ar      2 RES2    0.0000
     50 H19        3.8084    7.9922    4.2049 H         2 RES2    0.0000
     51 C21        2.6670   11.8552    6.2476 C.2       2 RES2    0.0000
     52 N5         2.6739   13.1399    6.3910 N.2       2 RES2    0.0000
     53 C22        2.0340   13.3960    7.6012 C.2       2 RES2    0.0000
     54 C23        1.6920   12.2015    8.1446 C.2       2 RES2    0.0000
     55 O8         2.0770   11.1904    7.2987 O.3       2 RES2    0.0000
     56 C24        1.9615   14.7855    8.0967 C.2       2 RES2    0.0000
     57 C25        2.9956   15.7356    7.5738 C.3       2 RES2    0.0000
     58 H20        2.7334   16.0470    6.6823 H         2 RES2    0.0000
     59 H21        3.8596   15.2787    7.5180 H         2 RES2    0.0000
     60 H22        3.0693   16.5024    8.1786 H         2 RES2    0.0000
     61 N6         1.1168   15.2817    8.9119 N.2       2 RES2    0.0000
     62 O9         0.1357   14.3301    9.2931 O.3       2 RES2    0.0000
     63 C26       -0.5751   14.8830   10.3931 C.3       2 RES2    0.0000
     64 H23        0.0614   15.1623   11.0854 H         2 RES2    0.0000
     65 H24       -1.1820   14.2079   10.7617 H         2 RES2    0.0000
     66 H25       -1.0931   15.6585   10.0912 H         2 RES2    0.0000
     67 O10        0.9524   11.9134    9.2092 O.3       2 RES2    0.0000
     68 C27        0.6409   10.4991    9.3975 C.3       2 RES2    0.0000
     69 H26        1.4643    9.9841    9.5957 H         2 RES2    0.0000
     70 H27        0.2188   10.1238    8.5849 H         2 RES2    0.0000
     71 C28       -0.3219   10.4569   10.5800 C.3       2 RES2    0.0000
     72 H28       -1.0789   11.0535   10.4050 H         2 RES2    0.0000
     73 H29        0.1431   10.7508   11.3893 H         2 RES2    0.0000
     74 H30       -0.6492    9.5418   10.7022 H         2 RES2    0.0000
     75 O11        1.5333   11.7533    9.4437 Du        6 SUP6    0.0000
     76 C29        0.4339   10.8920    9.6651 Du        6 SUP6    0.0000
     77 H31        0.6100   10.0234    9.2224 Du        6 SUP6    0.0000
     78 H32       -0.3734   11.2848    9.2522 Du        6 SUP6    0.0000
     79 C30        0.1772   10.6577   11.0887 Du        6 SUP6    0.0000
     80 H33       -0.7449   10.3536   11.2076 Du        6 SUP6    0.0000
     81 H34        0.3137   11.4914   11.5842 Du        6 SUP6    0.0000
     82 H35        0.7949    9.9724   11.4223 Du        6 SUP6    0.0000
     83 N7         4.2210    8.5291   10.3914 N.pl3     3 RES3    0.0000
     84 O12        3.5713    9.0417   11.3087 O.2       3 RES3    0.0000
     85 O13        4.3726    7.3079   10.2606 O.2       3 RES3    0.0000
     86 C31        4.8151    9.4064    9.3810 C.ar      3 RES3    0.0000
     87 C32        4.7952   10.7785    9.5901 C.ar      3 RES3    0.0000
     88 H36        4.4315   11.1393   10.3917 H         3 RES3    0.0000
     89 C33        5.3093   11.6078    8.6199 C.ar      3 RES3    0.0000
     90 H37        5.3083   12.5477    8.7534 H         3 RES3    0.0000
     91 C34        5.8342   11.0709    7.4417 C.ar      3 RES3    0.0000
     92 C35        5.8426    9.6945    7.2567 C.ar      3 RES3    0.0000
     93 H38        6.2006    9.3293    6.4544 H         3 RES3    0.0000
     94 C36        5.3336    8.8448    8.2285 C.ar      3 RES3    0.0000
     95 H39        5.3415    7.9035    8.1060 H         3 RES3    0.0000
     96 C37        6.3301   11.9672    6.3913 C.2       3 RES3    0.0000
     97 N8         6.3502   13.2575    6.3751 N.2       3 RES3    0.0000
     98 C38        6.9109   13.5822    5.1344 C.2       3 RES3    0.0000
     99 C39        7.1449   12.4357    4.4490 C.2       3 RES3    0.0000
    100 O14        6.8045   11.3724    5.2643 O.3       3 RES3    0.0000
    101 C40        7.0917   14.9979    4.7440 C.2       3 RES3    0.0000
    102 C41        6.1098   16.0004    5.2755 C.3       3 RES3    0.0000
    103 H40        6.1429   16.0004    6.2562 H         3 RES3    0.0000
    104 H41        5.2081   15.7618    4.9779 H         3 RES3    0.0000
    105 H42        6.3381   16.8923    4.9415 H         3 RES3    0.0000
    106 N9         8.0254   15.4693    4.0064 N.2       3 RES3    0.0000
    107 O15        8.9163   14.4503    3.5823 O.3       3 RES3    0.0000
    108 C42       10.0446   15.0707    2.9771 C.3       3 RES3    0.0000
    109 H43        9.7491   15.6090    2.2131 H         3 RES3    0.0000
    110 H44       10.6709   14.3825    2.6690 H         3 RES3    0.0000
    111 H45       10.4902   15.6498    3.6302 H         3 RES3    0.0000
    112 O16        7.4821   12.1574    3.2130 O.3       3 RES3    0.0000
    113 C43        8.6572   11.3154    3.0297 C.3       3 RES3    0.0000
    114 H46        8.5504   10.4613    3.5179 H         3 RES3    0.0000
    115 H47        9.4675   11.7737    3.3692 H         3 RES3    0.0000
    116 C44        8.7796   11.0666    1.5700 C.3       3 RES3    0.0000
    117 H48        7.9833   10.5923    1.2519 H         3 RES3    0.0000
    118 H49        9.5742   10.5210    1.3972 H         3 RES3    0.0000
    119 H50        8.8608   11.9207    1.0966 H         3 RES3    0.0000
    120 N10       -8.1889    7.4146    4.0721 N.pl3     4 RES4    0.0000
    121 O17       -8.9609    7.9625    4.8457 O.2       4 RES4    0.0000
    122 O18       -7.9856    6.1890    4.0675 O.2       4 RES4    0.0000
    123 C45       -7.4919    8.2177    3.0700 C.ar      4 RES4    0.0000
    124 C46       -7.5114    9.6014    3.2183 C.ar      4 RES4    0.0000
    125 H51       -7.9359   10.0015    3.9671 H         4 RES4    0.0000
    126 C47       -6.9018   10.3798    2.2594 C.ar      4 RES4    0.0000
    127 H52       -6.8861   11.3256    2.3585 H         4 RES4    0.0000
    128 C48       -6.3059    9.7847    1.1376 C.ar      4 RES4    0.0000
    129 C49       -6.2912    8.3850    1.0230 C.ar      4 RES4    0.0000
    130 H53       -5.8758    7.9747    0.2742 H         4 RES4    0.0000
    131 C50       -6.8828    7.6037    2.0037 C.ar      4 RES4    0.0000
    132 H54       -6.8664    6.6565    1.9390 H         4 RES4    0.0000
    133 C51       -5.7691   10.6359    0.0905 C.2       4 RES4    0.0000
    134 N11       -5.7695   11.9205    0.0271 N.2       4 RES4    0.0000
    135 C52       -5.1773   12.2480   -1.1957 C.2       4 RES4    0.0000
    136 C53       -4.8771   11.0724   -1.8257 C.2       4 RES4    0.0000
    137 O19       -5.2304   10.0298   -1.0187 O.3       4 RES4    0.0000
    138 C54       -5.0892   13.6375   -1.6281 C.2       4 RES4    0.0000
    139 C55       -6.1433   14.5687   -1.1181 C.3       4 RES4    0.0000
    140 H55       -6.0248   15.4504   -1.5261 H         4 RES4    0.0000
    141 H56       -6.0666   14.6458   -0.1453 H         4 RES4    0.0000
    142 H57       -7.0283   14.2166   -1.3477 H         4 RES4    0.0000
    143 N12       -4.1933   14.1526   -2.3839 N.2       4 RES4    0.0000
    144 O20       -3.1962   13.2166   -2.7334 O.3       4 RES4    0.0000
    145 C56       -2.3664   13.8078   -3.7114 C.3       4 RES4    0.0000
    146 H58       -1.9359   14.6051   -3.3362 H         4 RES4    0.0000
    147 H59       -2.9083   14.0624   -4.4890 H         4 RES4    0.0000
    148 H60       -1.6798   13.1661   -3.9869 H         4 RES4    0.0000
    149 O21       -4.6962   10.7625   -3.1710 O.3       4 RES4    0.0000
    150 C57       -3.3412    9.8051   -4.8755 C.3       4 RES4    0.0000
    151 H61       -4.1794    9.4952   -5.2785 H         4 RES4    0.0000
    152 H62       -2.6338    9.1518   -5.0505 H         4 RES4    0.0000
    153 H63       -3.0937   10.6708   -5.2652 H         4 RES4    0.0000
    154 C58       -3.5261    9.9564   -3.4089 C.3       4 RES4    0.0000
    155 H64       -3.6343    9.0660   -2.9894 H         4 RES4    0.0000
    156 H65       -2.7305   10.3915   -3.0125 H         4 RES4    0.0000
    157 C59       -3.7822    9.4850   -3.1314 Du        6 SUP6    0.0000
    158 H66       -4.6070    8.9598   -3.2866 Du        6 SUP6    0.0000
    159 H67       -3.2819    9.0762   -2.3783 Du        6 SUP6    0.0000
    160 O22       -4.1029   10.8512   -2.8374 Du        6 SUP6    0.0000
    161 C60       -2.9463    9.5170   -4.3536 Du        6 SUP6    0.0000
    162 H68       -3.4356    9.9695   -5.0704 Du        6 SUP6    0.0000
    163 H69       -2.7330    8.6018   -4.6277 Du        6 SUP6    0.0000
    164 H70       -2.1163   10.0044   -4.1686 Du        6 SUP6    0.0000
    165 N13       -0.5265   12.2829   -1.4692 N.pl3     5 RES5    0.0000
    166 O23       -0.2200   11.5496   -2.3984 O.2       5 RES5    0.0000
    167 O24       -0.1904   13.4737   -1.3992 O.2       5 RES5    0.0000
    168 C61       -1.3143   11.7300   -0.3591 C.ar      5 RES5    0.0000
    169 C62       -1.5874   10.3711   -0.3653 C.ar      5 RES5    0.0000
    170 H71       -1.3100    9.8298   -1.0933 H         5 RES5    0.0000
    171 C63       -2.2602    9.8197    0.6890 C.ar      5 RES5    0.0000
    172 H72       -2.4572    8.8914    0.6970 H         5 RES5    0.0000
    173 C64       -2.6606   10.6330    1.7642 C.ar      5 RES5    0.0000
    174 C65       -2.4124   11.9978    1.7226 C.ar      5 RES5    0.0000
    175 H73       -2.7208   12.5550    2.4278 H         5 RES5    0.0000
    176 C66       -1.7213   12.5521    0.6672 C.ar      5 RES5    0.0000
    177 H74       -1.5312   13.4833    0.6474 H         5 RES5    0.0000
    178 C67       -3.2738   10.0030    2.9200 C.2       5 RES5    0.0000
    179 N14       -3.4348    8.7372    3.1621 N.2       5 RES5    0.0000
    180 C68       -4.0267    8.6717    4.4246 C.2       5 RES5    0.0000
    181 C69       -4.1484    9.9244    4.9039 C.2       5 RES5    0.0000
    182 O25       -3.6934   10.8096    3.9595 O.3       5 RES5    0.0000
    183 C70       -4.2934    7.3491    5.0287 C.2       5 RES5    0.0000
    184 C71       -3.3958    6.2273    4.6314 C.3       5 RES5    0.0000
    185 H75       -3.4320    6.1080    3.6599 H         5 RES5    0.0000
    186 H76       -3.6884    5.4038    5.0737 H         5 RES5    0.0000
    187 H77       -2.4776    6.4339    4.8986 H         5 RES5    0.0000
    188 N15       -5.2338    7.0683    5.8502 N.2       5 RES5    0.0000
    189 O26       -6.0883    8.1889    6.0636 O.3       5 RES5    0.0000
    190 C72       -6.9818    7.8671    7.1124 C.3       5 RES5    0.0000
    191 H78       -6.4784    7.7303    7.9408 H         5 RES5    0.0000
    192 H79       -7.4693    7.0479    6.8871 H         5 RES5    0.0000
    193 H80       -7.6180    8.6018    7.2372 H         5 RES5    0.0000
    194 O27       -4.4883   10.4145    6.0805 O.3       5 RES5    0.0000
    195 C73       -5.5139   11.4420    6.0848 C.3       5 RES5    0.0000
    196 H81       -6.2910   11.1437    5.5493 H         5 RES5    0.0000
    197 H82       -5.1603   12.2742    5.6814 H         5 RES5    0.0000
    198 C74       -5.9328   11.6980    7.4879 C.3       5 RES5    0.0000
    199 H83       -5.1656   12.0181    8.0069 H         5 RES5    0.0000
    200 H84       -6.2721   10.8687    7.8846 H         5 RES5    0.0000
    201 H85       -6.6379   12.3775    7.4982 H         5 RES5    0.0000
@<TRIPOS>BOND
     1    1    2 2
     2    3    1 2
     3    4    1 1
     4    5    4 ar
     5    6    5 1
     6    7    5 ar
     7    8    7 1
     8    9    7 ar
     9   10    9 ar
    10   11   10 1
    11   12    4 ar
    12   13   12 1
    13   14    9 1
    14   15   14 2
    15   16   15 1
    16   17   16 2
    17   18   14 1
    18   19   16 1
    19   20   19 1
    20   21   20 1
    21   22   20 1
    22   23   20 1
    23   24   19 2
    24   25   24 1
    25   26   25 1
    26   27   26 1
    27   28   26 1
    28   29   26 1
    29   30   17 1
    30   31   30 1
    31   32   31 1
    32   33   31 1
    33   34   31 1
    34   35   34 1
    35   36   34 1
    36   37   34 1
    37   38   39 2
    38   40   38 2
    39   41   38 1
    40   42   41 ar
    41   43   42 1
    42   44   42 ar
    43   45   44 1
    44   46   44 ar
    45   47   46 ar
    46   48   47 1
    47   49   41 ar
    48   50   49 1
    49   51   46 1
    50   52   51 2
    51   53   52 1
    52   54   53 2
    53   55   51 1
    54   56   53 1
    55   57   56 1
    56   58   57 1
    57   59   57 1
    58   60   57 1
    59   61   56 2
    60   62   61 1
    61   63   62 1
    62   64   63 1
    63   65   63 1
    64   66   63 1
    65   67   54 1
    66   68   67 1
    67   69   68 1
    68   70   68 1
    69   71   68 1
    70   72   71 1
    71   73   71 1
    72   74   71 1
    73   83   84 2
    74   85   83 2
    75   86   83 1
    76   87   86 ar
    77   88   87 1
    78   89   87 ar
    79   90   89 1
    80   91   89 ar
    81   92   91 ar
    82   93   92 1
    83   94   86 ar
    84   95   94 1
    85   96   91 1
    86   97   96 2
    87   98   97 1
    88   99   98 2
    89  100   96 1
    90  101   98 1
    91  102  101 1
    92  103  102 1
    93  104  102 1
    94  105  102 1
    95  106  101 2
    96  107  106 1
    97  108  107 1
    98  109  108 1
    99  110  108 1
   100  111  108 1
   101  112   99 1
   102  113  112 1
   103  114  113 1
   104  115  113 1
   105  116  113 1
   106  117  116 1
   107  118  116 1
   108  119  116 1
   109  120  121 2
   110  122  120 2
   111  123  120 1
   112  124  123 ar
   113  125  124 1
   114  126  124 ar
   115  127  126 1
   116  128  126 ar
   117  129  128 ar
   118  130  129 1
   119  131  123 ar
   120  132  131 1
   121  133  128 1
   122  134  133 2
   123  135  134 1
   124  136  135 2
   125  137  133 1
   126  138  135 1
   127  139  138 1
   128  140  139 1
   129  141  139 1
   130  142  139 1
   131  143  138 2
   132  144  143 1
   133  145  144 1
   134  146  145 1
   135  147  145 1
   136  148  145 1
   137  149  136 1
   138  150  151 1
   139  152  150 1
   140  153  150 1
   141  154  149 1
   142  155  154 1
   143  156  154 1
   144  165  166 2
   145  167  165 2
   146  168  165 1
   147  169  168 ar
   148  170  169 1
   149  171  169 ar
   150  172  171 1
   151  173  171 ar
   152  174  173 ar
   153  175  174 1
   154  176  168 ar
   155  177  176 1
   156  178  173 1
   157  179  178 2
   158  180  179 1
   159  181  180 2
   160  182  178 1
   161  183  180 1
   162  184  183 1
   163  185  184 1
   164  186  184 1
   165  187  184 1
   166  188  183 2
   167  189  188 1
   168  190  189 1
   169  191  190 1
   170  192  190 1
   171  193  190 1
   172  194  181 1
   173  195  194 1
   174  196  195 1
   175  197  195 1
   176  198  195 1
   177  199  198 1
   178  200  198 1
   179  201  198 1
   180   10   12 ar
   181   17   18 1
   182   47   49 ar
   183   54   55 1
   184   92   94 ar
   185   99  100 1
   186  129  131 ar
   187  136  137 1
   188  150  154 1
   189  174  176 ar
   190  181  182 1
@<TRIPOS>SUBSTRUCTURE
     1 RES1 1
     2 RES2 38
     3 RES3 83
     4 RES4 120
     5 RES5 165
     6 SUP6 75

