# MOL2 file generated by ConQuest
# Please check atom types

@<TRIPOS>MOLECULE
ILOFUM
    22    22     1
SMALL
NO_CHARGES
****
Generated from CSD

@<TRIPOS>ATOM
      1 O1         0.7179    5.3513    1.0592 O.2       1 RES1    0.0000
      2 O2         4.4213    0.1600    3.4865 O.2       1 RES1    0.0000
      3 O3        -0.8013    4.1903    2.1030 O.2       1 RES1    0.0000
      4 O4         3.7751    0.0254    5.5661 O.2       1 RES1    0.0000
      5 N1         2.3952    3.2183    1.0027 N.2       1 RES1    0.0000
      6 N2         0.8739    2.1007    2.2881 N.2       1 RES1    0.0000
      7 N3         3.9953    1.4617    0.7657 N.3       1 RES1    0.0000
      8 N4         0.3090    4.3244    1.6111 N.pl3     1 RES1    0.0000
      9 N5         2.2800   -0.1346    3.9516 N.3       1 RES1    0.0000
     10 N6         1.9733    1.3166    2.0378 N.3       1 RES1    0.0000
     11 N7         3.5554    0.0317    4.3551 N.pl3     1 RES1    0.0000
     12 C1         2.8740    1.9900    1.2634 C.2       1 RES1    0.0000
     13 C2         2.0070   -0.0509    2.5324 C.3       1 RES1    0.0000
     14 C3         1.2161    3.1867    1.6507 C.2       1 RES1    0.0000
     15 C4         1.2309   -0.0749    4.9652 C.3       1 RES1    0.0000
     16 H1         1.1066   -0.4468    2.4045 H         1 RES1    0.0000
     17 H2         2.6823   -0.5269    2.0350 H         1 RES1    0.0000
     18 H3         4.3802    0.8510    1.1987 H         1 RES1    0.0000
     19 H4         4.5073    1.9883    0.3207 H         1 RES1    0.0000
     20 H5         0.4236   -0.1056    4.5166 H         1 RES1    0.0000
     21 H6         1.3396   -0.7434    5.6026 H         1 RES1    0.0000
     22 H7         1.2448    0.7716    5.4301 H         1 RES1    0.0000
@<TRIPOS>BOND
     1    1    8 2
     2    2   11 2
     3    3    8 2
     4    4   11 2
     5    5   12 2
     6    6   10 1
     7    7   12 1
     8    8   14 1
     9    9   11 1
    10   10   12 1
    11   13    9 1
    12   14    5 1
    13   15    9 1
    14   16   13 1
    15   17   13 1
    16   18    7 1
    17   19    7 1
    18   20   15 1
    19   21   15 1
    20   22   15 1
    21    6   14 2
    22   10   13 1
@<TRIPOS>SUBSTRUCTURE
     1 RES1 1

@<TRIPOS>CRYSIN
   6.3027    6.8628   10.6253  72.8760  87.9680  77.5400   2 1

