# MOL2 file generated by ConQuest
# Please check atom types

@<TRIPOS>MOLECULE
ILOGAT
    38    39     1
SMALL
NO_CHARGES
****
Generated from CSD

@<TRIPOS>ATOM
      1 O1         3.4935    0.2160    1.4401 O.2       1 RES1    0.0000
      2 O2         4.4973    0.5787    3.3248 O.2       1 RES1    0.0000
      3 O3        -0.9293    3.1862    4.9374 O.2       1 RES1    0.0000
      4 O4         0.1139    4.6850    6.1373 O.2       1 RES1    0.0000
      5 N1         1.0520    0.3114    2.6334 N.2       1 RES1    0.0000
      6 N2         2.1226    0.7709    4.5910 N.2       1 RES1    0.0000
      7 N3         0.7826    0.8081    4.7668 N.3       1 RES1    0.0000
      8 N4         3.4944    0.4133    2.6425 N.pl3     1 RES1    0.0000
      9 N5         0.5889    2.5479    6.4120 N.3       1 RES1    0.0000
     10 N6        -0.1130    3.5207    5.7908 N.pl3     1 RES1    0.0000
     11 C1         0.1584    0.5319    3.5962 C.2       1 RES1    0.0000
     12 C2         2.2009    0.4825    3.3094 C.2       1 RES1    0.0000
     13 C3         0.2436    1.1932    6.0835 C.3       1 RES1    0.0000
     14 C4         1.5355    2.9125    7.4543 C.3       1 RES1    0.0000
     15 H1        -0.6959    1.0702    6.0488 H         1 RES1    0.0000
     16 H2         0.6687    0.6152    6.7539 H         1 RES1    0.0000
     17 H3         1.0858    3.1849    8.1725 H         1 RES1    0.0000
     18 H4         2.0650    3.6399    7.1548 H         1 RES1    0.0000
     19 H5         2.1432    2.1660    7.6678 H         1 RES1    0.0000
     20 O1A       -4.6267    0.2160    5.5689 O.2       1 RES1    0.0000
     21 O2A       -5.6305    0.5787    3.6842 O.2       1 RES1    0.0000
     22 O3A       -0.2039    3.1862    2.0716 O.2       1 RES1    0.0000
     23 O4A       -1.2471    4.6850    0.8716 O.2       1 RES1    0.0000
     24 N1A       -2.1852    0.3114    4.3756 N.2       1 RES1    0.0000
     25 N2A       -3.2558    0.7709    2.4180 N.2       1 RES1    0.0000
     26 N3A       -1.9158    0.8081    2.2422 N.3       1 RES1    0.0000
     27 N4A       -4.6276    0.4133    4.3665 N.pl3     1 RES1    0.0000
     28 N5A       -1.7221    2.5479    0.5970 N.3       1 RES1    0.0000
     29 N6A       -1.0202    3.5207    1.2182 N.pl3     1 RES1    0.0000
     30 C1A       -1.2916    0.5319    3.4128 C.2       1 RES1    0.0000
     31 C2A       -3.3341    0.4825    3.6996 C.2       1 RES1    0.0000
     32 C3A       -1.3768    1.1932    0.9255 C.3       1 RES1    0.0000
     33 C4A       -2.6687    2.9125   -0.4454 C.3       1 RES1    0.0000
     34 H1A       -0.4373    1.0702    0.9602 H         1 RES1    0.0000
     35 H2A       -1.8019    0.6152    0.2551 H         1 RES1    0.0000
     36 H3A       -2.2190    3.1849   -1.1635 H         1 RES1    0.0000
     37 H4A       -3.1982    3.6399   -0.1458 H         1 RES1    0.0000
     38 H5A       -3.2764    2.1660   -0.6588 H         1 RES1    0.0000
@<TRIPOS>BOND
     1    1    8 2
     2    2    8 2
     3    3   10 2
     4    4   10 2
     5    5   11 2
     6    6    7 1
     7    7   11 1
     8    8   12 1
     9    9   10 1
    10   11   30 1
    11   12    5 1
    12   13    7 1
    13   14    9 1
    14   15   13 1
    15   16   13 1
    16   17   14 1
    17   18   14 1
    18   19   14 1
    19   20   27 2
    20   21   27 2
    21   22   29 2
    22   23   29 2
    23   24   30 2
    24   25   26 1
    25   26   30 1
    26   27   31 1
    27   28   29 1
    28   31   24 1
    29   32   26 1
    30   33   28 1
    31   34   32 1
    32   35   32 1
    33   36   33 1
    34   37   33 1
    35   38   33 1
    36    6   12 2
    37    9   13 1
    38   25   31 2
    39   28   32 1
@<TRIPOS>SUBSTRUCTURE
     1 RES1 1

@<TRIPOS>CRYSIN
  17.5192    6.4082   14.2000  90.0000  99.1840  90.0000  15 1

