# MOL2 file generated by ConQuest
# Please check atom types

@<TRIPOS>MOLECULE
ILOGUN
    49    46     3
SMALL
NO_CHARGES
****
Generated from CSD

@<TRIPOS>ATOM
      1 O1         8.4689    6.3028    7.5473 O.2       1 RES1    0.0000
      2 O2         7.9169    4.6962    8.9001 O.2       1 RES1    0.0000
      3 O3         6.5984    2.6839    7.5597 O.2       1 RES1    0.0000
      4 O4         4.4322    2.5378    7.6880 O.2       1 RES1    0.0000
      5 O5         3.1076    6.2737    4.3117 O.2       1 RES1    0.0000
      6 O6         3.9288    7.7783    2.9523 O.2       1 RES1    0.0000
      7 N1         4.5267    6.5267    6.8995 N.3       1 RES1    0.0000
      8 N2         5.8016    6.8002    7.2775 N.2       1 RES1    0.0000
      9 N3         7.6592    5.5281    8.0400 N.pl3     1 RES1    0.0000
     10 N4         5.4732    3.1683    7.5670 N.pl3     1 RES1    0.0000
     11 N5         4.0539    8.0921    5.1330 N.3       1 RES1    0.0000
     12 N6         3.6757    7.3445    4.0765 N.pl3     1 RES1    0.0000
     13 C1         6.2932    5.6208    7.5727 C.2       1 RES1    0.0000
     14 C2         5.3524    4.5997    7.4123 C.2       1 RES1    0.0000
     15 C3         4.2280    5.2292    6.9636 C.2       1 RES1    0.0000
     16 C4         3.6686    7.6256    6.4264 C.3       1 RES1    0.0000
     17 C5         4.7224    9.3521    4.9009 C.3       1 RES1    0.0000
     18 H1         5.5728    9.1900    4.4426 H         1 RES1    0.0000
     19 H2         4.8914    9.7942    5.7588 H         1 RES1    0.0000
     20 H3         4.1557    9.9254    4.3445 H         1 RES1    0.0000
     21 H4         3.4354    4.8714    6.6705 H         1 RES1    0.0000
     22 H5         2.6798    7.2134    6.4408 H         1 RES1    0.0000
     23 H6         3.7648    8.3563    7.0354 H         1 RES1    0.0000
     24 O7         0.4712    7.1088    2.2647 O.2       2 RES2    0.0000
     25 O8        -1.2777    6.5426    1.0958 O.2       2 RES2    0.0000
     26 O9        -2.8948    4.2941    1.6625 O.2       2 RES2    0.0000
     27 O10       -2.2349    2.8497    0.1877 O.2       2 RES2    0.0000
     28 O11        3.7892    3.3753    0.8121 O.2       2 RES2    0.0000
     29 O12        3.9461    1.6609   -0.5437 O.2       2 RES2    0.0000
     30 N7         1.2276    3.1064    2.2152 N.3       2 RES2    0.0000
     31 C6         1.2883    4.4301    2.3188 C.2       2 RES2    0.0000
     32 N8        -0.2721    6.2775    1.7481 N.pl3     2 RES2    0.0000
     33 N9        -2.0337    3.6329    1.1066 N.pl3     2 RES2    0.0000
     34 N10        2.7746    1.4642    1.3220 N.3       2 RES2    0.0000
     35 N11        3.5420    2.2305    0.4750 N.pl3     2 RES2    0.0000
     36 C7         0.0732    4.8938    1.9036 C.2       2 RES2    0.0000
     37 C8        -0.6532    3.7556    1.5710 C.2       2 RES2    0.0000
     38 N12        0.0309    2.6483    1.7575 N.2       2 RES2    0.0000
     39 C9         2.2947    2.1265    2.4923 C.3       2 RES2    0.0000
     40 C10        2.1338    0.2632    0.7921 C.3       2 RES2    0.0000
     41 H7         1.6238   -0.1771    1.5052 H         2 RES2    0.0000
     42 H8         1.5273    0.5106    0.0634 H         2 RES2    0.0000
     43 H9         2.8183   -0.3504    0.4547 H         2 RES2    0.0000
     44 H10        2.0371    4.8714    2.6084 H         2 RES2    0.0000
     45 H11        2.9666    2.6699    2.9231 H         2 RES2    0.0000
     46 H12        1.9040    1.4801    3.0224 H         2 RES2    0.0000
     47 H13        2.3554    0.1658   -0.1567 Du        3 SUP3    0.0000
     48 H14        2.4536   -0.5218    1.2850 Du        3 SUP3    0.0000
     49 H15        1.1626    0.3391    0.8938 Du        3 SUP3    0.0000
@<TRIPOS>BOND
     1    1    9 2
     2    2    9 2
     3    3   10 2
     4    4   10 2
     5    5   12 2
     6    6   12 2
     7    7    8 1
     8    8   13 2
     9    9   13 1
    10   10   14 1
    11   11   12 1
    12   13   14 1
    13   14   15 2
    14   15    7 1
    15   16    7 1
    16   17   11 1
    17   18   17 1
    18   19   17 1
    19   20   17 1
    20   21   15 1
    21   22   16 1
    22   23   16 1
    23   24   32 2
    24   25   32 2
    25   26   33 2
    26   27   33 2
    27   28   35 2
    28   29   35 2
    29   30   31 1
    30   31   36 2
    31   32   36 1
    32   33   37 1
    33   34   35 1
    34   36   37 1
    35   37   38 2
    36   38   30 1
    37   39   30 1
    38   40   34 1
    39   41   40 1
    40   42   40 1
    41   43   40 1
    42   44   31 1
    43   45   39 1
    44   46   39 1
    45   11   16 1
    46   34   39 1
@<TRIPOS>SUBSTRUCTURE
     1 RES1 1
     2 RES2 24
     3 SUP3 47

@<TRIPOS>CRYSIN
  17.1342    9.3680   12.5388  90.0000 107.4000  90.0000  14 1

