# MOL2 file generated by ConQuest
# Please check atom types

@<TRIPOS>MOLECULE
ILOGOH
    46    46     2
SMALL
NO_CHARGES
****
Generated from CSD

@<TRIPOS>ATOM
      1 O1         0.6670    5.5391    4.9640 O.2       1 RES1    0.0000
      2 O2         3.4157    2.8361   -0.3510 O.2       1 RES1    0.0000
      3 N1         4.2206    3.4745    4.4620 N.3       1 RES1    0.0000
      4 O3        -0.5978    6.1619    3.3184 O.2       1 RES1    0.0000
      5 O4         3.2099    1.4977    4.5278 O.2       1 RES1    0.0000
      6 N2         0.3733    5.5792    3.7781 N.pl3     1 RES1    0.0000
      7 O5         5.3820    1.6120    4.4723 O.2       1 RES1    0.0000
      8 N3         2.8928    3.6412    2.1385 N.2       1 RES1    0.0000
      9 N4         2.3317    4.2332    3.1955 N.pl3     1 RES1    0.0000
     10 N5         4.2672    2.1192    4.4807 N.pl3     1 RES1    0.0000
     11 N6         2.3965    3.4985   -0.1961 N.pl3     1 RES1    0.0000
     12 O6         1.6269    3.8151   -1.0877 O.2       1 RES1    0.0000
     13 C1         2.9494    4.0922    4.5400 C.3       1 RES1    0.0000
     14 C2         5.4336    4.2071    4.1558 C.3       1 RES1    0.0000
     15 C3         2.0774    3.9595    1.1373 C.2       1 RES1    0.0000
     16 C4         1.2038    4.8903    2.8340 C.2       1 RES1    0.0000
     17 C5         1.0009    4.7397    1.4957 C.2       1 RES1    0.0000
     18 H1         3.0691    4.9872    4.8759 H         1 RES1    0.0000
     19 H2         2.3518    3.5755    5.0509 H         1 RES1    0.0000
     20 H3         0.3144    5.0770    0.9866 H         1 RES1    0.0000
     21 H4         5.7930    3.9211    3.3160 H         1 RES1    0.0000
     22 H5         6.0710    4.0576    4.7928 H         1 RES1    0.0000
     23 H6         5.2234    5.1229    4.0904 H         1 RES1    0.0000
     24 O7         8.4049    2.2226    5.7880 O.2       2 RES2    0.0000
     25 O8         8.2782    2.3438    3.6200 O.2       2 RES2    0.0000
     26 N7         6.2662   -0.9861    3.0840 N.2       2 RES2    0.0000
     27 N8         7.2290   -0.1941    2.5921 N.pl3     2 RES2    0.0000
     28 O9         2.9926   -0.9825    1.9567 O.2       2 RES2    0.0000
     29 N9         8.4207    0.3728    4.5952 N.3       2 RES2    0.0000
     30 O10        3.8925   -2.1288    3.5617 O.2       2 RES2    0.0000
     31 O11        8.7112    1.3077    0.7146 O.2       2 RES2    0.0000
     32 O12        6.9591    2.5670    0.5029 O.2       2 RES2    0.0000
     33 N10        7.5294    1.5716    0.9036 N.pl3     2 RES2    0.0000
     34 N11        3.9411   -1.3021    2.6672 N.pl3     2 RES2    0.0000
     35 N12        8.3707    1.7155    4.6736 N.pl3     2 RES2    0.0000
     36 C6         5.4023    0.3863    1.4918 C.2       2 RES2    0.0000
     37 C7         8.5237   -0.1801    3.2784 C.3       2 RES2    0.0000
     38 C8         5.1926   -0.6359    2.4037 C.2       2 RES2    0.0000
     39 C9         6.7209    0.6402    1.6497 C.2       2 RES2    0.0000
     40 C10        8.6603   -0.3974    5.8005 C.3       2 RES2    0.0000
     41 H7         9.1678    0.3149    2.7079 H         2 RES2    0.0000
     42 H8         8.7977   -1.1313    3.3793 H         2 RES2    0.0000
     43 H9         4.8359    0.7946    0.9543 H         2 RES2    0.0000
     44 H10        8.4132   -1.2798    5.5882 H         2 RES2    0.0000
     45 H11        8.1060   -0.0854    6.4731 H         2 RES2    0.0000
     46 H12        9.5999   -0.2537    6.1306 H         2 RES2    0.0000
@<TRIPOS>BOND
     1    1    6 2
     2    2   11 2
     3    3   10 1
     4    4    6 2
     5    5   10 2
     6    6   16 1
     7    7   10 2
     8    8    9 1
     9    9   13 1
    10   11   12 2
    11   13    3 1
    12   14    3 1
    13   15    8 2
    14   16    9 1
    15   17   15 1
    16   18   13 1
    17   19   13 1
    18   20   17 1
    19   21   14 1
    20   22   14 1
    21   23   14 1
    22   24   35 2
    23   25   35 2
    24   26   27 1
    25   27   37 1
    26   28   34 2
    27   29   35 1
    28   30   34 2
    29   31   33 2
    30   32   33 2
    31   33   39 1
    32   34   38 1
    33   36   38 1
    34   37   29 1
    35   38   26 2
    36   39   27 1
    37   40   29 1
    38   41   37 1
    39   42   37 1
    40   43   36 1
    41   44   40 1
    42   45   40 1
    43   46   40 1
    44   11   15 1
    45   16   17 2
    46   36   39 2
@<TRIPOS>SUBSTRUCTURE
     1 RES1 1
     2 RES2 24

@<TRIPOS>CRYSIN
   8.2316    9.5937   12.7855  93.5950 102.8920  96.8440   2 1

