# MOL2 file generated by ConQuest
# Please check atom types

@<TRIPOS>MOLECULE
ILOGIB
    23    23     1
SMALL
NO_CHARGES
****
Generated from CSD

@<TRIPOS>ATOM
      1 O1         2.1328   -0.9030    3.8469 O.2       1 RES1    0.0000
      2 O2         1.1204    3.2871    4.6073 O.2       1 RES1    0.0000
      3 O3         1.4832    1.0044    3.0749 O.2       1 RES1    0.0000
      4 N1         2.1660    0.3096    3.8137 N.pl3     1 RES1    0.0000
      5 O4         2.9408    4.4624    4.4808 O.2       1 RES1    0.0000
      6 O5         2.1190    4.0077    7.3297 O.2       1 RES1    0.0000
      7 N2         2.7680    3.7201    8.3246 N.pl3     1 RES1    0.0000
      8 N3         4.0716    3.3841    8.1326 N.3       1 RES1    0.0000
      9 O6         2.3598    3.7068    9.4768 O.2       1 RES1    0.0000
     10 N4         4.1940    2.4144    5.9354 N.pl3     1 RES1    0.0000
     11 N5         4.1001    0.2847    5.2798 N.2       1 RES1    0.0000
     12 C1         4.5767    3.5340    6.8038 C.3       1 RES1    0.0000
     13 C2         3.1132    2.2909    5.0700 C.2       1 RES1    0.0000
     14 N6         2.3361    3.4340    4.6937 N.pl3     1 RES1    0.0000
     15 C3         3.0910    0.9821    4.7014 C.2       1 RES1    0.0000
     16 C4         4.8599    3.0378    9.3056 C.3       1 RES1    0.0000
     17 H1         4.8567    3.7874    9.9357 H         1 RES1    0.0000
     18 H2         5.7814    2.8426    9.0342 H         1 RES1    0.0000
     19 H3         4.4726    2.2467    9.7375 H         1 RES1    0.0000
     20 C5         4.7209    1.1752    6.0094 C.2       1 RES1    0.0000
     21 H4         4.3102    4.3397    6.3780 H         1 RES1    0.0000
     22 H5         5.5419    3.5050    6.9102 H         1 RES1    0.0000
     23 H6         5.3930    1.0174    6.6017 H         1 RES1    0.0000
@<TRIPOS>BOND
     1    1    4 2
     2    2   14 2
     3    3    4 2
     4    4   15 1
     5    5   14 2
     6    6    7 2
     7    7    8 1
     8    8   12 1
     9    9    7 2
    10   10   12 1
    11   11   15 1
    12   12   21 1
    13   13   10 1
    14   14   13 1
    15   15   13 2
    16   16    8 1
    17   17   16 1
    18   18   16 1
    19   19   16 1
    20   20   10 1
    21   22   12 1
    22   23   20 1
    23   11   20 2
@<TRIPOS>SUBSTRUCTURE
     1 RES1 1

@<TRIPOS>CRYSIN
   5.7787   20.7640    7.7190  90.0000  92.3930  90.0000   9 1

