# MOL2 file generated by ConQuest
# Please check atom types

@<TRIPOS>MOLECULE
ILOHAU
    32    33     1
SMALL
NO_CHARGES
****
Generated from CSD

@<TRIPOS>ATOM
      1 O1        -1.7987   -1.2300    5.4409 O.2       1 RES1    0.0000
      2 O2        -0.5895    3.5960    4.8642 O.2       1 RES1    0.0000
      3 O3        -1.9631   -3.1783    6.3920 O.2       1 RES1    0.0000
      4 O4         2.5147    1.0354    7.2763 O.2       1 RES1    0.0000
      5 O5         1.6047    1.4336    1.1994 O.2       1 RES1    0.0000
      6 O6         3.7122    1.0042    9.0996 O.2       1 RES1    0.0000
      7 O7         3.4331    1.7384    2.3324 O.2       1 RES1    0.0000
      8 O8         0.5992    3.7183    3.0477 O.2       1 RES1    0.0000
      9 N1         0.1686    3.1275    4.0208 N.pl3     1 RES1    0.0000
     10 N2        -1.3200   -2.2033    6.0250 N.pl3     1 RES1    0.0000
     11 N3         2.2000   -1.7394    6.3980 N.3       1 RES1    0.0000
     12 N4         0.9733   -0.1918    5.0373 N.pl3     1 RES1    0.0000
     13 N5         2.0444   -2.8599    7.1646 N.2       1 RES1    0.0000
     14 N6         2.2477    1.4500    2.2309 N.pl3     1 RES1    0.0000
     15 N7         3.3463    0.5396    8.0203 N.pl3     1 RES1    0.0000
     16 N8         1.8112   -0.1261    3.9441 N.2       1 RES1    0.0000
     17 N9         3.9318   -0.6214    7.6272 N.3       1 RES1    0.0000
     18 C1         0.6067    1.7671    4.1955 C.2       1 RES1    0.0000
     19 C2         1.0376   -1.3273    5.8693 C.2       1 RES1    0.0000
     20 C3         0.0832   -2.2071    6.3056 C.2       1 RES1    0.0000
     21 C4         3.5423   -1.1396    6.3525 C.3       1 RES1    0.0000
     22 C5         0.2505    0.9345    5.2148 C.2       1 RES1    0.0000
     23 C6         1.5645    1.0691    3.4515 C.2       1 RES1    0.0000
     24 C7         0.7493   -3.1339    7.1042 C.2       1 RES1    0.0000
     25 C8         4.7017   -1.3762    8.6117 C.3       1 RES1    0.0000
     26 H1         4.1373   -1.8796    6.1190 H         1 RES1    0.0000
     27 H2         0.3873   -3.8840    7.5763 H         1 RES1    0.0000
     28 H3         3.5442   -0.4331    5.6758 H         1 RES1    0.0000
     29 H4        -0.3409    1.0228    5.9571 H         1 RES1    0.0000
     30 H5         4.9136   -2.2506    8.1814 H         1 RES1    0.0000
     31 H6         4.1604   -1.5791    9.2978 H         1 RES1    0.0000
     32 H7         5.4399   -0.8636    8.8717 H         1 RES1    0.0000
@<TRIPOS>BOND
     1    1   10 2
     2    2    9 2
     3    3   10 2
     4    4   15 2
     5    5   14 2
     6    6   15 2
     7    7   14 2
     8    8    9 2
     9    9   18 1
    10   10   20 1
    11   11   13 1
    12   12   16 1
    13   13   24 2
    14   14   23 1
    15   15   17 1
    16   16   23 2
    17   17   21 1
    18   18   22 2
    19   19   11 1
    20   20   19 2
    21   21   11 1
    22   22   12 1
    23   23   18 1
    24   24   20 1
    25   25   17 1
    26   26   21 1
    27   27   24 1
    28   28   21 1
    29   29   22 1
    30   30   25 1
    31   31   25 1
    32   32   25 1
    33   12   19 1
@<TRIPOS>SUBSTRUCTURE
     1 RES1 1

@<TRIPOS>CRYSIN
   8.5617    9.3986    9.7876 113.2770 106.0730  92.2660   2 1

