# MOL2 file generated by ConQuest
# Please check atom types

@<TRIPOS>MOLECULE
ILOQEH
    22    23     1
SMALL
NO_CHARGES
****
Generated from CSD

@<TRIPOS>ATOM
      1 N1         4.6346    1.8599    2.1048 N.pl3     1 RES1    0.0000
      2 N2         5.3141    6.8465    6.2603 N.2       1 RES1    0.0000
      3 N3         4.3244    5.3697    7.5903 N.2       1 RES1    0.0000
      4 N4         4.5834    6.5188    8.2034 N.3       1 RES1    0.0000
      5 N5         5.1686    7.4120    7.4403 N.2       1 RES1    0.0000
      6 O1         5.0947    2.1944    1.0216 O.2       1 RES1    0.0000
      7 O2         4.1499    0.7534    2.3195 O.2       1 RES1    0.0000
      8 C1         4.7531    4.6335    5.2696 C.ar      1 RES1    0.0000
      9 C2         4.3497    2.3972    4.4781 C.ar      1 RES1    0.0000
     10 H1         4.1040    1.4929    4.6356 H         1 RES1    0.0000
     11 C3         4.6713    2.8303    3.2049 C.ar      1 RES1    0.0000
     12 C4         4.3932    3.3067    5.5133 C.ar      1 RES1    0.0000
     13 H2         4.1775    3.0294    6.3958 H         1 RES1    0.0000
     14 C5         5.0240    4.1410    2.9291 C.ar      1 RES1    0.0000
     15 H3         5.2332    4.4129    2.0431 H         1 RES1    0.0000
     16 C6         5.0643    5.0420    3.9736 C.ar      1 RES1    0.0000
     17 H4         5.3053    5.9459    3.8080 H         1 RES1    0.0000
     18 C7         4.7951    5.6048    6.3687 C.2       1 RES1    0.0000
     19 C8         4.2224    6.7815    9.5893 C.3       1 RES1    0.0000
     20 H5         4.7711    6.2253   10.1809 H         1 RES1    0.0000
     21 H6         3.2753    6.5683    9.7260 H         1 RES1    0.0000
     22 H7         4.3777    7.7272    9.7939 H         1 RES1    0.0000
@<TRIPOS>BOND
     1    1    6 2
     2    2    5 2
     3    3    4 1
     4    4    5 1
     5    7    1 2
     6    8   12 ar
     7    9   10 1
     8   11    1 1
     9   12    9 ar
    10   13   12 1
    11   14   11 ar
    12   15   14 1
    13   16    8 ar
    14   17   16 1
    15   18    2 1
    16   19    4 1
    17   20   19 1
    18   21   19 1
    19   22   19 1
    20    3   18 2
    21    8   18 1
    22    9   11 ar
    23   14   16 ar
@<TRIPOS>SUBSTRUCTURE
     1 RES1 1

@<TRIPOS>CRYSIN
   7.0745    7.2465   10.1757  76.6471  71.3133  68.9809   2 1

