# MOL2 file generated by ConQuest
# Please check atom types

@<TRIPOS>MOLECULE
IMAMOX
    22    21     1
SMALL
NO_CHARGES
****
Generated from CSD

@<TRIPOS>ATOM
      1 N1         2.7224    1.1695    3.4517 N.3       1 RES1    0.0000
      2 C1         3.0139    1.3381    4.8678 C.3       1 RES1    0.0000
      3 C2         4.4455    1.7059    5.1245 C.2       1 RES1    0.0000
      4 N2         4.7080    2.4780    6.2202 N.3       1 RES1    0.0000
      5 N3         5.3318    1.2686    4.3011 N.2       1 RES1    0.0000
      6 O1         6.6351    1.6683    4.7732 O.3       1 RES1    0.0000
      7 C3         1.2761    0.9475    3.2005 C.3       1 RES1    0.0000
      8 C4         0.7053   -0.2335    3.9577 C.2       1 RES1    0.0000
      9 N4         0.0271   -0.0159    5.1045 N.3       1 RES1    0.0000
     10 N5         0.9327   -1.3768    3.4341 N.2       1 RES1    0.0000
     11 O2         0.4528   -2.4541    4.2350 O.3       1 RES1    0.0000
     12 H1         3.2345    0.4897    3.2218 H         1 RES1    0.0000
     13 H2         2.3512    2.0498    5.1754 H         1 RES1    0.0000
     14 H3         2.7210    0.5466    5.3514 H         1 RES1    0.0000
     15 H4         5.6373    2.5054    6.6134 H         1 RES1    0.0000
     16 H5         4.2422    2.4712    6.8743 H         1 RES1    0.0000
     17 H6         7.1603    1.6057    4.2168 H         1 RES1    0.0000
     18 H7         1.1362    0.7972    2.1418 H         1 RES1    0.0000
     19 H8         0.7362    1.7310    3.3613 H         1 RES1    0.0000
     20 H9         0.2354   -0.5808    5.7700 H         1 RES1    0.0000
     21 H10        0.0789    0.7061    5.4788 H         1 RES1    0.0000
     22 H11        0.5306   -2.9381    3.6829 H         1 RES1    0.0000
@<TRIPOS>BOND
     1    1    2 1
     2    2    3 1
     3    3    4 1
     4    4   15 1
     5    5    3 2
     6    6    5 1
     7    7    1 1
     8    8    7 1
     9    9    8 1
    10   10    8 2
    11   11   10 1
    12   12    1 1
    13   13    2 1
    14   14    2 1
    15   16    4 1
    16   17    6 1
    17   18    7 1
    18   19    7 1
    19   20    9 1
    20   21    9 1
    21   22   11 1
@<TRIPOS>SUBSTRUCTURE
     1 RES1 1

@<TRIPOS>CRYSIN
  10.4580   11.3880    6.2080  90.0000 102.2200  90.0000  14 2

