# MOL2 file generated by ConQuest
# Please check atom types

@<TRIPOS>MOLECULE
IMEZEF
    45    49     1
SMALL
NO_CHARGES
****
Generated from CSD

@<TRIPOS>ATOM
      1 O1         8.2365    1.6000    7.2993 O.3       1 RES1    0.0000
      2 O2         7.0438   -2.0359   10.3639 O.2       1 RES1    0.0000
      3 O3         6.3318   -1.0735   12.1602 O.2       1 RES1    0.0000
      4 O4         8.6659    6.4244    7.4552 O.3       1 RES1    0.0000
      5 O5         5.7128   10.2868    6.7584 O.2       1 RES1    0.0000
      6 O6         3.8938    9.4986    5.9016 O.2       1 RES1    0.0000
      7 O7        10.5375    5.1848    7.7680 O.3       1 RES1    0.0000
      8 N1         8.3001    3.9279    8.8857 N.3       1 RES1    0.0000
      9 H1         8.4665    4.6049    9.3901 H         1 RES1    0.0000
     10 N2         6.8297   -1.0174   11.0363 N.pl3     1 RES1    0.0000
     11 N3         7.1624    4.1956    6.7831 N.3       1 RES1    0.0000
     12 H2         6.7600    3.5179    6.4400 H         1 RES1    0.0000
     13 N4         5.0180    9.3377    6.3644 N.pl3     1 RES1    0.0000
     14 C1         7.9196    1.5513    8.6324 C.ar      1 RES1    0.0000
     15 C2         7.5710    0.3318    9.1588 C.ar      1 RES1    0.0000
     16 H3         7.6077   -0.4381    8.6391 H         1 RES1    0.0000
     17 C3         7.1685    0.2746   10.4746 C.ar      1 RES1    0.0000
     18 C4         7.1208    1.3977   11.2808 C.ar      1 RES1    0.0000
     19 H4         6.8407    1.3355   12.1659 H         1 RES1    0.0000
     20 C5         7.4964    2.6106   10.7478 C.ar      1 RES1    0.0000
     21 H5         7.4805    3.3708   11.2825 H         1 RES1    0.0000
     22 C6         7.9001    2.7169    9.4202 C.ar      1 RES1    0.0000
     23 C7         7.3838    6.5682    6.9931 C.ar      1 RES1    0.0000
     24 C8         6.8688    7.8368    6.8925 C.ar      1 RES1    0.0000
     25 H6         7.3912    8.5773    7.1021 H         1 RES1    0.0000
     26 C9         5.5562    7.9953    6.4718 C.ar      1 RES1    0.0000
     27 C10        4.7537    6.9131    6.1667 C.ar      1 RES1    0.0000
     28 H7         3.8779    7.0407    5.8818 H         1 RES1    0.0000
     29 C11        5.2712    5.6479    6.2908 C.ar      1 RES1    0.0000
     30 H8         4.7305    4.9155    6.1030 H         1 RES1    0.0000
     31 C12        6.5911    5.4370    6.6964 C.ar      1 RES1    0.0000
     32 C13        8.4285    4.0132    7.4423 C.3       1 RES1    0.0000
     33 C14        9.3362    5.1967    7.0568 C.3       1 RES1    0.0000
     34 C15        9.6677    5.2049    5.5868 C.3       1 RES1    0.0000
     35 H9        10.3026    5.9143    5.4041 H         1 RES1    0.0000
     36 H10        8.8628    5.3847    5.0772 H         1 RES1    0.0000
     37 C16       10.2561    3.8775    5.1426 C.3       1 RES1    0.0000
     38 H11       11.1247    3.7598    5.5583 H         1 RES1    0.0000
     39 H12       10.3883    3.8939    4.1804 H         1 RES1    0.0000
     40 C17        9.3631    2.6891    5.5030 C.3       1 RES1    0.0000
     41 H13        8.5252    2.7447    5.0152 H         1 RES1    0.0000
     42 H14        9.8023    1.8587    5.2616 H         1 RES1    0.0000
     43 C18        9.0977    2.7169    6.9830 C.3       1 RES1    0.0000
     44 H15        9.9467    2.6106    7.4608 H         1 RES1    0.0000
     45 H16       10.3919    5.2735    8.7364 H         1 RES1    0.0000
@<TRIPOS>BOND
     1    1   14 1
     2    2   10 2
     3    3   10 2
     4    4   23 1
     5    5   13 2
     6    6   13 2
     7    7   33 1
     8    8    9 1
     9   10   17 1
    10   11   12 1
    11   13   26 1
    12   14   15 ar
    13   15   16 1
    14   17   15 ar
    15   18   17 ar
    16   19   18 1
    17   20   18 ar
    18   21   20 1
    19   22    8 1
    20   23   24 ar
    21   24   25 1
    22   26   24 ar
    23   27   26 ar
    24   28   27 1
    25   29   27 ar
    26   30   29 1
    27   31   11 1
    28   32    8 1
    29   33    4 1
    30   34   33 1
    31   35   34 1
    32   36   34 1
    33   37   34 1
    34   38   37 1
    35   39   37 1
    36   40   37 1
    37   41   40 1
    38   42   40 1
    39   43    1 1
    40   44   43 1
    41   45    7 1
    42   11   32 1
    43   14   22 ar
    44   20   22 ar
    45   23   31 ar
    46   29   31 ar
    47   32   43 1
    48   32   33 1
    49   40   43 1
@<TRIPOS>SUBSTRUCTURE
     1 RES1 1

@<TRIPOS>CRYSIN
  12.2330   16.3470   16.7620  90.0000  90.0000  90.0000  61 1

