# MOL2 file generated by ConQuest
# Please check atom types

@<TRIPOS>MOLECULE
IMIVOP
    38    38     2
SMALL
NO_CHARGES
****
Generated from CSD

@<TRIPOS>ATOM
      1 N1         5.2853    0.3871    4.3488 N.pl3     1 RES1    0.0000
      2 N2         1.2179    1.5883    9.5273 N.pl3     2 RES2    0.0000
      3 C1         5.9367   -0.1109    5.4596 C.ar      1 RES1    0.0000
      4 C2         1.8279    2.0574    8.3703 C.ar      2 RES2    0.0000
      5 N3         7.2311   -0.0254    5.2844 N.ar      1 RES1    0.0000
      6 N4         3.1120    1.7732    8.4127 N.ar      2 RES2    0.0000
      7 C3         7.3634    0.5517    4.0620 C.ar      1 RES1    0.0000
      8 C4         3.2733    1.1309    9.6024 C.ar      2 RES2    0.0000
      9 N5         6.2592    0.8358    3.4094 N.ar      1 RES1    0.0000
     10 N6         2.2022    0.9866   10.3320 N.ar      2 RES2    0.0000
     11 N7         5.3060   -0.6176    6.5184 N.3       1 RES1    0.0000
     12 N8         1.1993    2.6830    7.3943 N.3       2 RES2    0.0000
     13 H1         5.7692   -0.9352    7.1806 H         1 RES1    0.0000
     14 H2         1.6336    2.9505    6.6993 H         2 RES2    0.0000
     15 H3         4.4458   -0.6307    6.5453 H         1 RES1    0.0000
     16 H4         0.3515    2.8272    7.4501 H         2 RES2    0.0000
     17 N9         8.5896    0.7974    3.5249 N.3       1 RES1    0.0000
     18 N10        4.4747    0.7039   10.0413 N.3       2 RES2    0.0000
     19 H5         8.6641    1.1526    2.7336 H         1 RES1    0.0000
     20 H6         4.5492    0.3262   10.8191 H         2 RES2    0.0000
     21 H7         9.3051    0.6017    3.9657 H         1 RES1    0.0000
     22 H8         5.1695    0.8047    9.5485 H         2 RES2    0.0000
     23 C5         3.9660    0.5807    4.0389 C.2       1 RES1    0.0000
     24 C6        -0.0641    1.6652    9.9932 C.2       2 RES2    0.0000
     25 N11        3.7407    1.2048    2.9416 N.3       1 RES1    0.0000
     26 N12       -0.2481    1.1903   11.2041 N.3       2 RES2    0.0000
     27 H9         2.9363    1.3701    2.6951 H         1 RES1    0.0000
     28 H10       -1.0339    1.1889   11.5506 H         2 RES2    0.0000
     29 H11        4.4044    1.4644    2.4449 H         1 RES1    0.0000
     30 H12        0.4136    0.8772   11.6469 H         2 RES2    0.0000
     31 N13        3.1286    0.0790    4.9764 N.2       1 RES1    0.0000
     32 N14       -0.9284    2.1893    9.1288 N.2       2 RES2    0.0000
     33 N15        1.8011    0.2160    4.7338 N.pl3     1 RES1    0.0000
     34 N16       -2.2332    2.2741    9.5081 N.pl3     2 RES2    0.0000
     35 O1         1.0835   -0.2247    5.6136 O.2       1 RES1    0.0000
     36 O2        -2.9590    2.7576    8.6610 O.2       2 RES2    0.0000
     37 O3         1.3337    0.7242    3.7135 O.2       1 RES1    0.0000
     38 O4        -2.6737    1.8971   10.6092 O.2       2 RES2    0.0000
@<TRIPOS>BOND
     1    1    3 ar
     2    2    4 ar
     3    3    5 ar
     4    4    6 ar
     5    5    7 ar
     6    6    8 ar
     7    7    9 ar
     8    8   10 ar
     9    9    1 ar
    10   10    2 ar
    11   11    3 1
    12   12    4 1
    13   13   11 1
    14   14   12 1
    15   15   11 1
    16   16   12 1
    17   17    7 1
    18   18    8 1
    19   19   17 1
    20   20   18 1
    21   21   17 1
    22   22   18 1
    23   23    1 1
    24   24    2 1
    25   25   23 1
    26   26   24 1
    27   27   25 1
    28   28   26 1
    29   29   25 1
    30   30   26 1
    31   31   23 2
    32   32   24 2
    33   33   31 1
    34   34   32 1
    35   35   33 2
    36   36   34 2
    37   37   33 2
    38   38   34 2
@<TRIPOS>SUBSTRUCTURE
     1 RES1 1
     2 RES2 2

@<TRIPOS>CRYSIN
  20.6780    7.2493   19.2510  90.0000  90.0000  90.0000  61 1

