# MOL2 file generated by ConQuest
# Please check atom types

@<TRIPOS>MOLECULE
IMIWOQ
    17    16     1
SMALL
NO_CHARGES
****
Generated from CSD

@<TRIPOS>ATOM
      1 C1         0.9558    9.7972   -0.1501 C.2       1 RES1    0.0000
      2 C2         1.2815    9.3007   -3.3257 C.2       1 RES1    0.0000
      3 N1         0.1342    9.2742    0.7972 N.2       1 RES1    0.0000
      4 N2        -0.2591   10.0276    1.8195 N.pl3     1 RES1    0.0000
      5 N3         1.3873   11.0223   -0.2729 N.3       1 RES1    0.0000
      6 N4         1.3375    8.8648   -1.0213 N.3       1 RES1    0.0000
      7 N5         1.9957    9.2151   -2.1740 N.am      1 RES1    0.0000
      8 N6         1.9848    9.3941   -4.4465 N.am      1 RES1    0.0000
      9 O1         0.1789   11.1639    2.0380 O.2       1 RES1    0.0000
     10 O2        -1.0645    9.5124    2.5876 O.2       1 RES1    0.0000
     11 O3         0.0614    9.3412   -3.2891 O.2       1 RES1    0.0000
     12 H1         1.1517   11.5655    0.3283 H         1 RES1    0.0000
     13 H2         1.8670   11.2231   -1.0317 H         1 RES1    0.0000
     14 H3         0.9741    8.0943   -0.9379 H         1 RES1    0.0000
     15 H4         2.7771    9.0438   -2.2134 H         1 RES1    0.0000
     16 H5         2.8001    9.3396   -4.4643 H         1 RES1    0.0000
     17 H6         1.6062    9.3240   -5.1865 H         1 RES1    0.0000
@<TRIPOS>BOND
     1    1    3 2
     2    2    7 1
     3    3    4 1
     4    4    9 2
     5    5    1 1
     6    6    1 1
     7    7    6 1
     8    8    2 1
     9   10    4 2
    10   11    2 2
    11   12    5 1
    12   13    5 1
    13   14    6 1
    14   15    7 1
    15   16    8 1
    16   17    8 1
@<TRIPOS>SUBSTRUCTURE
     1 RES1 1

@<TRIPOS>CRYSIN
   4.4690   15.5660    9.4131  90.0000  94.8960  90.0000 231 1

