# MOL2 file generated by ConQuest
# Please check atom types

@<TRIPOS>MOLECULE
IMODUL
    60    53     2
SMALL
NO_CHARGES
****
Generated from CSD

@<TRIPOS>ATOM
      1 O1        -0.4032    7.6050   10.2254 O.3       1 RES1    0.0000
      2 O2        -3.1683    9.4412    7.2468 O.2       1 RES1    0.0000
      3 O3        -2.3196    6.9309    9.2737 O.2       1 RES1    0.0000
      4 N1         0.0196    8.9956    7.3171 N.pl3     1 RES1    0.0000
      5 H1        -0.2179    8.1881    7.0618 H         1 RES1    0.0000
      6 O4        -2.2152   15.9082   11.6867 O.2       1 RES1    0.0000
      7 O5        -0.1018   16.3863   11.6957 O.2       1 RES1    0.0000
      8 N2         1.7270    9.1406    5.6608 N.3       1 RES1    0.0000
      9 N3        -1.0386   15.6583   11.4055 N.pl3     1 RES1    0.0000
     10 N4         2.2575   13.0743    6.4421 N.1       1 RES1    0.0000
     11 C1        -0.7588   14.4172   10.6722 C.ar      1 RES1    0.0000
     12 C2        -3.0331    9.4050    8.4330 C.2       1 RES1    0.0000
     13 C3        -0.2460   12.1480    9.1717 C.ar      1 RES1    0.0000
     14 C4        -1.8115   13.5953   10.3247 C.ar      1 RES1    0.0000
     15 H2        -2.6967   13.7956   10.6071 H         1 RES1    0.0000
     16 C5         0.9873    9.7058    6.6597 C.2       1 RES1    0.0000
     17 C6        -0.5609    9.7699    8.3070 C.2       1 RES1    0.0000
     18 C7        -1.5201    7.7848    9.5467 C.2       1 RES1    0.0000
     19 C8         1.0378   10.9640    7.2541 C.2       1 RES1    0.0000
     20 C9         1.7458   12.1079    6.8062 C.1       1 RES1    0.0000
     21 C10       -1.5525   12.4697    9.5557 C.ar      1 RES1    0.0000
     22 H3        -2.2717   11.9102    9.2868 H         1 RES1    0.0000
     23 C11        0.5474   14.1245   10.3175 C.ar      1 RES1    0.0000
     24 H4         1.2593   14.6975   10.5752 H         1 RES1    0.0000
     25 C12        0.0402   10.9898    8.3076 C.2       1 RES1    0.0000
     26 C13        0.7952   12.9820    9.5811 C.ar      1 RES1    0.0000
     27 H5         1.6894   12.7608    9.3492 H         1 RES1    0.0000
     28 C14       -1.6862    9.2459    9.1435 C.3       1 RES1    0.0000
     29 H6        -1.7197    9.7905    9.9822 H         1 RES1    0.0000
     30 C15        1.2757    7.8867    5.1023 C.3       1 RES1    0.0000
     31 H7         1.2228    7.2138    5.8119 H         1 RES1    0.0000
     32 H8         1.9082    7.5891    4.4148 H         1 RES1    0.0000
     33 H9         0.3896    8.0077    4.7010 H         1 RES1    0.0000
     34 C16       -0.1382    6.2549   10.7414 C.3       1 RES1    0.0000
     35 H10       -0.4593    5.5733   10.0988 H         1 RES1    0.0000
     36 H11       -0.6068    6.1197   11.6030 H         1 RES1    0.0000
     37 C17        2.4442   10.0225    4.7580 C.3       1 RES1    0.0000
     38 H12        1.8022   10.5581    4.2470 H         1 RES1    0.0000
     39 H13        2.9873    9.4876    4.1415 H         1 RES1    0.0000
     40 H14        3.0266   10.6160    5.2764 H         1 RES1    0.0000
     41 C18        1.3367    6.1330   10.9310 C.3       1 RES1    0.0000
     42 H15        1.7870    6.2540   10.0701 H         1 RES1    0.0000
     43 H16        1.5474    5.2455   11.2881 H         1 RES1    0.0000
     44 H17        1.6424    6.8201   11.5598 H         1 RES1    0.0000
     45 O6        -3.9954    9.6785    9.3508 O.3       1 RES1    0.0000
     46 C19       -5.3490    9.5219    8.6603 C.3       1 RES1    0.0000
     47 H18       -5.5152   10.2750    8.0401 H         1 RES1    0.0000
     48 H19       -5.3863    8.6740    8.1504 H         1 RES1    0.0000
     49 C20       -6.3623    9.5179    9.7760 C.3       1 RES1    0.0000
     50 H20       -7.2650    9.5416    9.3955 H         1 RES1    0.0000
     51 H21       -6.2257   10.3053   10.3434 H         1 RES1    0.0000
     52 H22       -6.2541    8.7056   10.3130 H         1 RES1    0.0000
     53 O7        -4.0324    9.3744    9.2820 Du        2 SUP2    0.0000
     54 C21       -5.3765    9.8918    8.9000 Du        2 SUP2    0.0000
     55 H23       -5.4218   10.1631    7.9490 Du        2 SUP2    0.0000
     56 H24       -5.6719   10.6384    9.4802 Du        2 SUP2    0.0000
     57 C22       -6.1296    8.6252    9.1702 Du        2 SUP2    0.0000
     58 H25       -5.8189    7.9235    8.5612 Du        2 SUP2    0.0000
     59 H26       -7.0868    8.7793    9.0311 Du        2 SUP2    0.0000
     60 H27       -5.9746    8.3448   10.0972 Du        2 SUP2    0.0000
@<TRIPOS>BOND
     1    1   18 1
     2    2   12 2
     3    3   18 2
     4    4    5 1
     5    6    9 2
     6    7    9 2
     7    8   16 1
     8    9   11 1
     9   10   20 3
    10   11   14 ar
    11   12   28 1
    12   13   21 ar
    13   14   15 1
    14   16    4 1
    15   17    4 1
    16   18   28 1
    17   19   16 2
    18   20   19 1
    19   21   14 ar
    20   22   21 1
    21   23   11 ar
    22   24   23 1
    23   25   13 1
    24   26   13 ar
    25   27   26 1
    26   28   17 1
    27   29   28 1
    28   30    8 1
    29   31   30 1
    30   32   30 1
    31   33   30 1
    32   34    1 1
    33   35   34 1
    34   36   34 1
    35   37    8 1
    36   38   37 1
    37   39   37 1
    38   40   37 1
    39   41   34 1
    40   42   41 1
    41   43   41 1
    42   44   41 1
    43   45   12 1
    44   46   45 1
    45   47   46 1
    46   48   46 1
    47   49   46 1
    48   50   49 1
    49   51   49 1
    50   52   49 1
    51   17   25 2
    52   19   25 1
    53   23   26 ar
@<TRIPOS>SUBSTRUCTURE
     1 RES1 1
     2 SUP2 53

@<TRIPOS>CRYSIN
   9.5426   13.1663   16.2954  90.0000 101.2150  90.0000  14 1

