# MOL2 file generated by ConQuest
# Please check atom types

@<TRIPOS>MOLECULE
IMUKEH
    88    90     3
SMALL
NO_CHARGES
****
Generated from CSD

@<TRIPOS>ATOM
      1 O1         5.0098    3.5260   17.1196 O.2       1 RES1    0.0000
      2 O2         4.5555    4.3119   11.6629 O.3       1 RES1    0.0000
      3 O3         4.8137    0.4500    6.1207 O.2       2 RES2    0.0000
      4 O4         5.2223   -0.3296   11.5880 O.3       2 RES2    0.0000
      5 N1         5.2864    4.9106   12.7299 N.2       1 RES1    0.0000
      6 N2         4.5003   -0.9440   10.4940 N.2       2 RES2    0.0000
      7 C1         5.3648   -0.0566   17.0960 C.ar      1 RES1    0.0000
      8 H1         6.0912   -0.1676   16.5270 H         1 RES1    0.0000
      9 C2         4.7549   -1.1745   17.7005 C.ar      1 RES1    0.0000
     10 H2         5.1174   -2.0234   17.5801 H         1 RES1    0.0000
     11 C3         3.6270   -1.0085   18.4657 C.ar      1 RES1    0.0000
     12 H3         3.1919   -1.7536   18.8156 H         1 RES1    0.0000
     13 C4         3.1414    0.2329   18.7144 C.ar      1 RES1    0.0000
     14 H4         2.3839    0.3320   19.2463 H         1 RES1    0.0000
     15 C5         3.7526    1.3453   18.1903 C.ar      1 RES1    0.0000
     16 H5         3.4224    2.1917   18.3881 H         1 RES1    0.0000
     17 C6         4.8675    1.2099   17.3616 C.ar      1 RES1    0.0000
     18 C7         5.4581    2.4529   16.7772 C.2       1 RES1    0.0000
     19 C8         6.6097    2.3396   15.8048 C.3       1 RES1    0.0000
     20 H6         7.2553    1.7189   16.2031 H         1 RES1    0.0000
     21 C9         6.2810    1.7937   14.3914 C.3       1 RES1    0.0000
     22 H7         5.9552    0.8709   14.4520 H         1 RES1    0.0000
     23 C10        7.6762    1.8275   13.7120 C.3       1 RES1    0.0000
     24 C11        7.5959    1.9376   12.1835 C.3       1 RES1    0.0000
     25 H8         8.4803    2.0273   11.8238 H         1 RES1    0.0000
     26 H9         7.0727    2.7062   11.9464 H         1 RES1    0.0000
     27 H10        7.1841    1.1470   11.8270 H         1 RES1    0.0000
     28 C12        8.4505    0.5444   14.0471 C.3       1 RES1    0.0000
     29 H11        8.4712    0.4217   14.9991 H         1 RES1    0.0000
     30 H12        9.3479    0.6160   13.7133 H         1 RES1    0.0000
     31 H13        8.0167   -0.2077   13.6378 H         1 RES1    0.0000
     32 C13        8.3456    3.0721   14.3543 C.3       1 RES1    0.0000
     33 H14        9.1951    2.8266   14.7507 H         1 RES1    0.0000
     34 H15        8.5062    3.7502   13.6787 H         1 RES1    0.0000
     35 C14        7.3917    3.6133   15.4332 C.3       1 RES1    0.0000
     36 C15        8.1333    4.2450   16.6197 C.3       1 RES1    0.0000
     37 H16        7.4949    4.5951   17.2469 H         1 RES1    0.0000
     38 H17        8.6940    4.9570   16.3037 H         1 RES1    0.0000
     39 H18        8.6732    3.5787   17.0520 H         1 RES1    0.0000
     40 C16        6.4616    4.6714   14.8111 C.3       1 RES1    0.0000
     41 H19        5.8672    5.0105   15.4989 H         1 RES1    0.0000
     42 H20        6.9989    5.4133   14.4929 H         1 RES1    0.0000
     43 C17        5.6388    4.1459   13.6749 C.2       1 RES1    0.0000
     44 C18        5.2206    2.6913   13.7293 C.3       1 RES1    0.0000
     45 H21        5.0566    2.3750   12.8267 H         1 RES1    0.0000
     46 H22        4.3897    2.6189   14.2257 H         1 RES1    0.0000
     47 C19        6.0601    2.6402    5.0449 C.ar      2 RES2    0.0000
     48 H23        6.4110    1.7945    4.8823 H         2 RES2    0.0000
     49 C20        6.6649    3.7502    4.4667 C.ar      2 RES2    0.0000
     50 H24        7.4159    3.6519    3.9266 H         2 RES2    0.0000
     51 C21        6.1288    5.0105    4.7082 C.ar      2 RES2    0.0000
     52 H25        6.5276    5.7634    4.3353 H         2 RES2    0.0000
     53 C22        5.0139    5.1442    5.4928 C.ar      2 RES2    0.0000
     54 H26        4.6603    5.9891    5.6557 H         2 RES2    0.0000
     55 C23        4.4260    4.0460    6.0345 C.ar      2 RES2    0.0000
     56 H27        3.6516    4.1538    6.5391 H         2 RES2    0.0000
     57 C24        4.9389    2.7708    5.8626 C.ar      2 RES2    0.0000
     58 C25        4.3494    1.5262    6.4552 C.2       2 RES2    0.0000
     59 C26        3.1869    1.6458    7.4225 C.3       2 RES2    0.0000
     60 H28        2.5406    2.2633    7.0201 H         2 RES2    0.0000
     61 C27        3.5154    2.1839    8.8294 C.3       2 RES2    0.0000
     62 H29        3.8420    3.1059    8.7743 H         2 RES2    0.0000
     63 C28        4.5702    1.2800    9.4958 C.3       2 RES2    0.0000
     64 H30        5.4062    1.3563    9.0101 H         2 RES2    0.0000
     65 H31        4.7251    1.5883   10.4028 H         2 RES2    0.0000
     66 C29        4.1538   -0.1605    9.5323 C.2       2 RES2    0.0000
     67 C30        3.3266   -0.7025    8.4191 C.3       2 RES2    0.0000
     68 H32        2.7802   -1.4294    8.7586 H         2 RES2    0.0000
     69 H33        3.9145   -1.0668    7.7400 H         2 RES2    0.0000
     70 C31        2.4163    0.3422    7.7774 C.3       2 RES2    0.0000
     71 C32        1.6847   -0.2919    6.6089 C.3       2 RES2    0.0000
     72 H34        1.0838   -0.9661    6.9352 H         2 RES2    0.0000
     73 H35        2.3205   -0.6915    6.0109 H         2 RES2    0.0000
     74 H36        1.1848    0.3815    6.1398 H         2 RES2    0.0000
     75 C33        1.4503    0.8913    8.8470 C.3       2 RES2    0.0000
     76 H37        1.2742    0.2124    9.5163 H         2 RES2    0.0000
     77 H38        0.6073    1.1423    8.4380 H         2 RES2    0.0000
     78 C34        2.1159    2.1422    9.5125 C.3       2 RES2    0.0000
     79 C35        2.1754    2.0250   11.0325 C.3       2 RES2    0.0000
     80 H39        2.6843    2.7566   11.3900 H         2 RES2    0.0000
     81 H40        2.5937    1.1958   11.2737 H         2 RES2    0.0000
     82 H41        1.2845    2.0509   11.3900 H         2 RES2    0.0000
     83 C36        1.3454    3.4127    9.1613 C.3       2 RES2    0.0000
     84 H42        0.4480    3.3466    9.4974 H         2 RES2    0.0000
     85 H43        1.3234    3.5197    8.2085 H         2 RES2    0.0000
     86 H44        1.7805    4.1711    9.5572 H         2 RES2    0.0000
     87 O5         5.6147    6.2975   12.9842 Du        3 SUP3    0.0000
     88 O6         4.1799   -2.3239   10.2595 Du        3 SUP3    0.0000
@<TRIPOS>BOND
     1    1   18 2
     2    2    5 1
     3    3   58 2
     4    4    6 1
     5    5   43 2
     6    6   66 2
     7    7    8 1
     8    9    7 ar
     9   10    9 1
    10   11    9 ar
    11   12   11 1
    12   13   11 ar
    13   14   13 1
    14   15   13 ar
    15   16   15 1
    16   17    7 ar
    17   18   17 1
    18   19   18 1
    19   20   19 1
    20   21   19 1
    21   22   21 1
    22   23   21 1
    23   24   23 1
    24   25   24 1
    25   26   24 1
    26   27   24 1
    27   28   23 1
    28   29   28 1
    29   30   28 1
    30   31   28 1
    31   32   23 1
    32   33   32 1
    33   34   32 1
    34   35   19 1
    35   36   35 1
    36   37   36 1
    37   38   36 1
    38   39   36 1
    39   40   35 1
    40   41   40 1
    41   42   40 1
    42   43   40 1
    43   44   21 1
    44   45   44 1
    45   46   44 1
    46   47   48 1
    47   49   47 ar
    48   50   49 1
    49   51   49 ar
    50   52   51 1
    51   53   51 ar
    52   54   53 1
    53   55   53 ar
    54   56   55 1
    55   57   47 ar
    56   58   57 1
    57   59   58 1
    58   60   59 1
    59   61   59 1
    60   62   61 1
    61   63   61 1
    62   64   63 1
    63   65   63 1
    64   66   63 1
    65   67   66 1
    66   68   67 1
    67   69   67 1
    68   70   59 1
    69   71   70 1
    70   72   71 1
    71   73   71 1
    72   74   71 1
    73   75   70 1
    74   76   75 1
    75   77   75 1
    76   78   61 1
    77   79   78 1
    78   80   79 1
    79   81   79 1
    80   82   79 1
    81   83   78 1
    82   84   83 1
    83   85   83 1
    84   86   83 1
    85   15   17 ar
    86   32   35 1
    87   43   44 1
    88   55   57 ar
    89   67   70 1
    90   75   78 1
@<TRIPOS>SUBSTRUCTURE
     1 RES1 1
     2 RES2 3
     3 SUP3 87

@<TRIPOS>CRYSIN
  12.9490    7.8670   31.4380  90.0000  90.0000  90.0000  29 1

