# MOL2 file generated by ConQuest
# Please check atom types

@<TRIPOS>MOLECULE
IMUQOX
   100    96     3
SMALL
NO_CHARGES
****
Generated from CSD

@<TRIPOS>ATOM
      1 N1         8.0916    7.0869    4.7516 N.2       1 RES1    0.0000
      2 N2         8.2783    6.0005    3.8886 N.am      1 RES1    0.0000
      3 N3         8.4379    5.2113    5.9494 N.am      1 RES1    0.0000
      4 N4         4.6232    0.7083    3.4817 N.pl3     1 RES1    0.0000
      5 N5        11.7461    6.0005    3.9880 N.2       2 RES2    0.0000
      6 N6        11.5478    7.0673    4.8233 N.am      2 RES2    0.0000
      7 N7        11.4501    7.8948    2.7583 N.am      2 RES2    0.0000
      8 N8        15.3561   12.1586    5.5501 N.pl3     2 RES2    0.0000
      9 O1         8.0130    7.2248    7.0385 O.3       1 RES1    0.0000
     10 O2         4.9590   -0.3967    3.2328 O.2       1 RES1    0.0000
     11 O3         3.4559    1.0268    3.5820 O.2       1 RES1    0.0000
     12 O4         8.3248    7.2929    2.0257 O.2       1 RES1    0.0000
     13 O5         8.6201    5.0691    1.9425 O.3       1 RES1    0.0000
     14 O6         9.2438    3.2642    6.7523 O.2       1 RES1    0.0000
     15 O7         8.7757    4.9687    8.1386 O.3       1 RES1    0.0000
     16 O8        11.8610    5.8643    1.6874 O.3       2 RES2    0.0000
     17 O9        10.7045    9.8666    1.9631 O.2       2 RES2    0.0000
     18 O10       11.2663    8.1979    0.5430 O.3       2 RES2    0.0000
     19 O11       11.5896    5.7996    6.6995 O.2       2 RES2    0.0000
     20 O12       11.2767    8.0268    6.7563 O.3       2 RES2    0.0000
     21 O13       15.0807   13.2671    5.7606 O.2       2 RES2    0.0000
     22 O14       16.4956   11.7822    5.6052 O.2       2 RES2    0.0000
     23 C1         8.1734    6.5803    5.9093 C.2       1 RES1    0.0000
     24 C2         8.5157    4.7252    4.5632 C.3       1 RES1    0.0000
     25 H1         9.4175    4.3965    4.3655 H         1 RES1    0.0000
     26 C3         7.4922    3.6609    4.2713 C.ar      1 RES1    0.0000
     27 C4         7.8729    2.4818    3.6689 C.ar      1 RES1    0.0000
     28 H2         8.7636    2.3507    3.4333 H         1 RES1    0.0000
     29 C5         6.9454    1.4950    3.4132 C.ar      1 RES1    0.0000
     30 H3         7.1962    0.6896    3.0223 H         1 RES1    0.0000
     31 C6         5.6389    1.7402    3.7557 C.ar      1 RES1    0.0000
     32 C7         5.2380    2.8768    4.3655 C.ar      1 RES1    0.0000
     33 H4         4.3500    2.9960    4.6195 H         1 RES1    0.0000
     34 C8         6.1814    3.8602    4.6028 C.ar      1 RES1    0.0000
     35 H5         5.9227    4.6647    4.9904 H         1 RES1    0.0000
     36 C9         7.6489    8.6304    6.8933 C.3       1 RES1    0.0000
     37 H6         6.8679    8.7215    6.3253 H         1 RES1    0.0000
     38 H7         8.3797    9.1311    6.4990 H         1 RES1    0.0000
     39 C10        7.3550    9.1328    8.2633 C.3       1 RES1    0.0000
     40 H8         6.6667    8.5938    8.6626 H         1 RES1    0.0000
     41 H9         7.0585   10.0446    8.2132 H         1 RES1    0.0000
     42 H10        8.1520    9.0834    8.7996 H         1 RES1    0.0000
     43 C11        8.3971    6.2287    2.5612 C.2       1 RES1    0.0000
     44 C12        8.5809    5.1074    0.4778 C.3       1 RES1    0.0000
     45 H11        7.9190    5.7511    0.1771 H         1 RES1    0.0000
     46 H12        9.4466    5.3662    0.1253 H         1 RES1    0.0000
     47 C13        8.2473    3.8406    0.0418 C.3       1 RES1    0.0000
     48 H13        8.9277    3.2199    0.3108 H         1 RES1    0.0000
     49 H14        8.1731    3.8406   -0.9155 H         1 RES1    0.0000
     50 H15        7.4053    3.5801    0.4277 H         1 RES1    0.0000
     51 C14        8.8501    4.3914    6.9768 C.2       1 RES1    0.0000
     52 C15        9.2745    4.2271    9.2724 C.3       1 RES1    0.0000
     53 H16        8.6206    3.5596    9.5364 H         1 RES1    0.0000
     54 H17       10.0927    3.7674    9.0251 H         1 RES1    0.0000
     55 C16        9.5261    5.0870   10.3450 C.3       1 RES1    0.0000
     56 H18       10.1297    5.7783   10.0660 H         1 RES1    0.0000
     57 H19        9.9179    4.5915   11.0667 H         1 RES1    0.0000
     58 H20        8.7000    5.4829   10.6373 H         1 RES1    0.0000
     59 C17       11.6921    6.5190    2.8068 C.2       2 RES2    0.0000
     60 C18       11.3405    8.3708    4.1116 C.3       2 RES2    0.0000
     61 H21       10.4421    8.7207    4.2853 H         2 RES2    0.0000
     62 C19       12.3924    9.3992    4.4658 C.ar      2 RES2    0.0000
     63 C20       12.0429   10.5895    5.0572 C.ar      2 RES2    0.0000
     64 H22       11.1464   10.7717    5.2243 H         2 RES2    0.0000
     65 C21       13.0058   11.5217    5.4097 C.ar      2 RES2    0.0000
     66 H23       12.7720   12.3305    5.8040 H         2 RES2    0.0000
     67 C22       14.3058   11.2101    5.1591 C.ar      2 RES2    0.0000
     68 C23       14.7053   10.0403    4.5710 C.ar      2 RES2    0.0000
     69 H24       15.6050    9.8649    4.4157 H         2 RES2    0.0000
     70 C24       13.7413    9.1387    4.2219 C.ar      2 RES2    0.0000
     71 H25       13.9873    8.3384    3.8159 H         2 RES2    0.0000
     72 C25       12.1392    4.4221    1.8712 C.3       2 RES2    0.0000
     73 H26       11.3211    3.9300    2.0433 H         2 RES2    0.0000
     74 H27       12.7535    4.2790    2.6080 H         2 RES2    0.0000
     75 C26       11.0839    8.7292    1.7392 C.2       2 RES2    0.0000
     76 C27       11.0802    9.1038   -0.6499 C.3       2 RES2    0.0000
     77 H28       11.1782   10.0352   -0.3976 H         2 RES2    0.0000
     78 H29       11.7183    8.8944   -1.3499 H         2 RES2    0.0000
     79 C28        9.7670    8.8314   -1.0676 C.3       2 RES2    0.0000
     80 H30        9.6611    7.8863   -1.1979 H         2 RES2    0.0000
     81 H31        9.5896    9.2894   -1.8912 H         2 RES2    0.0000
     82 H32        9.1475    9.1319   -0.3960 H         2 RES2    0.0000
     83 C29       11.4760    6.8604    6.1365 C.2       2 RES2    0.0000
     84 C30       11.2602    7.9868    8.1965 C.3       2 RES2    0.0000
     85 H33       11.9830    7.4274    8.5222 H         2 RES2    0.0000
     86 H34       10.4210    7.6173    8.5105 H         2 RES2    0.0000
     87 C31       11.4270    9.3762    8.6960 C.3       2 RES2    0.0000
     88 H35       12.3140    9.6844    8.4955 H         2 RES2    0.0000
     89 H36       11.2867    9.3933    9.6450 H         2 RES2    0.0000
     90 H37       10.7837    9.9484    8.2683 H         2 RES2    0.0000
     91 C32       12.7508    4.0074    0.5747 C.3       2 RES2    0.0000
     92 H38       13.3439    4.6962    0.2656 H         2 RES2    0.0000
     93 H39       12.0598    3.8653   -0.0752 H         2 RES2    0.0000
     94 H40       13.2459    3.1935    0.7000 H         2 RES2    0.0000
     95 C33       13.4869    4.1862    1.7943 Du        3 SUP3    0.0000
     96 H41       11.6892    3.9121    1.1946 Du        3 SUP3    0.0000
     97 H42       11.8268    4.1479    2.7366 Du        3 SUP3    0.0000
     98 H43       13.8390    4.6017    1.0041 Du        3 SUP3    0.0000
     99 H44       13.6431    3.2404    1.7576 Du        3 SUP3    0.0000
    100 H45       13.9211    4.5523    2.5695 Du        3 SUP3    0.0000
@<TRIPOS>BOND
     1    1    2 1
     2    2   24 1
     3    3   23 1
     4    4   10 2
     5    5    6 1
     6    6   60 1
     7    7   59 1
     8    8   21 2
     9    9   23 1
    10   11    4 2
    11   12   43 2
    12   13   43 1
    13   14   51 2
    14   15   51 1
    15   16   59 1
    16   17   75 2
    17   18   75 1
    18   19   83 2
    19   20   83 1
    20   22    8 2
    21   23    1 2
    22   24    3 1
    23   25   24 1
    24   26   24 1
    25   27   26 ar
    26   28   27 1
    27   29   27 ar
    28   30   29 1
    29   31    4 1
    30   32   31 ar
    31   33   32 1
    32   34   26 ar
    33   35   34 1
    34   36    9 1
    35   37   36 1
    36   38   36 1
    37   39   36 1
    38   40   39 1
    39   41   39 1
    40   42   39 1
    41   43    2 1
    42   44   13 1
    43   45   44 1
    44   46   44 1
    45   47   44 1
    46   48   47 1
    47   49   47 1
    48   50   47 1
    49   51    3 1
    50   52   15 1
    51   53   52 1
    52   54   52 1
    53   55   52 1
    54   56   55 1
    55   57   55 1
    56   58   55 1
    57   59    5 2
    58   60    7 1
    59   61   60 1
    60   62   60 1
    61   63   62 ar
    62   64   63 1
    63   65   63 ar
    64   66   65 1
    65   67    8 1
    66   68   67 ar
    67   69   68 1
    68   70   62 ar
    69   71   70 1
    70   72   16 1
    71   73   72 1
    72   74   72 1
    73   75    7 1
    74   76   18 1
    75   77   76 1
    76   78   76 1
    77   79   76 1
    78   80   79 1
    79   81   79 1
    80   82   79 1
    81   83    6 1
    82   84   20 1
    83   85   84 1
    84   86   84 1
    85   87   84 1
    86   88   87 1
    87   89   87 1
    88   90   87 1
    89   91   72 1
    90   92   91 1
    91   93   91 1
    92   94   91 1
    93   29   31 ar
    94   32   34 ar
    95   65   67 ar
    96   68   70 ar
@<TRIPOS>SUBSTRUCTURE
     1 RES1 1
     2 RES2 5
     3 SUP3 95

@<TRIPOS>CRYSIN
  26.4760    8.5138   16.7070  90.0000  90.0000  90.0000  29 1

