# MOL2 file generated by ConQuest
# Please check atom types

@<TRIPOS>MOLECULE
IMURIS
    44    45     1
SMALL
USER_CHARGES
****
Generated from CSD

@<TRIPOS>ATOM
      1 O1         5.5980    3.8441    5.5900 O.3       1 RES1    0.0000
      2 O2         4.3670    5.5679    6.3686 O.2       1 RES1    0.0000
      3 O3         3.6812    3.1734    8.3338 O.2       1 RES1   -1.0000
      4 C1         3.8418    4.6430    4.2326 C.ar      1 RES1    0.0000
      5 C2         2.6904    5.4203    4.0950 C.ar      1 RES1    0.0000
      6 C3         1.9360    5.3375    2.9312 C.ar      1 RES1    0.0000
      7 C4         2.3365    4.4907    1.9046 C.ar      1 RES1    0.0000
      8 C5         3.4958    3.7290    2.0278 C.ar      1 RES1    0.0000
      9 C6         4.2539    3.8043    3.1951 C.ar      1 RES1    0.0000
     10 C7         4.6044    4.7565    5.5045 C.2       1 RES1    0.0000
     11 C8         6.5053    3.9859    6.7080 C.3       1 RES1    0.0000
     12 C9         6.0385    3.1993    7.9169 C.3       1 RES1    0.0000
     13 N1         4.8031    3.7566    8.4947 N.pl3     1 RES1    1.0000
     14 H1         2.4283    6.0103    4.8074 H         1 RES1    0.0000
     15 H2         1.1477    5.8938    2.8396 H         1 RES1    0.0000
     16 H3         1.7670    4.4117    1.0960 H         1 RES1    0.0000
     17 H4         3.7942    3.1411    1.3148 H         1 RES1    0.0000
     18 H5         5.0576    3.2887    3.2914 H         1 RES1    0.0000
     19 H6         6.6101    4.9339    6.9058 H         1 RES1    0.0000
     20 H7         7.3387    3.6202    6.4081 H         1 RES1    0.0000
     21 H8         6.7121    3.2326    8.6089 H         1 RES1    0.0000
     22 H9         5.7997    2.2917    7.6806 H         1 RES1    0.0000
     23 O1B        4.1032    4.7877   12.0585 O.3       1 RES1    0.0000
     24 O2B        5.3342    3.0639   11.2798 O.2       1 RES1    0.0000
     25 O3B        6.0200    5.4584    9.3147 O.2       1 RES1   -1.0000
     26 C1B        5.8594    3.9888   13.4158 C.ar      1 RES1    0.0000
     27 C2B        7.0108    3.2115   13.5535 C.ar      1 RES1    0.0000
     28 C3B        7.7652    3.2943   14.7172 C.ar      1 RES1    0.0000
     29 C4B        7.3646    4.1411   15.7438 C.ar      1 RES1    0.0000
     30 C5B        6.2054    4.9028   15.6206 C.ar      1 RES1    0.0000
     31 C6B        5.4472    4.8275   14.4534 C.ar      1 RES1    0.0000
     32 C7B        5.0968    3.8753   12.1439 C.2       1 RES1    0.0000
     33 C8B        3.1958    4.6459   10.9404 C.3       1 RES1    0.0000
     34 C9B        3.6626    5.4325    9.7315 C.3       1 RES1    0.0000
     35 N1B        4.8980    4.8752    9.1537 N.pl3     1 RES1    1.0000
     36 H1B        7.2729    2.6215   12.8410 H         1 RES1    0.0000
     37 H2B        8.5535    2.7380   14.8088 H         1 RES1    0.0000
     38 H3B        7.9342    4.2201   16.5525 H         1 RES1    0.0000
     39 H4B        5.9069    5.4907   16.3336 H         1 RES1    0.0000
     40 H5B        4.6436    5.3431   14.3570 H         1 RES1    0.0000
     41 H6B        3.0910    3.6979   10.7426 H         1 RES1    0.0000
     42 H7B        2.3625    5.0116   11.2403 H         1 RES1    0.0000
     43 H8B        2.9890    5.3992    9.0395 H         1 RES1    0.0000
     44 H9B        3.9015    6.3401    9.9678 H         1 RES1    0.0000
@<TRIPOS>BOND
     1    1   10 1
     2    2   10 2
     3    3   13 1
     4    4    5 ar
     5    5    6 ar
     6    6    7 ar
     7    7    8 ar
     8    8    9 ar
     9    9    4 ar
    10   10    4 1
    11   11    1 1
    12   12   11 1
    13   13   12 1
    14   14    5 1
    15   15    6 1
    16   16    7 1
    17   17    8 1
    18   18    9 1
    19   19   11 1
    20   20   11 1
    21   21   12 1
    22   22   12 1
    23   23   32 1
    24   24   32 2
    25   25   35 1
    26   26   27 ar
    27   27   28 ar
    28   28   29 ar
    29   29   30 ar
    30   30   31 ar
    31   31   26 ar
    32   32   26 1
    33   33   23 1
    34   34   33 1
    35   35   13 2
    36   36   27 1
    37   37   28 1
    38   38   29 1
    39   39   30 1
    40   40   31 1
    41   41   33 1
    42   42   33 1
    43   43   34 1
    44   44   34 1
    45   34   35 1
@<TRIPOS>SUBSTRUCTURE
     1 RES1 1

@<TRIPOS>CRYSIN
   5.5243    8.6318   17.6998  90.0000  94.3660  90.0000  14 1

