# MOL2 file generated by ConQuest
# Please check atom types

@<TRIPOS>MOLECULE
IMUWIX
    10    10     1
SMALL
NO_CHARGES
****
Generated from CSD

@<TRIPOS>ATOM
      1 C1         8.6538    1.2898    0.6036 C.2       1 RES1    0.0000
      2 N1         7.8590    0.4533   -0.0325 N.2       1 RES1    0.0000
      3 N2         6.7012    0.9508    0.3397 N.3       1 RES1    0.0000
      4 N3         6.7399    1.9924    1.1451 N.2       1 RES1    0.0000
      5 N4         8.0306    2.2323    1.3152 N.2       1 RES1    0.0000
      6 N5        10.0984    1.1941    0.5153 N.pl3     1 RES1    0.0000
      7 O1         5.5416    0.3961   -0.0532 O.3       1 RES1    0.0000
      8 O2        10.7470    2.0395    1.1123 O.2       1 RES1    0.0000
      9 O3        10.5550    0.2747   -0.1482 O.2       1 RES1    0.0000
     10 H1         5.1931    0.9597   -0.5956 H         1 RES1    0.0000
@<TRIPOS>BOND
     1    1    2 2
     2    2    3 1
     3    3    4 1
     4    4    5 2
     5    5    1 1
     6    6    1 1
     7    7    3 1
     8    8    6 2
     9    9    6 2
    10   10    7 1
@<TRIPOS>SUBSTRUCTURE
     1 RES1 1

@<TRIPOS>CRYSIN
   7.9946    9.1402    6.2269  90.0000  99.5840  90.0000   9 1

