# MOL2 file generated by ConQuest
# Please check atom types

@<TRIPOS>MOLECULE
IMUWES
    55    54     2
SMALL
NO_CHARGES
****
Generated from CSD

@<TRIPOS>ATOM
      1 O1         4.5695    0.3901    5.7332 O.2       1 RES1    0.0000
      2 O2         8.1632    1.2279    3.4653 O.3       1 RES1    0.0000
      3 N1         4.0194    1.7301    7.4532 N.am      1 RES1    0.0000
      4 N2         8.0863    2.2878    2.5159 N.2       1 RES1    0.0000
      5 C1         4.6902    1.4687    6.3390 C.2       1 RES1    0.0000
      6 C2         5.6200    2.5071    5.7699 C.3       1 RES1    0.0000
      7 C3         7.0091    1.8923    5.5304 C.3       1 RES1    0.0000
      8 C4         6.9067    1.1754    4.1865 C.3       1 RES1    0.0000
      9 C5         5.9189    2.0165    3.3653 C.3       1 RES1    0.0000
     10 C6         5.1611    2.9195    4.3387 C.3       1 RES1    0.0000
     11 C7         6.8852    2.7163    2.4483 C.2       1 RES1    0.0000
     12 C8         6.5078    3.8127    1.5214 C.3       1 RES1    0.0000
     13 C9         7.6998    4.4850    0.7846 C.3       1 RES1    0.0000
     14 H1         3.4470    1.1113    7.7054 H         1 RES1    0.0000
     15 H2         7.2370    1.2528    6.2502 H         1 RES1    0.0000
     16 H3         7.7030    2.5976    5.4980 H         1 RES1    0.0000
     17 H4         6.5855    0.2345    4.2950 H         1 RES1    0.0000
     18 H5         5.2906    1.4339    2.8497 H         1 RES1    0.0000
     19 H6         5.6155    3.8703    4.1668 H         1 RES1    0.0000
     20 H7         4.1844    2.7923    4.2387 H         1 RES1    0.0000
     21 H8         6.1538    4.5513    2.0327 H         1 RES1    0.0000
     22 H9         5.8788    3.4548    0.8522 H         1 RES1    0.0000
     23 H10        7.3455    5.1623    0.2127 H         1 RES1    0.0000
     24 H11        8.1351    3.8087    0.2578 H         1 RES1    0.0000
     25 H12        8.2898    4.8447    1.4242 H         1 RES1    0.0000
     26 C10        4.4187    2.0296   13.4513 Du        2 SUP2    0.0000
     27 H13        2.4576    1.3744   13.1174 Du        2 SUP2    0.0000
     28 H14        4.6735    1.3361   14.0739 Du        2 SUP2    0.0000
     29 H15        5.1902    2.2634   12.9202 Du        2 SUP2    0.0000
     30 H16        4.1887    2.8248   13.9880 Du        2 SUP2    0.0000
     31 C2A        4.1015    2.9030    8.3167 C.3       1 RES1    0.0000
     32 C1A        5.0313    3.9413    7.7476 C.2       1 RES1    0.0000
     33 O1A        5.1520    5.0199    8.3534 O.2       1 RES1    0.0000
     34 N1A        5.7021    3.6799    6.6334 N.am      1 RES1    0.0000
     35 H1A        6.2745    4.2988    6.3812 H         1 RES1    0.0000
     36 C3A        2.7124    3.5178    8.5562 C.3       1 RES1    0.0000
     37 C4A        2.8148    4.2346    9.9001 C.3       1 RES1    0.0000
     38 O2A        1.5583    4.1822   10.6213 O.3       1 RES1    0.0000
     39 N2A        1.6352    3.1223   11.5707 N.2       1 RES1    0.0000
     40 C7A        2.8363    2.6937   11.6384 C.2       1 RES1    0.0000
     41 C5A        3.8026    3.3935   10.7213 C.3       1 RES1    0.0000
     42 H4A        3.1360    5.1756    9.7916 H         1 RES1    0.0000
     43 C6A        4.5604    2.4905    9.7479 C.3       1 RES1    0.0000
     44 H6A        4.1060    1.5398    9.9198 H         1 RES1    0.0000
     45 H7A        5.5371    2.6178    9.8479 H         1 RES1    0.0000
     46 H5A        4.4309    3.9762   11.2369 H         1 RES1    0.0000
     47 C8A        3.2137    1.5974   12.5652 C.3       1 RES1    0.0000
     48 C9A        2.0216    0.9250   13.3020 C.3       1 RES1    0.0000
     49 H10A       2.3760    0.2477   13.8739 H         1 RES1    0.0000
     50 H11A       1.5864    1.6013   13.8288 H         1 RES1    0.0000
     51 H12A       1.4317    0.5654   12.6624 H         1 RES1    0.0000
     52 H8A        3.5677    0.8587   12.0539 H         1 RES1    0.0000
     53 H9A        3.8426    1.9552   13.2344 H         1 RES1    0.0000
     54 H2A        2.4845    4.1572    7.8364 H         1 RES1    0.0000
     55 H3A        2.0185    2.8125    8.5886 H         1 RES1    0.0000
@<TRIPOS>BOND
     1    1    5 2
     2    2    4 1
     3    3    5 1
     4    4   11 2
     5    5    6 1
     6    6    7 1
     7    7    8 1
     8    8    2 1
     9    9    8 1
    10   10    6 1
    11   11    9 1
    12   12   11 1
    13   13   12 1
    14   14    3 1
    15   15    7 1
    16   16    7 1
    17   17    8 1
    18   18    9 1
    19   19   10 1
    20   20   10 1
    21   21   12 1
    22   22   12 1
    23   23   13 1
    24   24   13 1
    25   25   13 1
    26   31    3 1
    27   32   31 1
    28   33   32 2
    29   34    6 1
    30   35   34 1
    31   36   31 1
    32   37   36 1
    33   38   37 1
    34   39   38 1
    35   40   39 2
    36   41   37 1
    37   42   37 1
    38   43   31 1
    39   44   43 1
    40   45   43 1
    41   46   41 1
    42   47   40 1
    43   48   47 1
    44   49   48 1
    45   50   48 1
    46   51   48 1
    47   52   47 1
    48   53   47 1
    49   54   36 1
    50   55   36 1
    51    9   10 1
    52   32   34 1
    53   40   41 1
    54   41   43 1
@<TRIPOS>SUBSTRUCTURE
     1 RES1 1
     2 SUP2 26

@<TRIPOS>CRYSIN
   6.0067    6.0102   14.1100  87.8760  86.7610  60.9590   2 1

