# MOL2 file generated by ConQuest
# Please check atom types

@<TRIPOS>MOLECULE
INEFUD
    62    64     2
SMALL
NO_CHARGES
****
Generated from CSD

@<TRIPOS>ATOM
      1 O1         5.3166    1.2748   -2.5191 O.3       1 RES1    0.0000
      2 H1         5.4568    0.5665   -2.9488 H         1 RES1    0.0000
      3 C1         4.2920    1.0866   -1.6656 C.ar      1 RES1    0.0000
      4 C2         3.8307    2.1693   -0.9703 C.ar      1 RES1    0.0000
      5 C3         2.7859    1.9712   -0.0567 C.ar      1 RES1    0.0000
      6 H2         2.4503    2.7057    0.4462 H         1 RES1    0.0000
      7 C4         2.2567    0.7425    0.1121 C.ar      1 RES1    0.0000
      8 C5         2.7127   -0.3769   -0.5702 C.ar      1 RES1    0.0000
      9 H3         2.3304   -1.2333   -0.4179 H         1 RES1    0.0000
     10 C6         3.7360   -0.2104   -1.4756 C.ar      1 RES1    0.0000
     11 H4         4.0676   -0.9519   -1.9678 H         1 RES1    0.0000
     12 N1         1.1814    0.5829    1.0919 N.pl3     1 RES1    0.0000
     13 O2         0.7809   -0.5838    1.3292 O.2       1 RES1    0.0000
     14 O3         0.7154    1.5713    1.6397 O.2       1 RES1    0.0000
     15 O4         4.6464    3.7802    1.5960 O.3       1 RES1    0.0000
     16 H5         4.7506    4.0265    2.3928 H         1 RES1    0.0000
     17 C7         5.8637    3.7821    0.9526 C.ar      1 RES1    0.0000
     18 C8         7.0439    3.8852    1.6704 C.ar      1 RES1    0.0000
     19 H6         7.0436    3.9112    2.6195 H         1 RES1    0.0000
     20 C9         8.2369    3.9510    0.9408 C.ar      1 RES1    0.0000
     21 H7         9.0697    4.0535    1.3859 H         1 RES1    0.0000
     22 C10        8.1824    3.8655   -0.4309 C.ar      1 RES1    0.0000
     23 C11        6.9910    3.7116   -1.1191 C.ar      1 RES1    0.0000
     24 H8         6.9999    3.6426   -2.0658 H         1 RES1    0.0000
     25 C12        5.7830    3.6595   -0.4356 C.ar      1 RES1    0.0000
     26 N2         9.4267    4.0493   -1.2277 N.pl3     1 RES1    0.0000
     27 O5        10.4364    4.3942   -0.6068 O.2       1 RES1    0.0000
     28 O6         9.4029    3.8649   -2.4211 O.2       1 RES1    0.0000
     29 C13        4.4613    3.5241   -1.1521 C.3       1 RES1    0.0000
     30 H9         3.8397    4.2159   -0.8157 H         1 RES1    0.0000
     31 H10        4.6008    3.6860   -2.1189 H         1 RES1    0.0000
     32 O7         4.1234   10.0475    4.1163 O.3       2 RES2    0.0000
     33 H11        3.9496   10.0700    3.2947 H         2 RES2    0.0000
     34 C14        3.1759   10.7444    4.7986 C.ar      2 RES2    0.0000
     35 C15        3.2417   10.6233    6.1998 C.ar      2 RES2    0.0000
     36 C16        2.3214   11.3449    6.9459 C.ar      2 RES2    0.0000
     37 H12        2.3378   11.3110    7.8950 H         2 RES2    0.0000
     38 C17        1.3654   12.1224    6.2789 C.ar      2 RES2    0.0000
     39 C18        1.3038   12.2040    4.9166 C.ar      2 RES2    0.0000
     40 H13        0.6393   12.7348    4.4940 H         2 RES2    0.0000
     41 C19        2.2237   11.4997    4.1623 C.ar      2 RES2    0.0000
     42 H14        2.1976   11.5390    3.2132 H         2 RES2    0.0000
     43 N3         0.4585   12.9286    7.0757 N.pl3     2 RES2    0.0000
     44 O8        -0.2711   13.7236    6.5221 O.2       2 RES2    0.0000
     45 O9         0.4804   12.8220    8.2963 O.2       2 RES2    0.0000
     46 O10        2.3981    8.4709    8.4368 O.3       2 RES2    0.0000
     47 H15        1.8733    8.0242    8.9172 H         2 RES2    0.0000
     48 C20        2.9948    7.6524    7.5337 C.ar      2 RES2    0.0000
     49 C21        2.6891    6.3357    7.3921 C.ar      2 RES2    0.0000
     50 H16        2.0290    5.9501    7.9575 H         2 RES2    0.0000
     51 C22        3.3042    5.5550    6.4595 C.ar      2 RES2    0.0000
     52 H17        3.0653    4.6432    6.3415 H         2 RES2    0.0000
     53 C23        4.3070    6.1552    5.6839 C.ar      2 RES2    0.0000
     54 C24        4.6328    7.4653    5.8091 C.ar      2 RES2    0.0000
     55 H18        5.3102    7.8366    5.2554 H         2 RES2    0.0000
     56 C25        3.9897    8.2672    6.7357 C.ar      2 RES2    0.0000
     57 N4         4.9789    5.3487    4.6841 N.pl3     2 RES2    0.0000
     58 O11        4.4530    4.2868    4.3240 O.2       2 RES2    0.0000
     59 O12        6.0081    5.7794    4.1930 O.2       2 RES2    0.0000
     60 C26        4.2681    9.7475    6.8620 C.3       2 RES2    0.0000
     61 H19        4.3130    9.9815    7.8229 H         2 RES2    0.0000
     62 H20        5.1540    9.9401    6.4654 H         2 RES2    0.0000
@<TRIPOS>BOND
     1    1    2 1
     2    3    1 1
     3    4    3 ar
     4    5    4 ar
     5    6    5 1
     6    7    5 ar
     7    8    7 ar
     8    9    8 1
     9   10    3 ar
    10   11   10 1
    11   12    7 1
    12   13   12 2
    13   14   12 2
    14   15   16 1
    15   17   15 1
    16   18   17 ar
    17   19   18 1
    18   20   18 ar
    19   21   20 1
    20   22   20 ar
    21   23   22 ar
    22   24   23 1
    23   25   17 ar
    24   26   22 1
    25   27   26 2
    26   28   26 2
    27   29    4 1
    28   30   29 1
    29   31   29 1
    30   32   33 1
    31   34   32 1
    32   35   34 ar
    33   36   35 ar
    34   37   36 1
    35   38   36 ar
    36   39   38 ar
    37   40   39 1
    38   41   34 ar
    39   42   41 1
    40   43   38 1
    41   44   43 2
    42   45   43 2
    43   46   47 1
    44   48   46 1
    45   49   48 ar
    46   50   49 1
    47   51   49 ar
    48   52   51 1
    49   53   51 ar
    50   54   53 ar
    51   55   54 1
    52   56   48 ar
    53   57   53 1
    54   58   57 2
    55   59   57 2
    56   60   35 1
    57   61   60 1
    58   62   60 1
    59    8   10 ar
    60   23   25 ar
    61   25   29 1
    62   39   41 ar
    63   54   56 ar
    64   56   60 1
@<TRIPOS>SUBSTRUCTURE
     1 RES1 1
     2 RES2 32

@<TRIPOS>CRYSIN
   9.5470   11.4590   12.2270  75.4400  89.2500  71.8800   2 1

