# MOL2 file generated by ConQuest
# Please check atom types

@<TRIPOS>MOLECULE
INEJOA
    13    13     1
SMALL
NO_CHARGES
****
Generated from CSD

@<TRIPOS>ATOM
      1 C1         1.8548    3.3162    4.5681 C.2       1 RES1    0.0000
      2 C2         2.5863    4.2937    3.6856 C.3       1 RES1    0.0000
      3 H1         1.9943    5.0447    3.4286 H         1 RES1    0.0000
      4 H2         2.9125    3.8483    2.8636 H         1 RES1    0.0000
      5 C3         3.7650    4.7963    4.5386 C.3       1 RES1    0.0000
      6 H3         4.6273    4.4994    4.1529 H         1 RES1    0.0000
      7 H4         3.7628    5.7848    4.5910 H         1 RES1    0.0000
      8 C4         3.5539    4.1916    5.8972 C.2       1 RES1    0.0000
      9 N1         2.4843    3.3086    5.7790 N.am      1 RES1    0.0000
     10 O1         0.8628    2.6536    4.2951 O.2       1 RES1    0.0000
     11 O2         4.1633    4.3666    6.9237 O.2       1 RES1    0.0000
     12 O3         1.9650    2.6075    6.8441 O.3       1 RES1    0.0000
     13 H5         2.6807    2.0422    7.1559 H         1 RES1    0.0000
@<TRIPOS>BOND
     1    1    2 1
     2    2    3 1
     3    4    2 1
     4    5    2 1
     5    6    5 1
     6    7    5 1
     7    8    5 1
     8    9    1 1
     9   10    1 2
    10   11    8 2
    11   12    9 1
    12   13   12 1
    13    8    9 1
@<TRIPOS>SUBSTRUCTURE
     1 RES1 1

@<TRIPOS>CRYSIN
   5.4266    7.2419   12.4450  90.0000  90.0000  90.0000  19 1

