# MOL2 file generated by ConQuest
# Please check atom types

@<TRIPOS>MOLECULE
INEKER
    39    41     1
SMALL
NO_CHARGES
****
Generated from CSD

@<TRIPOS>ATOM
      1 C1         2.5970    5.9021    0.4022 C.3       1 RES1    0.0000
      2 C2         1.1803    7.8006    0.6906 C.2       1 RES1    0.0000
      3 C3         1.7422    7.8519   -0.6763 C.ar      1 RES1    0.0000
      4 C4         2.5880    6.7627   -0.8499 C.ar      1 RES1    0.0000
      5 C5         3.2494    6.5486   -2.0454 C.ar      1 RES1    0.0000
      6 H1         3.8451    5.8159   -2.1556 H         1 RES1    0.0000
      7 C6         3.0106    7.4455   -3.0797 C.ar      1 RES1    0.0000
      8 H2         3.4488    7.3230   -3.9145 H         1 RES1    0.0000
      9 C7         2.1453    8.5169   -2.9157 C.ar      1 RES1    0.0000
     10 H3         1.9882    9.1045   -3.6460 H         1 RES1    0.0000
     11 C8         1.5051    8.7488   -1.7064 C.ar      1 RES1    0.0000
     12 H4         0.9258    9.4931   -1.5884 H         1 RES1    0.0000
     13 C9         3.9583    5.6955    1.0440 C.ar      1 RES1    0.0000
     14 C10        4.9111    6.6977    0.9891 C.ar      1 RES1    0.0000
     15 H5         4.7349    7.5057    0.5219 H         1 RES1    0.0000
     16 C11        6.1230    6.5034    1.6261 C.ar      1 RES1    0.0000
     17 C12        6.4238    5.3513    2.3247 C.ar      1 RES1    0.0000
     18 H6         7.2631    5.2460    2.7575 H         1 RES1    0.0000
     19 C13        5.4712    4.3614    2.3734 C.ar      1 RES1    0.0000
     20 H7         5.6535    3.5582    2.8465 H         1 RES1    0.0000
     21 C14        4.2451    4.5208    1.7391 C.ar      1 RES1    0.0000
     22 H8         3.5998    3.8257    1.7785 H         1 RES1    0.0000
     23 C15        1.4263    6.3139    2.6395 C.3       1 RES1    0.0000
     24 H9         1.6044    5.3445    2.7349 H         1 RES1    0.0000
     25 H10        0.4627    6.4631    2.8148 H         1 RES1    0.0000
     26 C16        2.2388    7.0685    3.6762 C.2       1 RES1    0.0000
     27 C17        2.4756    7.3162    6.0285 C.3       1 RES1    0.0000
     28 H11        3.3772    6.9570    6.1622 H         1 RES1    0.0000
     29 H12        1.9350    7.1499    6.8289 H         1 RES1    0.0000
     30 H13        2.5293    8.2808    5.8650 H         1 RES1    0.0000
     31 N1         1.7233    6.7121    1.2911 N.am      1 RES1    0.0000
     32 N2         7.1398    7.5680    1.5343 N.pl3     1 RES1    0.0000
     33 O1         2.0373    4.6283    0.1979 O.3       1 RES1    0.0000
     34 H14        1.2900    4.7076   -0.1765 H         1 RES1    0.0000
     35 O2         0.3519    8.5532    1.2107 O.2       1 RES1    0.0000
     36 O3         1.8615    6.6659    4.8878 O.3       1 RES1    0.0000
     37 O4         3.0678    7.9032    3.4430 O.2       1 RES1    0.0000
     38 O5         6.8822    8.5723    0.8785 O.2       1 RES1    0.0000
     39 O6         8.2080    7.4024    2.1077 O.2       1 RES1    0.0000
@<TRIPOS>BOND
     1    1    4 1
     2    2    3 1
     3    3    4 ar
     4    4    5 ar
     5    5    6 1
     6    7    5 ar
     7    8    7 1
     8    9    7 ar
     9   10    9 1
    10   11    3 ar
    11   12   11 1
    12   13    1 1
    13   14   13 ar
    14   15   14 1
    15   16   14 ar
    16   17   16 ar
    17   18   17 1
    18   19   17 ar
    19   20   19 1
    20   21   13 ar
    21   22   21 1
    22   23   24 1
    23   25   23 1
    24   26   23 1
    25   27   28 1
    26   29   27 1
    27   30   27 1
    28   31    1 1
    29   32   16 1
    30   33    1 1
    31   34   33 1
    32   35    2 2
    33   36   26 1
    34   37   26 2
    35   38   32 2
    36   39   32 2
    37    2   31 1
    38    9   11 ar
    39   19   21 ar
    40   23   31 1
    41   27   36 1
@<TRIPOS>SUBSTRUCTURE
     1 RES1 1

@<TRIPOS>CRYSIN
  15.0330    6.8414   16.1593  90.0000 111.0117  90.0000  14 1

