# MOL2 file generated by ConQuest
# Please check atom types

@<TRIPOS>MOLECULE
INEQIB
    53    58     1
SMALL
NO_CHARGES
****
Generated from CSD

@<TRIPOS>ATOM
      1 N1         0.4387    0.2217    1.7734 N.am      1 RES1    0.0000
      2 H1        -0.1383   -0.2704    1.3671 H         1 RES1    0.0000
      3 C1         1.0656    1.2794    1.2025 C.2       1 RES1    0.0000
      4 O1         1.0320    1.5958    0.0241 O.2       1 RES1    0.0000
      5 C2         1.8793    2.0057    2.3364 C.3       1 RES1    0.0000
      6 C3         1.7400    1.0243    3.4677 C.ar      1 RES1    0.0000
      7 C4         2.3486    0.9654    4.7035 C.ar      1 RES1    0.0000
      8 H2         2.9715    1.6097    4.9524 H         1 RES1    0.0000
      9 C5         2.0205   -0.0640    5.5689 C.ar      1 RES1    0.0000
     10 H3         2.4233   -0.1100    6.4057 H         1 RES1    0.0000
     11 C6         1.0979   -1.0247    5.1978 C.ar      1 RES1    0.0000
     12 H4         0.8765   -1.6990    5.7988 H         1 RES1    0.0000
     13 C7         0.4996   -1.0041    3.9531 C.ar      1 RES1    0.0000
     14 H5        -0.1108   -1.6591    3.7002 H         1 RES1    0.0000
     15 C8         0.8401    0.0222    3.0992 C.ar      1 RES1    0.0000
     16 C9         1.2730    3.4373    2.5834 C.3       1 RES1    0.0000
     17 C10        1.9285    4.2616    1.4489 C.3       1 RES1    0.0000
     18 H6         1.3715    4.1307    0.6536 H         1 RES1    0.0000
     19 C11        3.2535    3.5443    1.1733 C.3       1 RES1    0.0000
     20 H7         3.3213    3.3071    0.2358 H         1 RES1    0.0000
     21 H8         4.0025    4.1155    1.4042 H         1 RES1    0.0000
     22 N2         3.2498    2.3481    2.0028 N.3       1 RES1    0.0000
     23 C12        4.0758    1.2598    1.5036 C.3       1 RES1    0.0000
     24 H9         4.0182    0.5129    2.1045 H         1 RES1    0.0000
     25 H10        4.9883    1.5522    1.4437 H         1 RES1    0.0000
     26 H11        3.7665    0.9968    0.6345 H         1 RES1    0.0000
     27 C13        1.9754    5.7567    1.6975 C.ar      1 RES1    0.0000
     28 C14        0.8510    6.5346    1.4178 C.ar      1 RES1    0.0000
     29 H12        0.0881    6.1192    1.0870 H         1 RES1    0.0000
     30 C15        0.8334    7.9026    1.6168 C.ar      1 RES1    0.0000
     31 H13        0.0664    8.3898    1.4186 H         1 RES1    0.0000
     32 C16        1.9430    8.5421    2.1067 C.ar      1 RES1    0.0000
     33 H14        1.9445    9.4606    2.2541 H         1 RES1    0.0000
     34 C17        3.0515    7.7769    2.3713 C.ar      1 RES1    0.0000
     35 N3         4.2743    8.4559    2.8247 N.pl3     1 RES1    0.0000
     36 O2         5.3220    7.8204    2.8395 O.2       1 RES1    0.0000
     37 O3         4.2062    9.6440    3.0909 O.2       1 RES1    0.0000
     38 C18        3.0927    6.4121    2.1828 C.ar      1 RES1    0.0000
     39 H15        3.8668    5.9360    2.3798 H         1 RES1    0.0000
     40 C19       -0.2686    3.4653    2.5850 C.2       1 RES1    0.0000
     41 O4        -0.9615    3.4592    1.5989 O.2       1 RES1    0.0000
     42 C20       -0.7228    3.5590    3.9854 C.ar      1 RES1    0.0000
     43 C21       -2.0240    3.5106    4.4784 C.ar      1 RES1    0.0000
     44 H16       -2.7534    3.3833    3.9145 H         1 RES1    0.0000
     45 C22       -2.1834    3.6588    5.8373 C.ar      1 RES1    0.0000
     46 H17       -3.0401    3.6478    6.1986 H         1 RES1    0.0000
     47 C23       -1.0987    3.8233    6.6758 C.ar      1 RES1    0.0000
     48 H18       -1.2431    3.8941    7.5920 H         1 RES1    0.0000
     49 C24        0.1944    3.8855    6.1930 C.ar      1 RES1    0.0000
     50 H19        0.9185    4.0084    6.7624 H         1 RES1    0.0000
     51 C25        0.3661    3.7560    4.8218 C.ar      1 RES1    0.0000
     52 C26        1.6059    3.8672    4.0204 C.2       1 RES1    0.0000
     53 O5         2.6769    4.2555    4.4165 O.2       1 RES1    0.0000
@<TRIPOS>BOND
     1    1    2 1
     2    3    1 1
     3    4    3 2
     4    5    3 1
     5    6    5 1
     6    7    6 ar
     7    8    7 1
     8    9    7 ar
     9   10    9 1
    10   11    9 ar
    11   12   11 1
    12   13   11 ar
    13   14   13 1
    14   15    1 1
    15   16    5 1
    16   17   16 1
    17   18   17 1
    18   19   17 1
    19   20   19 1
    20   21   19 1
    21   22    5 1
    22   23   22 1
    23   24   23 1
    24   25   23 1
    25   26   23 1
    26   27   17 1
    27   28   27 ar
    28   29   28 1
    29   30   28 ar
    30   31   30 1
    31   32   30 ar
    32   33   32 1
    33   34   32 ar
    34   35   34 1
    35   36   35 2
    36   37   35 2
    37   38   27 ar
    38   39   38 1
    39   40   16 1
    40   41   40 2
    41   42   40 1
    42   43   42 ar
    43   44   43 1
    44   45   43 ar
    45   46   45 1
    46   47   45 ar
    47   48   47 1
    48   49   47 ar
    49   50   49 1
    50   51   42 ar
    51   52   16 1
    52   53   52 2
    53    6   15 ar
    54   13   15 ar
    55   19   22 1
    56   34   38 ar
    57   49   51 ar
    58   51   52 1
@<TRIPOS>SUBSTRUCTURE
     1 RES1 1

@<TRIPOS>CRYSIN
   7.7610   11.6696   11.9952  93.3920  91.0920  93.6600   2 1

