# MOL2 file generated by ConQuest
# Please check atom types

@<TRIPOS>MOLECULE
INEROI
    33    34     1
SMALL
NO_CHARGES
****
Generated from CSD

@<TRIPOS>ATOM
      1 O1         0.0145   -0.5852   15.4564 O.2       1 RES1    0.0000
      2 O2        -0.2277    1.5774   15.7138 O.2       1 RES1    0.0000
      3 O3         1.4227    2.4657    6.4976 O.3       1 RES1    0.0000
      4 O4         3.3422    1.6228    7.2673 O.2       1 RES1    0.0000
      5 N1        -0.4318    3.0115    9.2206 N.2       1 RES1    0.0000
      6 N2         0.7966    3.1233    9.0863 N.2       1 RES1    0.0000
      7 N3         0.1222    0.5849   15.0617 N.pl3     1 RES1    0.0000
      8 C1         1.4594    1.7889    8.7668 C.3       1 RES1    0.0000
      9 C2         0.3004    0.8218    8.6473 C.2       1 RES1    0.0000
     10 C3        -0.9116    1.6219    9.0031 C.3       1 RES1    0.0000
     11 H1        -1.5750    1.5936    8.2682 H         1 RES1    0.0000
     12 H2        -1.3338    1.2675    9.8248 H         1 RES1    0.0000
     13 C4         0.3657   -0.4584    8.3062 C.2       1 RES1    0.0000
     14 H3        -0.4265   -0.9810    8.2668 H         1 RES1    0.0000
     15 H4         1.2054   -0.8529    8.1015 H         1 RES1    0.0000
     16 C5         2.4685    1.4534    9.8896 C.3       1 RES1    0.0000
     17 H5         2.9710    0.6390    9.6349 H         1 RES1    0.0000
     18 H6         3.1189    2.1957    9.9669 H         1 RES1    0.0000
     19 C6         1.8276    1.2263   11.2389 C.ar      1 RES1    0.0000
     20 C7         1.5275    2.3145   12.0764 C.ar      1 RES1    0.0000
     21 H7         1.7223    3.1978   11.7860 H         1 RES1    0.0000
     22 C8         0.9526    2.1138   13.3201 C.ar      1 RES1    0.0000
     23 H8         0.7397    2.8492   13.8824 H         1 RES1    0.0000
     24 C9         0.6933    0.8092   13.7237 C.ar      1 RES1    0.0000
     25 C10        0.9747   -0.2926   12.9271 C.ar      1 RES1    0.0000
     26 H9         0.7864   -1.1737   13.2278 H         1 RES1    0.0000
     27 C11        1.5378   -0.0710   11.6833 C.ar      1 RES1    0.0000
     28 H10        1.7317   -0.8120   11.1204 H         1 RES1    0.0000
     29 C12        2.2050    1.9416    7.4388 C.2       1 RES1    0.0000
     30 C13        2.0043    2.5829    5.1707 C.3       1 RES1    0.0000
     31 H11        2.1607    1.6887    4.8024 H         1 RES1    0.0000
     32 H12        2.8547    3.0657    5.2288 H         1 RES1    0.0000
     33 H13        1.3889    3.0737    4.5865 H         1 RES1    0.0000
@<TRIPOS>BOND
     1    1    7 2
     2    2    7 2
     3    3   29 1
     4    4   29 2
     5    5    6 2
     6    6    8 1
     7    7   24 1
     8    8    9 1
     9    9   10 1
    10   10    5 1
    11   11   10 1
    12   12   10 1
    13   13    9 2
    14   14   13 1
    15   15   13 1
    16   16    8 1
    17   17   16 1
    18   18   16 1
    19   19   16 1
    20   20   19 ar
    21   21   20 1
    22   22   20 ar
    23   23   22 1
    24   24   22 ar
    25   25   24 ar
    26   26   25 1
    27   27   19 ar
    28   28   27 1
    29   29    8 1
    30   30    3 1
    31   31   30 1
    32   32   30 1
    33   33   30 1
    34   25   27 ar
@<TRIPOS>SUBSTRUCTURE
     1 RES1 1

@<TRIPOS>CRYSIN
   7.3658   13.2030   13.7130  90.0000  94.7220  90.0000 231 1

