# MOL2 file generated by ConQuest
# Please check atom types

@<TRIPOS>MOLECULE
INESUP
    56    58     1
SMALL
NO_CHARGES
****
Generated from CSD

@<TRIPOS>ATOM
      1 O1         2.8131    0.9405   12.9186 O.3       1 RES1    0.0000
      2 O2         0.9238   -0.3410   13.4376 O.3       1 RES1    0.0000
      3 N1         2.9363   -0.9270   14.2827 N.3       1 RES1    0.0000
      4 H1         3.8475   -0.7552   14.0767 H         1 RES1    0.0000
      5 N2         2.4369    2.3656   12.9906 N.3       1 RES1    0.0000
      6 C1         2.1282    0.2092   13.9290 C.3       1 RES1    0.0000
      7 C2         1.8423    1.2483   15.0105 C.3       1 RES1    0.0000
      8 C3         1.9204    2.7377   11.6376 C.3       1 RES1    0.0000
      9 C4         1.4833    2.4580   14.1223 C.3       1 RES1    0.0000
     10 H2         0.5742    2.3674   13.8291 H         1 RES1    0.0000
     11 C5         3.1171    1.4690   15.8213 C.3       1 RES1    0.0000
     12 H3         2.9531    2.1296   16.4988 H         1 RES1    0.0000
     13 H4         3.8172    1.7740   15.2398 H         1 RES1    0.0000
     14 H5         3.3812    0.6437   16.2356 H         1 RES1    0.0000
     15 C6         1.3065   -1.5251   12.7332 C.3       1 RES1    0.0000
     16 H6         0.5551   -2.1222   12.7018 H         1 RES1    0.0000
     17 H7         1.5687   -1.2934   11.8390 H         1 RES1    0.0000
     18 C7         1.5750    3.7997   14.8173 C.ar      1 RES1    0.0000
     19 C8         2.7650    4.5166   14.8883 C.ar      1 RES1    0.0000
     20 H8         3.5498    4.1659   14.4615 H         1 RES1    0.0000
     21 C9         2.4624   -2.1036   13.5396 C.3       1 RES1    0.0000
     22 H9         2.1317   -2.7781   14.1382 H         1 RES1    0.0000
     23 C10        0.4457    4.3250   15.4351 C.ar      1 RES1    0.0000
     24 H10       -0.3776    3.8313   15.3986 H         1 RES1    0.0000
     25 C11        0.5057    5.5342   16.1064 C.ar      1 RES1    0.0000
     26 H11       -0.2764    5.9044   16.5232 H         1 RES1    0.0000
     27 C12        0.7001    0.8488   15.9384 C.3       1 RES1    0.0000
     28 H12        0.5675    1.5337   16.5976 H         1 RES1    0.0000
     29 H13        0.9091    0.0196   16.3758 H         1 RES1    0.0000
     30 H14       -0.1000    0.7442   15.4201 H         1 RES1    0.0000
     31 C13        3.0846    2.5464   10.6679 C.3       1 RES1    0.0000
     32 H15        2.8025    2.7769    9.7803 H         1 RES1    0.0000
     33 H16        3.3857    1.6355   10.6816 H         1 RES1    0.0000
     34 H17        3.8026    3.1251   10.9363 H         1 RES1    0.0000
     35 C14        2.8205    5.7213   15.5599 C.ar      1 RES1    0.0000
     36 H18        3.6475    6.2060   15.6190 H         1 RES1    0.0000
     37 C15        1.5574    4.2199   11.6855 C.3       1 RES1    0.0000
     38 H19        1.2248    4.5056   10.8318 H         1 RES1    0.0000
     39 H20        2.3395    4.7299   11.9106 H         1 RES1    0.0000
     40 H21        0.8821    4.3584   12.3541 H         1 RES1    0.0000
     41 C16        3.5250   -2.7763   12.6730 C.3       1 RES1    0.0000
     42 H22        3.8183   -2.1320   12.0236 H         1 RES1    0.0000
     43 C17        1.6957    6.2345   16.1653 C.ar      1 RES1    0.0000
     44 H23        1.7384    7.0752   16.6262 H         1 RES1    0.0000
     45 C18        0.7214    1.9224   11.1673 C.3       1 RES1    0.0000
     46 H24        0.4573    2.2215   10.2939 H         1 RES1    0.0000
     47 H25       -0.0101    2.0364   11.7790 H         1 RES1    0.0000
     48 H26        0.9641    0.9943   11.1280 H         1 RES1    0.0000
     49 C19        2.9374   -3.9845   11.9664 C.3       1 RES1    0.0000
     50 H27        3.6048   -4.3989   11.4156 H         1 RES1    0.0000
     51 H28        2.2036   -3.6952   11.4184 H         1 RES1    0.0000
     52 H29        2.6205   -4.6171   12.6159 H         1 RES1    0.0000
     53 C20        4.7375   -3.1827   13.4815 C.3       1 RES1    0.0000
     54 H30        5.3825   -3.5995   12.9049 H         1 RES1    0.0000
     55 H31        4.4690   -3.8031   14.1625 H         1 RES1    0.0000
     56 H32        5.1274   -2.4066   13.8892 H         1 RES1    0.0000
@<TRIPOS>BOND
     1    1    5 1
     2    2    6 1
     3    3    4 1
     4    5    8 1
     5    6    1 1
     6    7    6 1
     7    8   31 1
     8    9    5 1
     9   10    9 1
    10   11    7 1
    11   12   11 1
    12   13   11 1
    13   14   11 1
    14   15    2 1
    15   16   15 1
    16   17   15 1
    17   18    9 1
    18   19   18 ar
    19   20   19 1
    20   21    3 1
    21   22   21 1
    22   23   18 ar
    23   24   23 1
    24   25   23 ar
    25   26   25 1
    26   27    7 1
    27   28   27 1
    28   29   27 1
    29   30   27 1
    30   31   32 1
    31   33   31 1
    32   34   31 1
    33   35   19 ar
    34   36   35 1
    35   37    8 1
    36   38   37 1
    37   39   37 1
    38   40   37 1
    39   41   21 1
    40   42   41 1
    41   43   25 ar
    42   44   43 1
    43   45    8 1
    44   46   45 1
    45   47   45 1
    46   48   45 1
    47   49   41 1
    48   50   49 1
    49   51   49 1
    50   52   49 1
    51   53   41 1
    52   54   53 1
    53   55   53 1
    54   56   53 1
    55    3    6 1
    56    7    9 1
    57   15   21 1
    58   35   43 ar
@<TRIPOS>SUBSTRUCTURE
     1 RES1 1

@<TRIPOS>CRYSIN
  11.2370   12.2600   14.3070  90.0000  90.0000  90.0000  19 1

