# MOL2 file generated by ConQuest
# Please check atom types

@<TRIPOS>MOLECULE
INEZUY
    28    28     2
SMALL
NO_CHARGES
****
Generated from CSD

@<TRIPOS>ATOM
      1 N1         0.7355   10.6231   -0.5754 N.2       1 RES1    0.0000
      2 C1         0.6583   11.9690   -0.7293 C.2       1 RES1    0.0000
      3 C2         0.0555   12.4592    0.4206 C.2       1 RES1    0.0000
      4 N2        -0.2396   11.4444    1.2823 N.2       1 RES1    0.0000
      5 N3         0.1778   10.4198    0.6229 N.3       1 RES1    0.0000
      6 N4         1.0996   12.5887   -1.8175 N.3       1 RES1    0.0000
      7 N5        -0.2757   13.7789    0.7386 N.pl3     1 RES1    0.0000
      8 O1         0.0503   14.6527   -0.0681 O.2       1 RES1    0.0000
      9 O2        -0.8735   14.0068    1.8138 O.2       1 RES1    0.0000
     10 N6         0.2056    9.1526    1.1694 N.3       1 RES1    0.0000
     11 H1         0.9397   13.4445   -1.8371 H         1 RES1    0.0000
     12 H2         1.5726   12.0330   -2.2847 H         1 RES1    0.0000
     13 H3        -0.4967    9.0493    1.6786 H         1 RES1    0.0000
     14 H4         0.0966    8.4428    0.6528 H         1 RES1    0.0000
     15 N7         1.2312   10.5493    5.7156 N.2       2 RES2    0.0000
     16 C3         1.1174    9.2001    5.7576 C.2       2 RES2    0.0000
     17 C4         1.6535    8.7018    4.5574 C.2       2 RES2    0.0000
     18 N8         2.1150    9.7165    3.8011 N.2       2 RES2    0.0000
     19 N9         1.8135   10.7493    4.5303 N.3       2 RES2    0.0000
     20 N10        0.5746    8.5755    6.8104 N.3       2 RES2    0.0000
     21 N11        1.7644    7.3804    4.1219 N.pl3     2 RES2    0.0000
     22 O3         2.3294    7.1395    3.0550 O.2       2 RES2    0.0000
     23 O4         1.2819    6.5149    4.8605 O.2       2 RES2    0.0000
     24 N12        2.2491   12.0313    4.2021 N.3       2 RES2    0.0000
     25 H5         0.3927    7.7345    6.7703 H         2 RES2    0.0000
     26 H6         0.2326    9.1149    7.4138 H         2 RES2    0.0000
     27 H7         1.6839   12.4756    4.6907 H         2 RES2    0.0000
     28 H8         2.2790   12.0986    3.3395 H         2 RES2    0.0000
@<TRIPOS>BOND
     1    1    2 2
     2    2    3 1
     3    3    4 2
     4    4    5 1
     5    5    1 1
     6    6    2 1
     7    7    3 1
     8    8    7 2
     9    9    7 2
    10   10    5 1
    11   11    6 1
    12   12    6 1
    13   13   10 1
    14   14   10 1
    15   15   16 2
    16   16   17 1
    17   17   18 2
    18   18   19 1
    19   19   15 1
    20   20   16 1
    21   21   17 1
    22   22   21 2
    23   23   21 2
    24   24   19 1
    25   25   20 1
    26   26   20 1
    27   27   24 1
    28   28   24 1
@<TRIPOS>SUBSTRUCTURE
     1 RES1 1
     2 RES2 15

@<TRIPOS>CRYSIN
   3.5852   16.3937    9.4278  90.0000  98.4480  90.0000   4 1

