# MOL2 file generated by ConQuest
# Please check atom types

@<TRIPOS>MOLECULE
INEZIM
    14    14     1
SMALL
NO_CHARGES
****
Generated from CSD

@<TRIPOS>ATOM
      1 O1         1.8580    5.7811    5.3157 O.2       1 RES1    0.0000
      2 O2         4.0295    5.6663    5.5511 O.2       1 RES1    0.0000
      3 N1         2.8736    5.2827    5.8042 N.pl3     1 RES1    0.0000
      4 C1         2.7655    4.2177    6.7013 C.2       1 RES1    0.0000
      5 C2         3.7420    3.6018    7.4764 C.2       1 RES1    0.0000
      6 N2         5.0634    3.8257    7.5674 N.3       1 RES1    0.0000
      7 H1         5.4919    3.4893    8.2515 H         1 RES1    0.0000
      8 H2         5.4278    4.5264    7.1929 H         1 RES1    0.0000
      9 N3         3.1172    2.6155    8.1844 N.2       1 RES1    0.0000
     10 N4         1.8271    2.5966    7.8706 N.2       1 RES1    0.0000
     11 N5         1.5994    3.5563    6.9950 N.pl3     1 RES1    0.0000
     12 N6         0.3131    3.6662    6.4593 N.3       1 RES1    0.0000
     13 H3         0.0101    4.4683    6.6439 H         1 RES1    0.0000
     14 H4         0.3964    3.5863    5.5548 H         1 RES1    0.0000
@<TRIPOS>BOND
     1    1    3 2
     2    2    3 2
     3    3    4 1
     4    4    5 2
     5    5    6 1
     6    6    7 1
     7    8    6 1
     8    9    5 1
     9   10    9 2
    10   11    4 1
    11   12   11 1
    12   13   12 1
    13   14   12 1
    14   10   11 1
@<TRIPOS>SUBSTRUCTURE
     1 RES1 1

@<TRIPOS>CRYSIN
  12.8179    4.8463   18.2472  90.0000 100.4940  90.0000  15 1

