# MOL2 file generated by ConQuest
# Please check atom types

@<TRIPOS>MOLECULE
INEZOS
    17    17     1
SMALL
NO_CHARGES
****
Generated from CSD

@<TRIPOS>ATOM
      1 N1         5.2341    2.7114    0.4520 N.3       1 RES1    0.0000
      2 C1         4.6357    3.8710    0.9188 C.2       1 RES1    0.0000
      3 N2         3.5776    4.2171    0.2280 N.2       1 RES1    0.0000
      4 C2         3.4791    3.2552   -0.7231 C.2       1 RES1    0.0000
      5 C3         4.5065    2.3000   -0.6230 C.2       1 RES1    0.0000
      6 N3         6.3507    1.9780    0.9003 N.3       1 RES1    0.0000
      7 H1         7.0049    2.5202    0.8731 H         1 RES1    0.0000
      8 H2         6.0995    1.7061    1.6641 H         1 RES1    0.0000
      9 N4         5.1060    4.6058    2.0390 N.pl3     1 RES1    0.0000
     10 O1         6.0741    4.1514    2.6527 O.2       1 RES1    0.0000
     11 O2         4.5256    5.6448    2.3323 O.2       1 RES1    0.0000
     12 N5         2.4766    3.2854   -1.7067 N.pl3     1 RES1    0.0000
     13 O3         1.6060    4.1666   -1.6533 O.2       1 RES1    0.0000
     14 O4         2.5319    2.4250   -2.5952 O.2       1 RES1    0.0000
     15 N6         4.8415    1.2379   -1.3657 N.3       1 RES1    0.0000
     16 H3         5.5609    0.7712   -1.1669 H         1 RES1    0.0000
     17 H4         4.3422    1.0067   -2.0529 H         1 RES1    0.0000
@<TRIPOS>BOND
     1    1    2 1
     2    2    3 2
     3    3    4 1
     4    4    5 2
     5    5    1 1
     6    6    1 1
     7    7    6 1
     8    8    6 1
     9    9    2 1
    10   10    9 2
    11   11    9 2
    12   12    4 1
    13   13   12 2
    14   14   12 2
    15   15    5 1
    16   16   15 1
    17   17   15 1
@<TRIPOS>SUBSTRUCTURE
     1 RES1 1

@<TRIPOS>CRYSIN
  12.7338    9.9770    5.1360  90.0000  90.0000  90.0000  33 1

