# MOL2 file generated by ConQuest
# Please check atom types

@<TRIPOS>MOLECULE
INIBAK
    14    14     1
SMALL
NO_CHARGES
****
Generated from CSD

@<TRIPOS>ATOM
      1 O1         1.3804    3.8190    7.8443 O.2       1 RES1    0.0000
      2 O2         1.5202    4.4445    5.7560 O.2       1 RES1    0.0000
      3 N1         2.0205    4.2594    6.8778 N.pl3     1 RES1    0.0000
      4 C1         3.3866    4.5348    7.0168 C.2       1 RES1    0.0000
      5 C2         4.2785    4.8764    5.9951 C.2       1 RES1    0.0000
      6 N2         4.1570    5.1026    4.6911 N.3       1 RES1    0.0000
      7 N3         5.4532    4.9289    6.6548 N.pl3     1 RES1    0.0000
      8 N4         6.6514    5.2820    6.0492 N.3       1 RES1    0.0000
      9 N5         5.2971    4.6474    7.9992 N.2       1 RES1    0.0000
     10 N6         4.0445    4.4050    8.2023 N.2       1 RES1    0.0000
     11 H1         4.8607    5.2765    4.2454 H         1 RES1    0.0000
     12 H2         3.3958    5.0693    4.3173 H         1 RES1    0.0000
     13 H3         6.9144    6.0275    6.4518 H         1 RES1    0.0000
     14 H4         7.2284    4.6291    6.1420 H         1 RES1    0.0000
@<TRIPOS>BOND
     1    1    3 2
     2    2    3 2
     3    3    4 1
     4    4    5 2
     5    5    6 1
     6    6   11 1
     7    7    5 1
     8    8    7 1
     9    9    7 1
    10   10    4 1
    11   12    6 1
    12   13    8 1
    13   14    8 1
    14    9   10 2
@<TRIPOS>SUBSTRUCTURE
     1 RES1 1

@<TRIPOS>CRYSIN
   8.0055    6.4742   10.7844  90.0000  96.2240  90.0000 231 1

