# MOL2 file generated by ConQuest
# Please check atom types

@<TRIPOS>MOLECULE
INIDOA
    30    32     1
SMALL
NO_CHARGES
****
Generated from CSD

@<TRIPOS>ATOM
      1 N1         8.1633    9.8661   10.9128 N.2       1 RES1    0.0000
      2 N2         7.4915    6.8291   13.0378 N.ar      1 RES1    0.0000
      3 O1         8.2233    9.4867   12.2728 O.3       1 RES1    0.0000
      4 O2        10.3705    8.9579   12.9941 O.3       1 RES1    0.0000
      5 H1        10.8991    9.1516   12.3978 H         1 RES1    0.0000
      6 C1         8.1304   10.0827    8.0336 C.ar      1 RES1    0.0000
      7 H2         7.5938   10.6793    8.5037 H         1 RES1    0.0000
      8 C2         8.1877   10.1574    6.6594 C.ar      1 RES1    0.0000
      9 H3         7.6942   10.8042    6.2110 H         1 RES1    0.0000
     10 C3         8.9748    9.2765    5.9451 C.ar      1 RES1    0.0000
     11 H4         9.0264    9.3378    5.0193 H         1 RES1    0.0000
     12 C4         9.6785    8.3108    6.6147 C.ar      1 RES1    0.0000
     13 H5        10.1860    7.6998    6.1312 H         1 RES1    0.0000
     14 C5         9.6484    8.2261    7.9949 C.ar      1 RES1    0.0000
     15 H6        10.1466    7.5749    8.4348 H         1 RES1    0.0000
     16 C6         8.8660    9.1226    8.7267 C.ar      1 RES1    0.0000
     17 C7         8.8031    9.0100   10.1982 C.2       1 RES1    0.0000
     18 C8         9.4045    7.9051   11.0087 C.3       1 RES1    0.0000
     19 H7        10.3427    7.7812   10.7928 H         1 RES1    0.0000
     20 H8         8.9326    7.0697   10.8701 H         1 RES1    0.0000
     21 C9         9.2272    8.4132   12.4373 C.3       1 RES1    0.0000
     22 C10        8.6474    7.3898   13.4100 C.ar      1 RES1    0.0000
     23 C11        9.3210    7.0184   14.5515 C.ar      1 RES1    0.0000
     24 H9        10.1175    7.4344   14.7908 H         1 RES1    0.0000
     25 C12        8.7834    6.0104   15.3359 C.ar      1 RES1    0.0000
     26 H10        9.2169    5.7394   16.1131 H         1 RES1    0.0000
     27 C13        7.6032    5.4127   14.9552 C.ar      1 RES1    0.0000
     28 H11        7.2298    4.7291   15.4628 H         1 RES1    0.0000
     29 C14        6.9887    5.8532   13.8034 C.ar      1 RES1    0.0000
     30 H12        6.1884    5.4551   13.5460 H         1 RES1    0.0000
@<TRIPOS>BOND
     1    1    3 1
     2    2   22 ar
     3    3   21 1
     4    4    5 1
     5    6    7 1
     6    8    6 ar
     7    9    8 1
     8   10    8 ar
     9   11   10 1
    10   12   10 ar
    11   13   12 1
    12   14   12 ar
    13   15   14 1
    14   16    6 ar
    15   17    1 2
    16   18   17 1
    17   19   18 1
    18   20   18 1
    19   21    4 1
    20   22   21 1
    21   23   22 ar
    22   24   23 1
    23   25   23 ar
    24   26   25 1
    25   27   25 ar
    26   28   27 1
    27   29    2 ar
    28   30   29 1
    29   14   16 ar
    30   16   17 1
    31   18   21 1
    32   27   29 ar
@<TRIPOS>SUBSTRUCTURE
     1 RES1 1

@<TRIPOS>CRYSIN
   9.3820   11.1510   12.0860  90.0000  90.0000  90.0000  19 1

