# MOL2 file generated by ConQuest
# Please check atom types

@<TRIPOS>MOLECULE
INIFOC
    44    46     1
SMALL
NO_CHARGES
****
Generated from CSD

@<TRIPOS>ATOM
      1 O1         4.5943    3.3430    7.7504 O.3       1 RES1    0.0000
      2 O2         2.4261    4.8941    9.3370 O.3       1 RES1    0.0000
      3 O3         3.2784    0.5870    9.4528 O.2       1 RES1    0.0000
      4 O4         5.5848    0.5492    6.8822 O.2       1 RES1    0.0000
      5 O5         7.2859    1.6657    7.5807 O.2       1 RES1    0.0000
      6 N1         3.6050    2.5084    8.3220 N.am      1 RES1    0.0000
      7 N2         6.1879    1.1696    7.7396 N.pl3     1 RES1    0.0000
      8 C1         4.0618    3.6280    6.4447 C.3       1 RES1    0.0000
      9 H1         4.2166    2.8842    5.8402 H         1 RES1    0.0000
     10 H2         4.4720    4.4240    6.0718 H         1 RES1    0.0000
     11 C2         2.5789    3.8417    6.6619 C.3       1 RES1    0.0000
     12 H3         2.0867    3.5187    5.8781 H         1 RES1    0.0000
     13 C3         2.2081    5.2946    6.9281 C.3       1 RES1    0.0000
     14 H4         2.5613    5.8512    6.2170 H         1 RES1    0.0000
     15 H5         1.2424    5.3840    6.9241 H         1 RES1    0.0000
     16 C4         2.7465    5.7766    8.2494 C.3       1 RES1    0.0000
     17 H6         3.7111    5.8619    8.1848 H         1 RES1    0.0000
     18 H7         2.3834    6.6555    8.4373 H         1 RES1    0.0000
     19 C5         1.6001    3.7796    9.0176 C.3       1 RES1    0.0000
     20 H8         0.7445    4.1217    8.6836 H         1 RES1    0.0000
     21 C6         2.2530    2.9314    7.8897 C.3       1 RES1    0.0000
     22 C7         4.0363    1.4048    8.9527 C.2       1 RES1    0.0000
     23 C8         5.5448    1.2706    9.0746 C.3       1 RES1    0.0000
     24 H9         5.8989    2.0418    9.5443 H         1 RES1    0.0000
     25 H10        5.7565    0.4796    9.5948 H         1 RES1    0.0000
     26 C9         1.3724    1.7345    7.4976 C.3       1 RES1    0.0000
     27 H11        1.2297    1.1895    8.2879 H         1 RES1    0.0000
     28 H12        0.5070    2.0724    7.2188 H         1 RES1    0.0000
     29 C10        1.9054    0.8614    6.4163 C.2       1 RES1    0.0000
     30 H13        2.7570    0.5086    6.5390 H         1 RES1    0.0000
     31 C11        1.2923    0.5500    5.3263 C.2       1 RES1    0.0000
     32 H14        0.4380    0.8805    5.1626 H         1 RES1    0.0000
     33 H15        1.7034   -0.0050    4.7038 H         1 RES1    0.0000
     34 C12        1.3356    3.0258   10.2980 C.ar      1 RES1    0.0000
     35 C13        0.1678    2.2952   10.4379 C.ar      1 RES1    0.0000
     36 H16       -0.4643    2.3019    9.7548 H         1 RES1    0.0000
     37 C14       -0.0688    1.5539   11.5833 C.ar      1 RES1    0.0000
     38 H17       -0.8397    1.0387   11.6510 H         1 RES1    0.0000
     39 C15        0.8335    1.5788   12.6189 C.ar      1 RES1    0.0000
     40 H18        0.6695    1.0925   13.3936 H         1 RES1    0.0000
     41 C16        1.9791    2.3276   12.4994 C.ar      1 RES1    0.0000
     42 H19        2.5852    2.3574   13.2042 H         1 RES1    0.0000
     43 C17        2.2403    3.0358   11.3475 C.ar      1 RES1    0.0000
     44 H20        3.0292    3.5228   11.2743 H         1 RES1    0.0000
@<TRIPOS>BOND
     1    1    6 1
     2    2   16 1
     3    3   22 2
     4    4    7 2
     5    5    7 2
     6    6   21 1
     7    7   23 1
     8    8    1 1
     9    9    8 1
    10   10    8 1
    11   11    8 1
    12   12   11 1
    13   13   11 1
    14   14   13 1
    15   15   13 1
    16   16   13 1
    17   17   16 1
    18   18   16 1
    19   19    2 1
    20   20   19 1
    21   21   11 1
    22   22    6 1
    23   23   22 1
    24   24   23 1
    25   25   23 1
    26   26   21 1
    27   27   26 1
    28   28   26 1
    29   29   26 1
    30   30   29 1
    31   31   29 2
    32   32   31 1
    33   33   31 1
    34   34   19 1
    35   35   34 ar
    36   36   35 1
    37   37   35 ar
    38   38   37 1
    39   39   37 ar
    40   40   39 1
    41   41   39 ar
    42   42   41 1
    43   43   34 ar
    44   44   43 1
    45   19   21 1
    46   41   43 ar
@<TRIPOS>SUBSTRUCTURE
     1 RES1 1

@<TRIPOS>CRYSIN
   9.4035    8.2831   21.0530  90.0000  91.4840  90.0000  14 1

