# MOL2 file generated by ConQuest
# Please check atom types

@<TRIPOS>MOLECULE
INIMID
    38    39     1
SMALL
NO_CHARGES
****
Generated from CSD

@<TRIPOS>ATOM
      1 C1        -0.7928   12.0349    8.0134 C.ar      1 RES1    0.0000
      2 C2         0.0922   11.9323    6.9415 C.ar      1 RES1    0.0000
      3 H1         0.7475   11.2733    6.9285 H         1 RES1    0.0000
      4 C3        -0.0235   12.8375    5.8906 C.ar      1 RES1    0.0000
      5 C4        -0.9955   13.8291    5.9246 C.ar      1 RES1    0.0000
      6 C5        -1.8732   13.9327    7.0026 C.ar      1 RES1    0.0000
      7 C6        -1.7714   13.0213    8.0493 C.ar      1 RES1    0.0000
      8 H2        -2.3564   13.0714    8.7701 H         1 RES1    0.0000
      9 O1         0.7708   12.8303    4.7873 O.3       1 RES1    0.0000
     10 C7         1.8842   11.9544    4.7946 C.3       1 RES1    0.0000
     11 H3         2.4785   12.1986    5.5081 H         1 RES1    0.0000
     12 H4         2.3470   12.0181    3.9556 H         1 RES1    0.0000
     13 H5         1.5812   11.0530    4.9252 H         1 RES1    0.0000
     14 O2        -1.1220   14.6952    4.8464 O.3       1 RES1    0.0000
     15 C8        -0.2789   15.8441    4.9323 C.3       1 RES1    0.0000
     16 H6        -0.5590   16.3928    5.6687 H         1 RES1    0.0000
     17 H7        -0.3394   16.3466    4.1162 H         1 RES1    0.0000
     18 H8         0.6295   15.5661    5.0691 H         1 RES1    0.0000
     19 O3        -2.8206   14.9022    6.9298 O.3       1 RES1    0.0000
     20 C9        -3.7607   14.9969    7.9945 C.3       1 RES1    0.0000
     21 H9        -4.2535   14.1750    8.0599 H         1 RES1    0.0000
     22 H10       -4.3667   15.7214    7.8231 H         1 RES1    0.0000
     23 H11       -3.2951   15.1570    8.8189 H         1 RES1    0.0000
     24 C10       -0.7192   11.0444    9.1378 C.3       1 RES1    0.0000
     25 H12       -1.6090   10.7089    9.3292 H         1 RES1    0.0000
     26 H13       -0.1673   10.2935    8.8700 H         1 RES1    0.0000
     27 O4        -0.1590   11.6520   10.3467 O.3       1 RES1    0.0000
     28 C11        1.1590   11.6499   10.4353 C.2       1 RES1    0.0000
     29 O5         1.9014   11.1835    9.6080 O.2       1 RES1    0.0000
     30 N1         0.8714   12.7428   12.6173 N.2       1 RES1    0.0000
     31 O6         1.7676   13.2367   13.6165 O.3       1 RES1    0.0000
     32 C12        3.0302   13.0355   13.2017 C.2       1 RES1    0.0000
     33 C13        3.0241   12.4382   11.9836 C.2       1 RES1    0.0000
     34 H14        3.7557   12.1860   11.4670 H         1 RES1    0.0000
     35 C14        1.6781   12.2882   11.6840 C.2       1 RES1    0.0000
     36 N2         4.0252   13.4415   13.9993 N.3       1 RES1    0.0000
     37 H15        4.9718   13.1826   13.7286 H         1 RES1    0.0000
     38 H16        3.7987   13.6883   14.7398 H         1 RES1    0.0000
@<TRIPOS>BOND
     1    1    2 ar
     2    2    3 1
     3    4    2 ar
     4    5    4 ar
     5    6    5 ar
     6    7    1 ar
     7    8    7 1
     8    9    4 1
     9   10    9 1
    10   11   10 1
    11   12   10 1
    12   13   10 1
    13   14    5 1
    14   15   14 1
    15   16   15 1
    16   17   15 1
    17   18   15 1
    18   19    6 1
    19   20   19 1
    20   21   20 1
    21   22   20 1
    22   23   20 1
    23   24    1 1
    24   25   24 1
    25   26   24 1
    26   27   24 1
    27   28   27 1
    28   29   28 2
    29   30   31 1
    30   31   32 1
    31   32   33 2
    32   33   34 1
    33   35   28 1
    34   36   32 1
    35   37   36 1
    36   38   36 1
    37    6    7 ar
    38   30   35 2
    39   33   35 1
@<TRIPOS>SUBSTRUCTURE
     1 RES1 1

@<TRIPOS>CRYSIN
   5.9317   20.9814   11.9352  90.0000  94.6150  90.0000  14 1

