# MOL2 file generated by ConQuest
# Please check atom types

@<TRIPOS>MOLECULE
ININOI
    35    37     1
SMALL
NO_CHARGES
****
Generated from CSD

@<TRIPOS>ATOM
      1 O1         1.1760    1.9575    7.8139 O.3       1 RES1    0.0000
      2 O2         0.0084   -0.0187    4.8559 O.3       1 RES1    0.0000
      3 N1         0.2355    0.9845    3.8575 N.3       1 RES1    0.0000
      4 O3         0.5559    0.1940    9.9708 O.3       1 RES1    0.0000
      5 O4         2.9140    2.9318    6.9213 O.2       1 RES1    0.0000
      6 O5        -0.7524   -1.5755   10.3329 O.2       1 RES1    0.0000
      7 C1         2.0443    2.1045    6.8137 C.2       1 RES1    0.0000
      8 C2         0.1240    0.9562    7.7320 C.3       1 RES1    0.0000
      9 C3         1.1748   -0.0777    5.7305 C.3       1 RES1    0.0000
     10 C4         0.9803    2.0340    4.5499 C.3       1 RES1    0.0000
     11 C5         1.8797    1.2779    5.5657 C.3       1 RES1    0.0000
     12 C6         0.6713   -0.3187    7.1386 C.3       1 RES1    0.0000
     13 H1        -0.0238   -0.9941    7.1225 H         1 RES1    0.0000
     14 H2         1.3984   -0.6471    7.6906 H         1 RES1    0.0000
     15 C7         0.2891   -1.0333   10.4655 C.2       1 RES1    0.0000
     16 C8         1.8254    1.7430    2.2840 C.3       1 RES1    0.0000
     17 H3         1.3796    2.0774    1.4902 H         1 RES1    0.0000
     18 H4         2.7545    1.5641    2.0679 H         1 RES1    0.0000
     19 C9        -0.4259    0.8158    9.1315 C.3       1 RES1    0.0000
     20 H5        -0.6526    1.6906    9.4846 H         1 RES1    0.0000
     21 H6        -1.2325    0.2772    9.1155 H         1 RES1    0.0000
     22 C10        1.1440    0.4874    2.7910 C.3       1 RES1    0.0000
     23 H7         0.6434    0.0536    2.0828 H         1 RES1    0.0000
     24 H8         1.7910   -0.1386    3.1505 H         1 RES1    0.0000
     25 C11        1.7233    2.7588    3.4307 C.3       1 RES1    0.0000
     26 H9         2.6060    3.0312    3.7260 H         1 RES1    0.0000
     27 H10        1.2322    3.5463    3.1473 H         1 RES1    0.0000
     28 C12        1.4512   -1.5557   11.2208 C.3       1 RES1    0.0000
     29 H11        2.1785   -0.9321   11.1598 H         1 RES1    0.0000
     30 H12        1.7212   -2.3992   10.8496 H         1 RES1    0.0000
     31 H13        1.2076   -1.6743   12.1419 H         1 RES1    0.0000
     32 H14        2.7721    1.1930    5.1884 H         1 RES1    0.0000
     33 H15        0.3766    2.5185    4.9744 H         1 RES1    0.0000
     34 H16       -0.5727    1.3978    7.1461 H         1 RES1    0.0000
     35 H17        1.7367   -0.7893    5.3595 H         1 RES1    0.0000
@<TRIPOS>BOND
     1    1    7 1
     2    2    3 1
     3    3   10 1
     4    4   15 1
     5    5    7 2
     6    6   15 2
     7    7   11 1
     8    8    1 1
     9    9    2 1
    10   10   11 1
    11   11    9 1
    12   12    8 1
    13   13   12 1
    14   14   12 1
    15   15   28 1
    16   16   17 1
    17   18   16 1
    18   19    4 1
    19   20   19 1
    20   21   19 1
    21   22    3 1
    22   23   22 1
    23   24   22 1
    24   25   10 1
    25   26   25 1
    26   27   25 1
    27   28   29 1
    28   30   28 1
    29   31   28 1
    30   32   11 1
    31   33   10 1
    32   34    8 1
    33   35    9 1
    34    8   19 1
    35    9   12 1
    36   16   25 1
    37   16   22 1
@<TRIPOS>SUBSTRUCTURE
     1 RES1 1

@<TRIPOS>CRYSIN
   9.4490    6.0250   10.9050  90.0000 101.1900  90.0000   4 1

