# MOL2 file generated by ConQuest
# Please check atom types

@<TRIPOS>MOLECULE
ININIC
    42    43     2
SMALL
NO_CHARGES
****
Generated from CSD

@<TRIPOS>ATOM
      1 C1         3.9052    3.7822   11.4714 C.2       1 RES1    0.0000
      2 O1         4.3804    4.5200   12.2916 O.2       1 RES1    0.0000
      3 O2         2.7285    2.6768    7.6776 O.3       1 RES1    0.0000
      4 O3         1.6984    5.0059    9.5795 O.3       1 RES1    0.0000
      5 O4         4.7080    3.0559   10.6954 O.3       1 RES1    0.0000
      6 O5         6.0166    2.9554    8.2896 O.3       1 RES1    0.0000
      7 N1         1.1471    5.5520   10.7801 N.3       1 RES1    0.0000
      8 C2         1.5503    4.6446   11.8859 C.3       1 RES1    0.0000
      9 O6         3.5812    4.3231    6.4536 O.2       1 RES1    0.0000
     10 C3         4.1185    2.3385    9.5895 C.3       1 RES1    0.0000
     11 H1         3.6009    1.5782    9.9264 H         1 RES1    0.0000
     12 C4         3.2026    3.3041    8.8770 C.3       1 RES1    0.0000
     13 H2         3.6924    4.1236    8.6547 H         1 RES1    0.0000
     14 C5         2.0413    3.6293    9.7800 C.3       1 RES1    0.0000
     15 H3         1.2766    3.0481    9.5860 H         1 RES1    0.0000
     16 C6         3.0140    3.2847    6.5171 C.2       1 RES1    0.0000
     17 C7         7.2562    4.1178    6.7393 C.3       1 RES1    0.0000
     18 H4         6.6481    4.8069    6.4642 H         1 RES1    0.0000
     19 H5         7.8755    3.9351    6.0285 H         1 RES1    0.0000
     20 H6         7.7388    4.4095    7.5171 H         1 RES1    0.0000
     21 C8         6.5042    2.8978    7.0603 C.2       1 RES1    0.0000
     22 C9         2.5528    2.4344    5.3689 C.3       1 RES1    0.0000
     23 H7         2.7296    2.8899    4.5434 H         1 RES1    0.0000
     24 H8         1.6106    2.2705    5.4500 H         1 RES1    0.0000
     25 H9         3.0258    1.5981    5.3812 H         1 RES1    0.0000
     26 C10        0.2678    4.1833   12.5121 C.3       1 RES1    0.0000
     27 H10        0.1195    3.2413   12.3375 H         1 RES1    0.0000
     28 H11        0.2859    4.3236   13.4715 H         1 RES1    0.0000
     29 C11        5.2533    1.8432    8.7500 C.3       1 RES1    0.0000
     30 H12        5.8176    1.2525    9.2738 H         1 RES1    0.0000
     31 H13        4.9100    1.3436    7.9933 H         1 RES1    0.0000
     32 C12       -0.3039    5.4348   10.7060 C.3       1 RES1    0.0000
     33 H14       -0.6995    6.2993   10.5137 H         1 RES1    0.0000
     34 H15       -0.5538    4.8190    9.9987 H         1 RES1    0.0000
     35 C13        2.4033    3.5701   11.2598 C.3       1 RES1    0.0000
     36 H16        2.3118    2.7752   11.7113 H         1 RES1    0.0000
     37 O7         5.9736    1.9950    6.2931 O.2       1 RES1    0.0000
     38 O8         6.7636    1.9950    6.4730 Du        2 SUP2    0.0000
     39 C14       -0.7458    4.9745   11.9071 C.3       1 RES1    0.0000
     40 H17       -1.5470    4.4409   11.7801 H         1 RES1    0.0000
     41 H18       -0.9686    5.7217   12.4838 H         1 RES1    0.0000
     42 H19        2.3016    5.2468   12.4521 H         1 RES1    0.0000
@<TRIPOS>BOND
     1    1    2 2
     2    3   12 1
     3    4    7 1
     4    5    1 1
     5    6   21 1
     6    7    8 1
     7    8   26 1
     8    9   16 2
     9   10    5 1
    10   11   10 1
    11   12   10 1
    12   13   12 1
    13   14    4 1
    14   15   14 1
    15   16    3 1
    16   17   18 1
    17   19   17 1
    18   20   17 1
    19   21   17 1
    20   22   16 1
    21   23   22 1
    22   24   22 1
    23   25   22 1
    24   26   27 1
    25   28   26 1
    26   29    6 1
    27   30   29 1
    28   31   29 1
    29   32    7 1
    30   33   32 1
    31   34   32 1
    32   35    1 1
    33   36   35 1
    34   37   21 2
    35   39   26 1
    36   40   39 1
    37   41   39 1
    38   42    8 1
    39    8   35 1
    40   10   29 1
    41   12   14 1
    42   14   35 1
    43   32   39 1
@<TRIPOS>SUBSTRUCTURE
     1 RES1 1
     2 SUP2 38

