# MOL2 file generated by ConQuest
# Please check atom types

@<TRIPOS>MOLECULE
INODIY
    31    32     1
SMALL
NO_CHARGES
****
Generated from CSD

@<TRIPOS>ATOM
      1 N1         2.8464    9.8577   15.7435 N.am      1 RES1    0.0000
      2 C1         2.6631   11.0002   13.6175 C.ar      1 RES1    0.0000
      3 C2         3.0276   10.6815   12.3026 C.ar      1 RES1    0.0000
      4 C3         3.2502   11.6956   11.3810 C.ar      1 RES1    0.0000
      5 C4         3.1382   13.0262   11.7692 C.ar      1 RES1    0.0000
      6 C5         2.8057   13.3435   13.0733 C.ar      1 RES1    0.0000
      7 C6         2.5546   12.3345   13.9915 C.ar      1 RES1    0.0000
      8 C7         2.1930    9.9152   14.5484 C.2       1 RES1    0.0000
      9 C8         3.2757    9.2607   11.9413 C.2       1 RES1    0.0000
     10 O1         3.0734    8.9747   10.6768 O.3       1 RES1    0.0000
     11 O2         3.6626    8.4477   12.7747 O.2       1 RES1    0.0000
     12 O3         1.2497    9.1976   14.2495 O.2       1 RES1    0.0000
     13 C9         2.5372    8.9470   16.7822 C.ar      1 RES1    0.0000
     14 C10        2.5277    9.3293   18.1234 C.ar      1 RES1    0.0000
     15 C11        2.1937    8.4548   19.1482 C.ar      1 RES1    0.0000
     16 C12        1.8831    7.1491   18.8392 C.ar      1 RES1    0.0000
     17 C13        1.8911    6.7421   17.5153 C.ar      1 RES1    0.0000
     18 C14        2.2025    7.6293   16.4928 C.ar      1 RES1    0.0000
     19 N2         2.8581   10.7002   18.5044 N.pl3     1 RES1    0.0000
     20 O4         2.2454   11.2058   19.4369 O.2       1 RES1    0.0000
     21 O5         3.7442   11.2955   17.8701 O.2       1 RES1    0.0000
     22 H1         3.4256   10.4991   15.9073 H         1 RES1    0.0000
     23 H2         3.4787   11.4802   10.4835 H         1 RES1    0.0000
     24 H3         3.2910   13.7194   11.1379 H         1 RES1    0.0000
     25 H4         2.7496   14.2539   13.3406 H         1 RES1    0.0000
     26 H5         2.3073   12.5566   14.8820 H         1 RES1    0.0000
     27 H6         3.2604    8.1676   10.5388 H         1 RES1    0.0000
     28 H7         2.1792    8.7527   20.0500 H         1 RES1    0.0000
     29 H8         1.6648    6.5329   19.5293 H         1 RES1    0.0000
     30 H9         1.6801    5.8406   17.3036 H         1 RES1    0.0000
     31 H10        2.1865    7.3339   15.5893 H         1 RES1    0.0000
@<TRIPOS>BOND
     1    1    8 1
     2    2    3 ar
     3    3    4 ar
     4    4    5 ar
     5    5    6 ar
     6    6    7 ar
     7    7    2 ar
     8    8    2 1
     9    9    3 1
    10   10    9 1
    11   11    9 2
    12   12    8 2
    13   13    1 1
    14   14   13 ar
    15   15   14 ar
    16   16   15 ar
    17   17   16 ar
    18   18   13 ar
    19   19   14 1
    20   20   19 2
    21   21   19 2
    22   22    1 1
    23   23    4 1
    24   24    5 1
    25   25    6 1
    26   26    7 1
    27   27   10 1
    28   28   15 1
    29   29   16 1
    30   30   17 1
    31   31   18 1
    32   17   18 ar
@<TRIPOS>SUBSTRUCTURE
     1 RES1 1

@<TRIPOS>CRYSIN
   7.2761   14.8881   23.0407  90.0000  90.0000  90.0000  61 1

