# MOL2 file generated by ConQuest
# Please check atom types

@<TRIPOS>MOLECULE
INODUK01
    31    32     1
SMALL
NO_CHARGES
****
Generated from CSD

@<TRIPOS>ATOM
      1 N1         1.7015    7.0922   19.4815 N.am      1 RES1    0.0000
      2 C1         2.1252    6.4692   21.7864 C.ar      1 RES1    0.0000
      3 C2         2.4289    7.6315   22.4909 C.ar      1 RES1    0.0000
      4 C3         2.1060    7.6836   23.8486 C.ar      1 RES1    0.0000
      5 C4         1.5264    6.5961   24.4819 C.ar      1 RES1    0.0000
      6 C5         1.2568    5.4527   23.7774 C.ar      1 RES1    0.0000
      7 C6         1.5644    5.3779   22.4213 C.ar      1 RES1    0.0000
      8 C7         2.3995    6.2788   20.3004 C.2       1 RES1    0.0000
      9 C8         3.1550    8.7546   21.8712 C.2       1 RES1    0.0000
     10 O1         3.1919    9.8404   22.6286 O.3       1 RES1    0.0000
     11 O2         3.6915    8.7139   20.7766 O.2       1 RES1    0.0000
     12 O3         3.1640    5.4013   19.9284 O.2       1 RES1    0.0000
     13 C9         1.7611    7.1531   18.0767 C.ar      1 RES1    0.0000
     14 C10        2.2968    6.1418   17.2941 C.ar      1 RES1    0.0000
     15 C11        2.2999    6.3118   15.9231 C.ar      1 RES1    0.0000
     16 C12        1.7862    7.4310   15.3571 C.ar      1 RES1    0.0000
     17 C13        1.2387    8.4500   16.1187 C.ar      1 RES1    0.0000
     18 C14        1.2266    8.2914   17.4938 C.ar      1 RES1    0.0000
     19 N2         1.8093    7.5528   13.9033 N.pl3     1 RES1    0.0000
     20 O4         1.1678    8.4525   13.3847 O.2       1 RES1    0.0000
     21 O5         2.4696    6.7534   13.2644 O.2       1 RES1    0.0000
     22 H1         1.1800    7.6480   19.9212 H         1 RES1    0.0000
     23 H2         2.2858    8.4741   24.3425 H         1 RES1    0.0000
     24 H3         1.3155    6.6443   25.4063 H         1 RES1    0.0000
     25 H4         0.8586    4.7091   24.2151 H         1 RES1    0.0000
     26 H5         1.3896    4.5797   21.9352 H         1 RES1    0.0000
     27 H6         3.6457   10.4347   22.2454 H         1 RES1    0.0000
     28 H7         2.6522    5.3550   17.6883 H         1 RES1    0.0000
     29 H8         2.6675    5.6342   15.3696 H         1 RES1    0.0000
     30 H9         0.8833    9.2304   15.7103 H         1 RES1    0.0000
     31 H10        0.8488    8.9690   18.0429 H         1 RES1    0.0000
@<TRIPOS>BOND
     1    1    8 1
     2    2    3 ar
     3    3    4 ar
     4    4    5 ar
     5    5    6 ar
     6    6    7 ar
     7    7    2 ar
     8    8    2 1
     9    9    3 1
    10   10    9 1
    11   11    9 2
    12   12    8 2
    13   13    1 1
    14   14   13 ar
    15   15   14 ar
    16   16   15 ar
    17   17   16 ar
    18   18   13 ar
    19   19   16 1
    20   20   19 2
    21   21   19 2
    22   22    1 1
    23   23    4 1
    24   24    5 1
    25   25    6 1
    26   26    7 1
    27   27   10 1
    28   28   14 1
    29   29   15 1
    30   30   17 1
    31   31   18 1
    32   17   18 ar
@<TRIPOS>SUBSTRUCTURE
     1 RES1 1

@<TRIPOS>CRYSIN
   3.9188   12.6896   27.7029  90.0000  90.0000  90.0000  19 1

