# MOL2 file generated by ConQuest
# Please check atom types

@<TRIPOS>MOLECULE
INODAQ
    36    37     1
SMALL
NO_CHARGES
****
Generated from CSD

@<TRIPOS>ATOM
      1 C1        -1.7367    3.5216    7.2859 C.ar      1 RES1    0.0000
      2 H1        -2.6080    3.2702    7.4908 H         1 RES1    0.0000
      3 C2         1.5086   -0.5290    8.7783 C.3       1 RES1    0.0000
      4 H2         0.9934   -0.3240    9.5611 H         1 RES1    0.0000
      5 H3         1.3759   -1.4498    8.5398 H         1 RES1    0.0000
      6 H4         1.2274    0.0331    8.0523 H         1 RES1    0.0000
      7 C3        -1.4904    4.3360    6.2198 C.ar      1 RES1    0.0000
      8 H5        -2.1982    4.6459    5.7025 H         1 RES1    0.0000
      9 C4        -0.6859    3.0746    8.0558 C.ar      1 RES1    0.0000
     10 H6        -0.8584    2.5220    8.7824 H         1 RES1    0.0000
     11 O1         0.7313    2.7027   12.0010 O.3       1 RES1    0.0000
     12 H7         0.1815    3.1259   12.4377 H         1 RES1    0.0000
     13 C5         2.9609   -0.2909    9.0599 C.ar      1 RES1    0.0000
     14 N1         0.7118    3.1487   10.6600 N.2       1 RES1    0.0000
     15 C6        -0.2134    4.6995    5.9074 C.ar      1 RES1    0.0000
     16 H8        -0.0579    5.2576    5.1803 H         1 RES1    0.0000
     17 C7         3.9387   -1.1321    8.5463 C.ar      1 RES1    0.0000
     18 H9         3.6891   -1.8393    7.9968 H         1 RES1    0.0000
     19 C8         0.6224    3.4302    7.7699 C.ar      1 RES1    0.0000
     20 C9         1.6039    2.5141    9.9728 C.2       1 RES1    0.0000
     21 N2         2.4134    1.5783   10.5121 N.pl3     1 RES1    0.0000
     22 H10        2.3347    1.4593   11.3610 H         1 RES1    0.0000
     23 C10        3.3770    0.7647    9.8596 C.ar      1 RES1    0.0000
     24 C11        0.8474    4.2446    6.6600 C.ar      1 RES1    0.0000
     25 H11        1.7159    4.4819    6.4280 H         1 RES1    0.0000
     26 C12        1.7815    2.9777    8.5583 C.2       1 RES1    0.0000
     27 C13        5.2533   -0.9429    8.8319 C.ar      1 RES1    0.0000
     28 H12        5.8893   -1.5271    8.4867 H         1 RES1    0.0000
     29 C14        4.7142    0.9839   10.1540 C.ar      1 RES1    0.0000
     30 O2         2.9050    3.0092    8.1066 O.2       1 RES1    0.0000
     31 C15        5.6493    0.1009    9.6265 C.ar      1 RES1    0.0000
     32 H13        6.5522    0.2207    9.8153 H         1 RES1    0.0000
     33 C16        5.1338    2.1436   10.9957 C.3       1 RES1    0.0000
     34 H14        4.9599    2.9611   10.5246 H         1 RES1    0.0000
     35 H15        6.0731    2.0781   11.1854 H         1 RES1    0.0000
     36 H16        4.6399    2.1373   11.8185 H         1 RES1    0.0000
@<TRIPOS>BOND
     1    1    2 1
     2    3    4 1
     3    5    3 1
     4    6    3 1
     5    7    1 ar
     6    8    7 1
     7    9    1 ar
     8   10    9 1
     9   11   12 1
    10   13    3 1
    11   14   11 1
    12   15    7 ar
    13   16   15 1
    14   17   13 ar
    15   18   17 1
    16   19    9 ar
    17   20   14 2
    18   21   20 1
    19   22   21 1
    20   23   13 ar
    21   24   15 ar
    22   25   24 1
    23   26   19 1
    24   27   17 ar
    25   28   27 1
    26   29   23 ar
    27   30   26 2
    28   31   27 ar
    29   32   31 1
    30   33   29 1
    31   34   33 1
    32   35   33 1
    33   36   33 1
    34   19   24 ar
    35   20   26 1
    36   21   23 1
    37   29   31 ar
@<TRIPOS>SUBSTRUCTURE
     1 RES1 1

@<TRIPOS>CRYSIN
   8.1002    7.8837   23.1080  90.0000  90.8280  90.0000 231 1

