# MOL2 file generated by ConQuest
# Please check atom types

@<TRIPOS>MOLECULE
INODUK
    62    64     2
SMALL
NO_CHARGES
****
Generated from CSD

@<TRIPOS>ATOM
      1 C1         1.3630    0.8812    8.1134 C.ar      1 RES1    0.0000
      2 C2         2.0439    1.9312    8.7482 C.ar      1 RES1    0.0000
      3 C3         1.8172    2.1731   10.0986 C.ar      1 RES1    0.0000
      4 C4         0.9402    1.3847   10.8091 C.ar      1 RES1    0.0000
      5 C5         0.3088    0.3300   10.1991 C.ar      1 RES1    0.0000
      6 C6         0.5040    0.0778    8.8589 C.ar      1 RES1    0.0000
      7 C7         3.0699    2.6868    7.9938 C.2       1 RES1    0.0000
      8 O1         3.7479    3.5371    8.7428 O.3       1 RES1    0.0000
      9 O2         3.2994    2.5190    6.8085 O.2       1 RES1    0.0000
     10 C8         1.5745    0.5578    6.6639 C.2       1 RES1    0.0000
     11 O3         2.3325   -0.3506    6.3222 O.2       1 RES1    0.0000
     12 N1         0.8180    1.2825    5.8162 N.am      1 RES1    0.0000
     13 C9         0.8918    1.3134    4.4203 C.ar      1 RES1    0.0000
     14 C10        2.0615    1.0228    3.7276 C.ar      1 RES1    0.0000
     15 C11        2.0683    1.0828    2.3519 C.ar      1 RES1    0.0000
     16 C12        0.9090    1.4315    1.6875 C.ar      1 RES1    0.0000
     17 C13       -0.2572    1.7278    2.3503 C.ar      1 RES1    0.0000
     18 C14       -0.2618    1.6819    3.7254 C.ar      1 RES1    0.0000
     19 N2         0.9064    1.4794    0.2255 N.pl3     1 RES1    0.0000
     20 O4         2.0024    1.4456   -0.3511 O.2       1 RES1    0.0000
     21 O5        -0.1726    1.5487   -0.3548 O.2       1 RES1    0.0000
     22 C15        6.7141    5.4721    5.5538 C.ar      2 RES2    0.0000
     23 C16        5.8226    6.2437    4.7948 C.ar      2 RES2    0.0000
     24 C17        6.0246    6.3824    3.4234 C.ar      2 RES2    0.0000
     25 C18        7.1099    5.7759    2.8169 C.ar      2 RES2    0.0000
     26 C19        7.9827    5.0203    3.5665 C.ar      2 RES2    0.0000
     27 C20        7.7975    4.8534    4.9188 C.ar      2 RES2    0.0000
     28 C21        4.6732    6.9009    5.4662 C.2       2 RES2    0.0000
     29 O6         4.0335    7.7690    4.6984 O.3       2 RES2    0.0000
     30 O7         4.3570    6.6637    6.6127 O.2       2 RES2    0.0000
     31 C22        6.5102    5.2237    7.0176 C.2       2 RES2    0.0000
     32 O8         5.9509    4.1990    7.3994 O.2       2 RES2    0.0000
     33 N3         7.0606    6.1546    7.8316 N.am      2 RES2    0.0000
     34 C23        6.9993    6.2512    9.2313 C.ar      2 RES2    0.0000
     35 C24        6.5090    5.2387   10.0582 C.ar      2 RES2    0.0000
     36 C25        6.4983    5.4215   11.4277 C.ar      2 RES2    0.0000
     37 C26        6.9644    6.6027   11.9606 C.ar      2 RES2    0.0000
     38 C27        7.4612    7.6049   11.1647 C.ar      2 RES2    0.0000
     39 C28        7.4861    7.4240    9.8014 C.ar      2 RES2    0.0000
     40 N4         6.9236    6.7968   13.4094 N.pl3     2 RES2    0.0000
     41 O9         6.5864    5.8687   14.1266 O.2       2 RES2    0.0000
     42 O10        7.2251    7.8937   13.8502 O.2       2 RES2    0.0000
     43 H1         2.2712    2.8865   10.5321 H         1 RES1    0.0000
     44 H2         0.7701    1.5722   11.7257 H         1 RES1    0.0000
     45 H3        -0.2664   -0.2316   10.7045 H         1 RES1    0.0000
     46 H4         0.0510   -0.6459    8.4413 H         1 RES1    0.0000
     47 H5         4.3770    3.8662    8.2931 H         1 RES1    0.0000
     48 H6         0.2052    1.7962    6.1835 H         1 RES1    0.0000
     49 H7         2.8503    0.7847    4.2004 H         1 RES1    0.0000
     50 H8         2.8603    0.8869    1.8672 H         1 RES1    0.0000
     51 H9        -1.0435    1.9584    1.8699 H         1 RES1    0.0000
     52 H10       -1.0524    1.9022    4.2031 H         1 RES1    0.0000
     53 H11        5.4150    6.8934    2.9045 H         2 RES2    0.0000
     54 H12        7.2526    5.8818    1.8833 H         2 RES2    0.0000
     55 H13        8.7257    4.6068    3.1416 H         2 RES2    0.0000
     56 H14        8.4031    4.3200    5.4210 H         2 RES2    0.0000
     57 H15        3.4823    8.2012    5.1623 H         2 RES2    0.0000
     58 H16        7.5208    6.7874    7.4282 H         2 RES2    0.0000
     59 H17        6.1854    4.4287    9.6807 H         2 RES2    0.0000
     60 H18        6.1703    4.7371   11.9978 H         2 RES2    0.0000
     61 H19        7.7832    8.4112   11.5506 H         2 RES2    0.0000
     62 H20        7.8387    8.1074    9.2415 H         2 RES2    0.0000
@<TRIPOS>BOND
     1    1    2 ar
     2    2    3 ar
     3    3    4 ar
     4    4    5 ar
     5    5    6 ar
     6    6    1 ar
     7    7    2 1
     8    8    7 1
     9    9    7 2
    10   10    1 1
    11   11   10 2
    12   12   10 1
    13   13   12 1
    14   14   13 ar
    15   15   14 ar
    16   16   15 ar
    17   17   16 ar
    18   18   13 ar
    19   19   16 1
    20   20   19 2
    21   21   19 2
    22   22   23 ar
    23   23   24 ar
    24   24   25 ar
    25   25   26 ar
    26   26   27 ar
    27   27   22 ar
    28   28   23 1
    29   29   28 1
    30   30   28 2
    31   31   22 1
    32   32   31 2
    33   33   31 1
    34   34   33 1
    35   35   34 ar
    36   36   35 ar
    37   37   36 ar
    38   38   37 ar
    39   39   34 ar
    40   40   37 1
    41   41   40 2
    42   42   40 2
    43   43    3 1
    44   44    4 1
    45   45    5 1
    46   46    6 1
    47   47    8 1
    48   48   12 1
    49   49   14 1
    50   50   15 1
    51   51   17 1
    52   52   18 1
    53   53   24 1
    54   54   25 1
    55   55   26 1
    56   56   27 1
    57   57   29 1
    58   58   33 1
    59   59   35 1
    60   60   36 1
    61   61   38 1
    62   62   39 1
    63   17   18 ar
    64   38   39 ar
@<TRIPOS>SUBSTRUCTURE
     1 RES1 1
     2 RES2 22

@<TRIPOS>CRYSIN
  10.2098    9.3749   27.4090  90.0000 100.5780  90.0000 231 1

