# MOL2 file generated by ConQuest
# Please check atom types

@<TRIPOS>MOLECULE
INUBAW
    60    64     2
SMALL
USER_CHARGES
****
Generated from CSD

@<TRIPOS>ATOM
      1 C1         5.5437    2.6453    6.7253 C.ar      1 RES1    0.0000
      2 H1         5.3283    2.3902    5.8560 H         1 RES1    0.0000
      3 C2         4.5574    3.1781    7.5626 C.ar      1 RES1    0.0000
      4 H2         3.6993    3.3099    7.2291 H         1 RES1    0.0000
      5 C3         4.8191    3.5061    8.8417 C.ar      1 RES1    0.0000
      6 H3         4.1462    3.8450    9.3845 H         1 RES1    0.0000
      7 C4         6.1151    3.3324    9.3490 C.ar      1 RES1    0.0000
      8 C5         7.1263    2.8632    8.4851 C.ar      1 RES1    0.0000
      9 C6         8.4561    2.6786    8.9375 C.ar      1 RES1    0.0000
     10 C7         8.7196    2.9090   10.2520 C.ar      1 RES1    0.0000
     11 H4         9.5813    2.7686   10.5731 H         1 RES1    0.0000
     12 C8         7.7262    3.3526   11.1390 C.ar      1 RES1    0.0000
     13 H5         7.9274    3.4922   12.0349 H         1 RES1    0.0000
     14 C9         6.4747    3.5759   10.6795 C.ar      1 RES1    0.0000
     15 H6         5.8303    3.9024   11.2650 H         1 RES1    0.0000
     16 C10        9.6062    2.3661    8.0168 C.2       1 RES1    0.0000
     17 C11       10.1883    3.5015    7.2557 C.ar      1 RES1    0.0000
     18 C12        9.8768    4.8137    7.5289 C.ar      1 RES1    0.0000
     19 H7         9.2483    5.0021    8.1871 H         1 RES1    0.0000
     20 C13       10.4714    5.8614    6.8459 C.ar      1 RES1    0.0000
     21 H8        10.2310    6.7385    7.0375 H         1 RES1    0.0000
     22 C14       11.4113    5.6024    5.8950 C.ar      1 RES1    0.0000
     23 H9        11.8261    6.3027    5.4462 H         1 RES1    0.0000
     24 C15       11.7442    4.2863    5.5970 C.ar      1 RES1    0.0000
     25 H10       12.3727    4.1041    4.9371 H         1 RES1    0.0000
     26 C16       11.1496    3.2611    6.2747 C.ar      1 RES1    0.0000
     27 H11       11.3918    2.3847    6.0795 H         1 RES1    0.0000
     28 N1         6.8023    2.5011    7.1741 N.pl3     1 RES1    1.0000
     29 O1         7.7474    2.0016    6.4113 O.2       1 RES1   -1.0000
     30 O2        10.1479    1.2765    8.0398 O.2       1 RES1    0.0000
     31 C17       16.7289    4.7850   12.6398 C.ar      2 RES2    0.0000
     32 H12       16.9212    4.8710   13.5446 H         2 RES2    0.0000
     33 C18       17.7615    4.7152   11.7227 C.ar      2 RES2    0.0000
     34 H13       18.6409    4.7663   12.0242 H         2 RES2    0.0000
     35 C19       17.5265    4.5748   10.4063 C.ar      2 RES2    0.0000
     36 H14       18.2332    4.5096    9.8050 H         2 RES2    0.0000
     37 C20       16.1931    4.5290    9.9486 C.ar      2 RES2    0.0000
     38 C21       15.1445    4.6182   10.8800 C.ar      2 RES2    0.0000
     39 C22       13.7969    4.6174   10.4525 C.ar      2 RES2    0.0000
     40 C23       13.5334    4.5352    9.1166 C.ar      2 RES2    0.0000
     41 H15       12.6522    4.5523    8.8204 H         2 RES2    0.0000
     42 C24       14.5802    4.4243    8.1853 C.ar      2 RES2    0.0000
     43 H16       14.3808    4.3545    7.2788 H         2 RES2    0.0000
     44 C25       15.8691    4.4174    8.5791 C.ar      2 RES2    0.0000
     45 H17       16.5473    4.3390    7.9476 H         2 RES2    0.0000
     46 C26       12.6201    4.8051   11.3909 C.2       2 RES2    0.0000
     47 C27       12.0273    3.6186   12.0562 C.ar      2 RES2    0.0000
     48 C28       12.5026    2.3421   11.8468 C.ar      2 RES2    0.0000
     49 H18       13.2201    2.2118   11.2703 H         2 RES2    0.0000
     50 C29       11.9383    1.2587   12.4748 C.ar      2 RES2    0.0000
     51 H19       12.2356    0.3986   12.2868 H         2 RES2    0.0000
     52 C30       10.9129    1.4619   13.3955 C.ar      2 RES2    0.0000
     53 H20       10.5533    0.7414   13.8621 H         2 RES2    0.0000
     54 C31       10.4393    2.7182   13.6120 C.ar      2 RES2    0.0000
     55 H21        9.7504    2.8500   14.2205 H         2 RES2    0.0000
     56 C32       10.9681    3.8008   12.9396 C.ar      2 RES2    0.0000
     57 H22       10.6174    4.6516   13.0762 H         2 RES2    0.0000
     58 N2        15.4471    4.7291   12.2353 N.pl3     2 RES2    1.0000
     59 O3        14.4646    4.7896   13.0904 O.2       2 RES2   -1.0000
     60 O4        12.1117    5.8971   11.4725 O.2       2 RES2    0.0000
@<TRIPOS>BOND
     1    1    2 1
     2    3    1 ar
     3    4    3 1
     4    5    3 ar
     5    6    5 1
     6    7    5 ar
     7    8    7 ar
     8    9    8 ar
     9   10    9 ar
    10   11   10 1
    11   12   10 ar
    12   13   12 1
    13   14    7 ar
    14   15   14 1
    15   16    9 1
    16   17   16 1
    17   18   17 ar
    18   19   18 1
    19   20   18 ar
    20   21   20 1
    21   22   20 ar
    22   23   22 1
    23   24   22 ar
    24   25   24 1
    25   26   17 ar
    26   27   26 1
    27   28    1 ar
    28   29   28 1
    29   30   16 2
    30   31   32 1
    31   33   31 ar
    32   34   33 1
    33   35   33 ar
    34   36   35 1
    35   37   35 ar
    36   38   37 ar
    37   39   38 ar
    38   40   39 ar
    39   41   40 1
    40   42   40 ar
    41   43   42 1
    42   44   37 ar
    43   45   44 1
    44   46   39 1
    45   47   46 1
    46   48   47 ar
    47   49   48 1
    48   50   48 ar
    49   51   50 1
    50   52   50 ar
    51   53   52 1
    52   54   52 ar
    53   55   54 1
    54   56   47 ar
    55   57   56 1
    56   58   31 ar
    57   59   58 1
    58   60   46 2
    59    8   28 ar
    60   12   14 ar
    61   24   26 ar
    62   38   58 ar
    63   42   44 ar
    64   54   56 ar
@<TRIPOS>SUBSTRUCTURE
     1 RES1 1
     2 RES2 31

@<TRIPOS>CRYSIN
  17.8024    7.7552   17.7401  90.0000  90.0000  90.0000  33 1

