# MOL2 file generated by ConQuest
# Please check atom types

@<TRIPOS>MOLECULE
INUYOH
   102   106     2
SMALL
NO_CHARGES
****
Generated from CSD

@<TRIPOS>ATOM
      1 O1         2.1382   11.3921   12.6257 O.3       1 RES1    0.0000
      2 O2         1.7781   13.2811   13.8091 O.2       1 RES1    0.0000
      3 O3         2.4868   11.5272    7.8389 O.2       1 RES1    0.0000
      4 O4         1.8227   13.2767    6.7326 O.2       1 RES1    0.0000
      5 O5         0.0325   17.0611    9.1108 O.2       1 RES1    0.0000
      6 O6         0.3877   17.2323   11.2395 O.2       1 RES1    0.0000
      7 N1         2.0470   12.6696    7.7799 N.pl3     1 RES1    0.0000
      8 N2         0.4255   16.6193   10.1802 N.pl3     1 RES1    0.0000
      9 C1        -0.0128    6.4614   12.7563 C.ar      1 RES1    0.0000
     10 H1        -0.4426    6.5479   13.5984 H         1 RES1    0.0000
     11 C2         0.0434    5.2161   12.1356 C.ar      1 RES1    0.0000
     12 H2        -0.3371    4.4588   12.5653 H         1 RES1    0.0000
     13 C3         0.6477    5.0683   10.8996 C.ar      1 RES1    0.0000
     14 H3         0.6785    4.2173   10.4783 H         1 RES1    0.0000
     15 C4         1.2064    6.1748   10.2866 C.ar      1 RES1    0.0000
     16 H4         1.6248    6.0864    9.4388 H         1 RES1    0.0000
     17 C5         1.1565    7.4155   10.9068 C.ar      1 RES1    0.0000
     18 H5         1.5410    8.1677   10.4719 H         1 RES1    0.0000
     19 C6         0.5552    7.5833   12.1516 C.ar      1 RES1    0.0000
     20 C7         0.6018    8.9578   12.8082 C.3       1 RES1    0.0000
     21 H6         0.5400    9.6303   12.0704 H         1 RES1    0.0000
     22 C8        -0.5762    9.2248   13.7413 C.3       1 RES1    0.0000
     23 H7        -0.5438    8.5999   14.4954 H         1 RES1    0.0000
     24 H8        -1.4160    9.1019   13.2509 H         1 RES1    0.0000
     25 H9        -0.5256   10.1448   14.0773 H         1 RES1    0.0000
     26 C9         1.9826    9.1602   13.4770 C.3       1 RES1    0.0000
     27 H10        2.6726    8.8921   12.8040 H         1 RES1    0.0000
     28 C10        2.2026    8.2812   14.7108 C.3       1 RES1    0.0000
     29 H11        1.5458    8.5285   15.4084 H         1 RES1    0.0000
     30 H12        2.0489    7.3343   14.4682 H         1 RES1    0.0000
     31 C11        3.6125    8.4334   15.2719 C.3       1 RES1    0.0000
     32 H13        3.7039    7.8789   16.0875 H         1 RES1    0.0000
     33 H14        4.2688    8.1096   14.6059 H         1 RES1    0.0000
     34 C12        3.9098    9.8832   15.6115 C.3       1 RES1    0.0000
     35 H15        4.8514    9.9661   15.9065 H         1 RES1    0.0000
     36 H16        3.3289   10.1727   16.3582 H         1 RES1    0.0000
     37 C13        3.6742   10.7881   14.4044 C.3       1 RES1    0.0000
     38 H17        3.8046   11.7326   14.6700 H         1 RES1    0.0000
     39 H18        4.3354   10.5750   13.6993 H         1 RES1    0.0000
     40 C14        2.2728   10.6085   13.8529 C.3       1 RES1    0.0000
     41 H19        1.6034   10.9216   14.5274 H         1 RES1    0.0000
     42 C15        1.9011   12.6992   12.7598 C.2       1 RES1    0.0000
     43 C16        1.7365   13.3617   11.4309 C.ar      1 RES1    0.0000
     44 C17        2.0244   12.7009   10.2392 C.ar      1 RES1    0.0000
     45 H20        2.3846   11.8216   10.2413 H         1 RES1    0.0000
     46 C18        1.7712   13.3625    9.0533 C.ar      1 RES1    0.0000
     47 C19        1.2304   14.6314    8.9964 C.ar      1 RES1    0.0000
     48 H21        1.0317   15.0502    8.1671 H         1 RES1    0.0000
     49 C20        0.9919   15.2616   10.1995 C.ar      1 RES1    0.0000
     50 C21        1.2420   14.6576   11.4150 C.ar      1 RES1    0.0000
     51 H22        1.0785   15.1217   12.2274 H         1 RES1    0.0000
     52 O7         0.8780   11.5667    3.5151 O.3       2 RES2    0.0000
     53 O8         0.6398    9.6240    2.3918 O.2       2 RES2    0.0000
     54 O9        -0.6164   11.7290    8.1402 O.2       2 RES2    0.0000
     55 O10       -0.1870   10.0039    9.3893 O.2       2 RES2    0.0000
     56 O11        0.1399    5.6663    7.2418 O.2       2 RES2    0.0000
     57 O12        0.4042    5.5611    5.1000 O.2       2 RES2    0.0000
     58 N3        -0.3086   10.5529    8.2979 N.pl3     2 RES2    0.0000
     59 N4         0.2503    6.1786    6.1387 N.pl3     2 RES2    0.0000
     60 C22       -1.1196   16.4838    2.9234 C.ar      2 RES2    0.0000
     61 H23       -1.3257   16.3873    2.0005 H         2 RES2    0.0000
     62 C23       -1.2245   17.7363    3.5210 C.ar      2 RES2    0.0000
     63 H24       -1.4855   18.4881    3.0016 H         2 RES2    0.0000
     64 C24       -0.9539   17.8920    4.8610 C.ar      2 RES2    0.0000
     65 H25       -1.0395   18.7452    5.2712 H         2 RES2    0.0000
     66 C25       -0.5550   16.7943    5.6079 C.ar      2 RES2    0.0000
     67 H26       -0.3625   16.8938    6.5333 H         2 RES2    0.0000
     68 C26       -0.4378   15.5540    5.0068 C.ar      2 RES2    0.0000
     69 H27       -0.1607   14.8103    5.5275 H         2 RES2    0.0000
     70 C27       -0.7182   15.3725    3.6519 C.ar      2 RES2    0.0000
     71 C28       -0.5755   13.9906    3.0415 C.3       2 RES2    0.0000
     72 H28       -0.7229   13.3373    3.7848 H         2 RES2    0.0000
     73 C29       -1.6360   13.6826    1.9808 C.3       2 RES2    0.0000
     74 H29       -1.5511   14.3177    1.2397 H         2 RES2    0.0000
     75 H30       -2.5281   13.7624    2.3785 H         2 RES2    0.0000
     76 H31       -1.5072   12.7700    1.6449 H         2 RES2    0.0000
     77 C30        0.8688   13.7584    2.5360 C.3       2 RES2    0.0000
     78 H32        1.4923   14.0610    3.2563 H         2 RES2    0.0000
     79 C31        1.2030   14.5578    1.2700 C.3       2 RES2    0.0000
     80 H33        0.5841   14.2917    0.5446 H         2 RES2    0.0000
     81 H34        1.0651   15.5212    1.4479 H         2 RES2    0.0000
     82 C32        2.6408   14.3341    0.8100 C.3       2 RES2    0.0000
     83 H35        2.7947   14.8221   -0.0384 H         2 RES2    0.0000
     84 H36        3.2635   14.6961    1.4896 H         2 RES2    0.0000
     85 C33        2.9252   12.8528    0.6006 C.3       2 RES2    0.0000
     86 H37        3.8795   12.7308    0.3684 H         2 RES2    0.0000
     87 H38        2.3810   12.5166   -0.1554 H         2 RES2    0.0000
     88 C34        2.5999   12.0462    1.8601 C.3       2 RES2    0.0000
     89 H39        2.7404   11.0821    1.6850 H         2 RES2    0.0000
     90 H40        3.2045   12.3176    2.5964 H         2 RES2    0.0000
     91 C35        1.1605   12.2872    2.2659 C.3       2 RES2    0.0000
     92 H41        0.5519   11.9548    1.5456 H         2 RES2    0.0000
     93 C36        0.6445   10.2566    3.4163 C.2       2 RES2    0.0000
     94 C37        0.3824    9.6415    4.7545 C.ar      2 RES2    0.0000
     95 C38        0.1469   10.4065    5.8933 C.ar      2 RES2    0.0000
     96 H42        0.1253   11.3550    5.8494 H         2 RES2    0.0000
     97 C39       -0.0544    9.7455    7.0883 C.ar      2 RES2    0.0000
     98 C40       -0.0112    8.3745    7.2177 C.ar      2 RES2    0.0000
     99 H43       -0.1160    7.9469    8.0598 H         2 RES2    0.0000
    100 C41        0.1944    7.6540    6.0539 C.ar      2 RES2    0.0000
    101 C42        0.3717    8.2541    4.8280 C.ar      2 RES2    0.0000
    102 H44        0.4846    7.7278    4.0443 H         2 RES2    0.0000
@<TRIPOS>BOND
     1    1   40 1
     2    2   42 2
     3    3    7 2
     4    4    7 2
     5    5    8 2
     6    6    8 2
     7    7   46 1
     8    8   49 1
     9    9   10 1
    10   11    9 ar
    11   12   11 1
    12   13   11 ar
    13   14   13 1
    14   15   13 ar
    15   16   15 1
    16   17   15 ar
    17   18   17 1
    18   19    9 ar
    19   20   19 1
    20   21   20 1
    21   22   20 1
    22   23   22 1
    23   24   22 1
    24   25   22 1
    25   26   20 1
    26   27   26 1
    27   28   26 1
    28   29   28 1
    29   30   28 1
    30   31   28 1
    31   32   31 1
    32   33   31 1
    33   34   31 1
    34   35   34 1
    35   36   34 1
    36   37   34 1
    37   38   37 1
    38   39   37 1
    39   40   26 1
    40   41   40 1
    41   42    1 1
    42   43   42 1
    43   44   43 ar
    44   45   44 1
    45   46   44 ar
    46   47   46 ar
    47   48   47 1
    48   49   47 ar
    49   50   43 ar
    50   51   50 1
    51   52   91 1
    52   53   93 2
    53   54   58 2
    54   55   58 2
    55   56   59 2
    56   57   59 2
    57   58   97 1
    58   59  100 1
    59   60   61 1
    60   62   60 ar
    61   63   62 1
    62   64   62 ar
    63   65   64 1
    64   66   64 ar
    65   67   66 1
    66   68   66 ar
    67   69   68 1
    68   70   60 ar
    69   71   70 1
    70   72   71 1
    71   73   71 1
    72   74   73 1
    73   75   73 1
    74   76   73 1
    75   77   71 1
    76   78   77 1
    77   79   77 1
    78   80   79 1
    79   81   79 1
    80   82   79 1
    81   83   82 1
    82   84   82 1
    83   85   82 1
    84   86   85 1
    85   87   85 1
    86   88   85 1
    87   89   88 1
    88   90   88 1
    89   91   77 1
    90   92   91 1
    91   93   52 1
    92   94   93 1
    93   95   94 ar
    94   96   95 1
    95   97   95 ar
    96   98   97 ar
    97   99   98 1
    98  100   98 ar
    99  101   94 ar
   100  102  101 1
   101   17   19 ar
   102   37   40 1
   103   49   50 ar
   104   68   70 ar
   105   88   91 1
   106  100  101 ar
@<TRIPOS>SUBSTRUCTURE
     1 RES1 1
     2 RES2 52

@<TRIPOS>CRYSIN
   7.7666   15.5767   16.2634  91.3940  99.8810  90.2140   2 1

