# MOL2 file generated by ConQuest
# Please check atom types

@<TRIPOS>MOLECULE
IPAKOB
    68    74     2
SMALL
USER_CHARGES
****
Generated from CSD

@<TRIPOS>ATOM
      1 O1         2.1196   13.4485    6.7640 O.3       1 RES1    0.0000
      2 O2        -0.3548   16.0088    8.7896 O.2       1 RES1   -1.0000
      3 N1        -0.4648   15.8600    7.5146 N.pl3     1 RES1    1.0000
      4 N2         1.4232   13.9128    8.8406 N.2       1 RES1    0.0000
      5 C1         1.2628   14.1577    7.5761 C.2       1 RES1    0.0000
      6 C2         0.3280   14.9952    6.8373 C.ar      1 RES1    0.0000
      7 C3        -1.4170   16.6345    6.8331 C.ar      1 RES1    0.0000
      8 C4         2.8700   12.6920    7.6329 C.2       1 RES1    0.0000
      9 C5        -1.5291   16.5429    5.4291 C.ar      1 RES1    0.0000
     10 C6         0.2396   14.9153    5.4309 C.ar      1 RES1    0.0000
     11 C7         5.8932   10.2089    5.9676 C.ar      1 RES1    0.0000
     12 C8         5.0397   10.9152    5.1323 C.ar      1 RES1    0.0000
     13 C9         4.0485   11.7323    5.6596 C.ar      1 RES1    0.0000
     14 C10        4.7580   11.1070    7.8882 C.ar      1 RES1    0.0000
     15 C11       -2.2417   17.4981    7.5661 C.ar      1 RES1    0.0000
     16 C12       -2.5152   17.3365    4.7964 C.ar      1 RES1    0.0000
     17 C13        2.4453   12.9726    8.8803 C.2       1 RES1    0.0000
     18 C14        5.7390   10.3083    7.3389 C.ar      1 RES1    0.0000
     19 C15       -0.6581   15.6669    4.7313 C.ar      1 RES1    0.0000
     20 C16       -3.3112   18.1714    5.5213 C.ar      1 RES1    0.0000
     21 C17       -3.1703   18.2662    6.9029 C.ar      1 RES1    0.0000
     22 C18        3.9014   11.8290    7.0494 C.ar      1 RES1    0.0000
     23 H1         0.8175   14.3258    4.9605 H         1 RES1    0.0000
     24 H2         6.5771    9.6611    5.6013 H         1 RES1    0.0000
     25 H3         5.1344   10.8385    4.1890 H         1 RES1    0.0000
     26 H4         3.4747   12.2214    5.0811 H         1 RES1    0.0000
     27 H5         4.6644   11.1660    8.8328 H         1 RES1    0.0000
     28 H6        -2.1595   17.5518    8.5112 H         1 RES1    0.0000
     29 H7        -2.6242   17.2864    3.8548 H         1 RES1    0.0000
     30 H8         6.3190    9.8195    7.9106 H         1 RES1    0.0000
     31 H9        -0.7003   15.6038    3.7844 H         1 RES1    0.0000
     32 H10       -3.9693   18.6950    5.0786 H         1 RES1    0.0000
     33 H11       -3.7215   18.8663    7.3930 H         1 RES1    0.0000
     34 H12        2.7764   12.6260    9.6520 H         1 RES1    0.0000
     35 O3         4.4484   12.4638   12.6555 O.3       2 RES2    0.0000
     36 O4         3.3029   10.7702   11.0248 O.2       2 RES2   -1.0000
     37 N3         2.5368   10.3806   12.0006 N.pl3     2 RES2    1.0000
     38 N4         3.7914   12.3486   14.7814 N.2       2 RES2    0.0000
     39 C19        3.6402   11.8624   13.5737 C.2       2 RES2    0.0000
     40 C20        6.1514   14.2147   12.6454 C.ar      2 RES2    0.0000
     41 C21        6.4156   13.9672   11.2965 C.ar      2 RES2    0.0000
     42 C22        5.1570   13.3952   13.3598 C.2       2 RES2    0.0000
     43 C23        4.7755   13.3284   14.6263 C.2       2 RES2    0.0000
     44 C24        1.8530   10.3524   14.2974 C.ar      2 RES2    0.0000
     45 C25        2.6767   10.8411   13.2395 C.ar      2 RES2    0.0000
     46 C26        0.8885    9.4190   14.0403 C.ar      2 RES2    0.0000
     47 C27        0.6951    8.9540   12.7211 C.ar      2 RES2    0.0000
     48 C28        1.5219    9.4269   11.6983 C.ar      2 RES2    0.0000
     49 C29        6.8444   15.1859   13.3244 C.ar      2 RES2    0.0000
     50 C30       -0.3075    8.0074   12.3803 C.ar      2 RES2    0.0000
     51 C31        7.4388   14.7057   10.6549 C.ar      2 RES2    0.0000
     52 C32       -0.4576    7.6071   11.0766 C.ar      2 RES2    0.0000
     53 C33        7.8409   15.8849   12.6906 C.ar      2 RES2    0.0000
     54 C34        1.3790    9.0026   10.3881 C.ar      2 RES2    0.0000
     55 C35        0.3877    8.1151   10.0911 C.ar      2 RES2    0.0000
     56 C36        8.1463   15.6417   11.3711 C.ar      2 RES2    0.0000
     57 H13        5.9179   13.3153   10.8180 H         2 RES2    0.0000
     58 H14        1.9754   10.6758   15.1829 H         2 RES2    0.0000
     59 H15        0.3496    9.0831   14.7482 H         2 RES2    0.0000
     60 H16        6.6347   15.3747   14.2306 H         2 RES2    0.0000
     61 H17       -0.8730    7.6510   13.0545 H         2 RES2    0.0000
     62 H18        7.6352   14.5570    9.7375 H         2 RES2    0.0000
     63 H19       -1.1363    6.9831   10.8457 H         2 RES2    0.0000
     64 H20        8.3273   16.5457   13.1701 H         2 RES2    0.0000
     65 H21        1.9610    9.3229    9.7098 H         2 RES2    0.0000
     66 H22        0.2694    7.8351    9.1897 H         2 RES2    0.0000
     67 H23        8.8496   16.1240   10.9537 H         2 RES2    0.0000
     68 H24        5.1004   13.8655   15.3438 H         2 RES2    0.0000
@<TRIPOS>BOND
     1    1    5 1
     2    2    3 1
     3    3    6 ar
     4    4    5 2
     5    5    6 1
     6    6   10 ar
     7    7    3 ar
     8    8    1 1
     9    9    7 ar
    10   10   19 ar
    11   11   12 ar
    12   12   13 ar
    13   13   22 ar
    14   14   18 ar
    15   15    7 ar
    16   16    9 ar
    17   17    4 1
    18   18   11 ar
    19   19    9 ar
    20   20   16 ar
    21   21   15 ar
    22   22    8 1
    23   23   10 1
    24   24   11 1
    25   25   12 1
    26   26   13 1
    27   27   14 1
    28   28   15 1
    29   29   16 1
    30   30   18 1
    31   31   19 1
    32   32   20 1
    33   33   21 1
    34   34   17 1
    35   35   39 1
    36   36   37 1
    37   37   45 ar
    38   38   39 2
    39   39   45 1
    40   40   41 ar
    41   41   51 ar
    42   42   35 1
    43   43   38 1
    44   44   45 ar
    45   46   44 ar
    46   47   46 ar
    47   48   37 ar
    48   49   40 ar
    49   50   47 ar
    50   51   56 ar
    51   52   50 ar
    52   53   49 ar
    53   54   48 ar
    54   55   52 ar
    55   56   53 ar
    56   57   41 1
    57   58   44 1
    58   59   46 1
    59   60   49 1
    60   61   50 1
    61   62   51 1
    62   63   52 1
    63   64   53 1
    64   65   54 1
    65   66   55 1
    66   67   56 1
    67   68   43 1
    68    8   17 2
    69   14   22 ar
    70   20   21 ar
    71   40   42 1
    72   42   43 2
    73   47   48 ar
    74   54   55 ar
@<TRIPOS>SUBSTRUCTURE
     1 RES1 1
     2 RES2 35

@<TRIPOS>CRYSIN
  10.2831   21.4073   25.1290  90.0000  90.0000  90.0000  61 1

