# MOL2 file generated by ConQuest
# Please check atom types

@<TRIPOS>MOLECULE
IPAQEX
    65    68     1
SMALL
NO_CHARGES
****
Generated from CSD

@<TRIPOS>ATOM
      1 O1         0.7889    5.9301    7.2450 O.3       1 RES1    0.0000
      2 O2         3.7394    5.3994    8.3871 O.2       1 RES1    0.0000
      3 O3         2.2671    6.0893    9.7981 O.2       1 RES1    0.0000
      4 O4         3.1334    3.5132   11.0143 O.3       1 RES1    0.0000
      5 O5         2.1056    0.9999   10.9847 O.3       1 RES1    0.0000
      6 N1         2.7245    5.2556    9.0408 N.pl3     1 RES1    0.0000
      7 C1         0.0164    2.5944    1.4640 C.3       1 RES1    0.0000
      8 H1         0.4997    3.1314    0.8165 H         1 RES1    0.0000
      9 H2        -0.9316    2.6884    1.2815 H         1 RES1    0.0000
     10 C2         0.4147    1.1353    1.3025 C.3       1 RES1    0.0000
     11 H3         1.3810    1.0689    1.3580 H         1 RES1    0.0000
     12 H4         0.1509    0.8372    0.4181 H         1 RES1    0.0000
     13 C3        -0.2048    0.1914    2.3459 C.3       1 RES1    0.0000
     14 C4         0.0662    0.7872    3.7557 C.3       1 RES1    0.0000
     15 H5         1.0438    0.7996    3.8235 H         1 RES1    0.0000
     16 C5        -0.3480    2.2735    3.9864 C.3       1 RES1    0.0000
     17 C6         0.3100    3.1097    2.8590 C.3       1 RES1    0.0000
     18 H6        -0.0027    4.0254    2.9269 H         1 RES1    0.0000
     19 H7         1.2706    3.1156    2.9947 H         1 RES1    0.0000
     20 C7        -0.3758   -0.0912    4.9213 C.3       1 RES1    0.0000
     21 H8        -1.3420   -0.0576    5.0027 H         1 RES1    0.0000
     22 H9        -0.1215   -1.0110    4.7474 H         1 RES1    0.0000
     23 C8         0.2594    0.3717    6.2274 C.3       1 RES1    0.0000
     24 H10        1.2223    0.2773    6.1584 H         1 RES1    0.0000
     25 H11       -0.0430   -0.2071    6.9453 H         1 RES1    0.0000
     26 C9        -0.0724    1.8282    6.5913 C.3       1 RES1    0.0000
     27 C10        0.2618    2.7137    5.3517 C.3       1 RES1    0.0000
     28 H12        1.2305    2.6238    5.2346 H         1 RES1    0.0000
     29 C11        0.7905    2.3088    7.7680 C.ar      1 RES1    0.0000
     30 C12        1.2828    3.6143    7.8198 C.ar      1 RES1    0.0000
     31 C13        1.0834    4.6390    6.7245 C.3       1 RES1    0.0000
     32 H13        1.9349    4.7124    6.2447 H         1 RES1    0.0000
     33 C14        0.0471    4.1873    5.7168 C.3       1 RES1    0.0000
     34 H14        0.1119    4.7333    4.9176 H         1 RES1    0.0000
     35 H15       -0.8413    4.3030    6.0905 H         1 RES1    0.0000
     36 C15        1.0489    1.4249    8.8299 C.ar      1 RES1    0.0000
     37 H16        0.6906    0.5679    8.7942 H         1 RES1    0.0000
     38 C16        1.8140    1.7803    9.9227 C.ar      1 RES1    0.0000
     39 C17        2.3502    3.0789    9.9720 C.ar      1 RES1    0.0000
     40 C18        2.0550    3.9383    8.9459 C.ar      1 RES1    0.0000
     41 C19       -1.6990   -0.0692    2.0524 C.3       1 RES1    0.0000
     42 H17       -1.7809   -0.5977    1.2556 H         1 RES1    0.0000
     43 H18       -2.1517    0.7678    1.9303 H         1 RES1    0.0000
     44 H19       -2.0923   -0.5414    2.7900 H         1 RES1    0.0000
     45 C20        0.5097   -1.1728    2.2238 C.3       1 RES1    0.0000
     46 H20        0.0458   -1.8265    2.7517 H         1 RES1    0.0000
     47 H21        1.4130   -1.0903    2.5383 H         1 RES1    0.0000
     48 H22        0.5154   -1.4496    1.3037 H         1 RES1    0.0000
     49 C21        4.4557    2.9587   11.0377 C.3       1 RES1    0.0000
     50 H23        4.4011    2.0013   11.0784 H         1 RES1    0.0000
     51 H24        4.9260    3.2863   11.8074 H         1 RES1    0.0000
     52 H25        4.9261    3.2186   10.2422 H         1 RES1    0.0000
     53 C22        1.6701   -0.3495   10.9711 C.3       1 RES1    0.0000
     54 H26        0.7108   -0.3758   10.9637 H         1 RES1    0.0000
     55 H27        1.9969   -0.7996   11.7531 H         1 RES1    0.0000
     56 H28        2.0078   -0.7860   10.1854 H         1 RES1    0.0000
     57 C23       -1.8686    2.5366    3.9494 C.3       1 RES1    0.0000
     58 H29       -2.0704    3.3189    4.4674 H         1 RES1    0.0000
     59 H30       -2.3325    1.7805    4.3169 H         1 RES1    0.0000
     60 H31       -2.1474    2.6730    3.0416 H         1 RES1    0.0000
     61 C24       -1.5392    1.8788    7.0736 C.3       1 RES1    0.0000
     62 H32       -1.6237    1.3847    7.8913 H         1 RES1    0.0000
     63 H33       -2.1087    1.4907    6.4051 H         1 RES1    0.0000
     64 H34       -1.7956    2.7914    7.2216 H         1 RES1    0.0000
     65 H35        0.0612    5.8868    7.5237 H         1 RES1    0.0000
@<TRIPOS>BOND
     1    1   31 1
     2    2    6 2
     3    3    6 2
     4    4   39 1
     5    5   38 1
     6    6   40 1
     7    7    8 1
     8    9    7 1
     9   10    7 1
    10   11   10 1
    11   12   10 1
    12   13   10 1
    13   14   13 1
    14   15   14 1
    15   16   14 1
    16   17    7 1
    17   18   17 1
    18   19   17 1
    19   20   14 1
    20   21   20 1
    21   22   20 1
    22   23   20 1
    23   24   23 1
    24   25   23 1
    25   26   23 1
    26   27   16 1
    27   28   27 1
    28   29   26 1
    29   30   29 ar
    30   31   30 1
    31   32   31 1
    32   33   27 1
    33   34   33 1
    34   35   33 1
    35   36   29 ar
    36   37   36 1
    37   38   36 ar
    38   39   38 ar
    39   40   30 ar
    40   41   13 1
    41   42   41 1
    42   43   41 1
    43   44   41 1
    44   45   13 1
    45   46   45 1
    46   47   45 1
    47   48   45 1
    48   49    4 1
    49   50   49 1
    50   51   49 1
    51   52   49 1
    52   53    5 1
    53   54   53 1
    54   55   53 1
    55   56   53 1
    56   57   16 1
    57   58   57 1
    58   59   57 1
    59   60   57 1
    60   61   26 1
    61   62   61 1
    62   63   61 1
    63   64   61 1
    64   65    1 1
    65   16   17 1
    66   26   27 1
    67   31   33 1
    68   39   40 ar
@<TRIPOS>SUBSTRUCTURE
     1 RES1 1

@<TRIPOS>CRYSIN
   5.9846    7.9130   12.6910  99.8140  95.9530 107.5090   1 1

