# MOL2 file generated by ConQuest
# Please check atom types

@<TRIPOS>MOLECULE
IPATOJ05
    74    52     2
SMALL
NO_CHARGES
****
Generated from CSD

@<TRIPOS>ATOM
      1 O1         1.8569   12.4633    9.6914 O.3       1 RES1    0.0000
      2 O2         2.3631    7.7907   10.3231 O.3       1 RES1    0.0000
      3 N1         8.8893   -4.1963    4.8294 N.pl3     1 RES1    0.0000
      4 C1         3.6163    8.8428    8.6510 C.ar      1 RES1    0.0000
      5 C2         2.4651   11.3086    9.2767 C.ar      1 RES1    0.0000
      6 C3         2.6623    8.9546    9.6713 C.ar      1 RES1    0.0000
      7 C4         3.9475    9.9984    7.9787 C.ar      1 RES1    0.0000
      8 H1         4.5783    9.9471    7.2965 H         1 RES1    0.0000
      9 O3         9.6246   -4.6893    5.6631 O.2       1 RES1    0.0000
     10 C5         4.2448    7.5456    8.3581 C.2       1 RES1    0.0000
     11 H2         4.3711    6.9687    9.0757 H         1 RES1    0.0000
     12 O4         8.5078   -4.7862    3.8457 O.2       1 RES1    0.0000
     13 C6         2.0887   10.1689    9.9745 C.ar      1 RES1    0.0000
     14 H3         1.4496   10.2248   10.6482 H         1 RES1    0.0000
     15 C7         2.3044   13.6924    9.1266 C.3       1 RES1    0.0000
     16 H4         3.2714   13.8033    9.3007 H         1 RES1    0.0000
     17 H5         1.8088   14.4445    9.5329 H         1 RES1    0.0000
     18 H6         2.1462   13.6840    8.1528 H         1 RES1    0.0000
     19 C8         3.3920   11.2313    8.2646 C.ar      1 RES1    0.0000
     20 H7         3.6387   11.9889    7.7862 H         1 RES1    0.0000
     21 C9         1.3595    7.8242   11.3262 C.3       1 RES1    0.0000
     22 H8         1.5940    8.4989   11.9999 H         1 RES1    0.0000
     23 H9         1.2997    6.9427   11.7480 H         1 RES1    0.0000
     24 H10        0.4939    8.0516   10.9171 H         1 RES1    0.0000
     25 C10        4.6512    7.1179    7.1663 C.2       1 RES1    0.0000
     26 H11        4.5188    7.6649    6.4260 H         1 RES1    0.0000
     27 C11        8.7031   -2.1555    6.1585 C.ar      1 RES1    0.0000
     28 H12        9.2304   -2.5338    6.8252 H         1 RES1    0.0000
     29 C12        6.1160    5.1981    7.9150 C.ar      1 RES1    0.0000
     30 H13        6.2633    5.6324    8.7247 H         1 RES1    0.0000
     31 C13        6.7121    3.9764    7.6971 C.ar      1 RES1    0.0000
     32 H14        7.2580    3.6195    8.3595 H         1 RES1    0.0000
     33 C14        5.1686    5.1161    5.7636 C.ar      1 RES1    0.0000
     34 H15        4.6764    5.5029    5.0757 H         1 RES1    0.0000
     35 C15        7.5853   -2.3363    4.0764 C.ar      1 RES1    0.0000
     36 H16        7.3445   -2.8442    3.3361 H         1 RES1    0.0000
     37 C16        8.2772   -0.8527    6.2661 C.ar      1 RES1    0.0000
     38 H17        8.5210   -0.3523    7.0106 H         1 RES1    0.0000
     39 C17        7.1835   -1.0512    4.1797 C.ar      1 RES1    0.0000
     40 H18        6.6860   -0.6784    3.4876 H         1 RES1    0.0000
     41 C18        5.3034    5.7992    6.9709 C.ar      1 RES1    0.0000
     42 C19        8.3443   -2.8852    5.0644 C.ar      1 RES1    0.0000
     43 C20        6.5287    3.2626    6.5279 C.ar      1 RES1    0.0000
     44 C21        5.7455    3.8767    5.5683 C.ar      1 RES1    0.0000
     45 H19        5.6024    3.4387    4.7601 H         1 RES1    0.0000
     46 C22        7.1172    1.9272    6.3694 C.2       1 RES1    0.0000
     47 H20        7.6889    1.6504    7.0488 H         1 RES1    0.0000
     48 C23        6.9370    1.0801    5.3942 C.2       1 RES1    0.0000
     49 H21        6.3984    1.3671    4.6921 H         1 RES1    0.0000
     50 C24        7.4893   -0.2712    5.2809 C.ar      1 RES1    0.0000
     51 C25        8.6155   -2.6829    4.9978 Du        2 SUP2    0.0000
     52 C26        8.9839   -2.1713    6.2363 Du        2 SUP2    0.0000
     53 C27        6.1554    3.3781    6.0693 Du        2 SUP2    0.0000
     54 C28        6.3895    3.8953    7.3361 Du        2 SUP2    0.0000
     55 C29        5.9372    5.1627    7.6659 Du        2 SUP2    0.0000
     56 C30        5.2384    5.9185    6.7261 Du        2 SUP2    0.0000
     57 C31        4.9989    5.4004    5.4593 Du        2 SUP2    0.0000
     58 C32        5.4604    4.1302    5.1295 Du        2 SUP2    0.0000
     59 C33        8.4902   -0.9412    6.6553 Du        2 SUP2    0.0000
     60 C34        7.6277   -0.2237    5.8386 Du        2 SUP2    0.0000
     61 C35        7.2517   -0.7353    4.6001 Du        2 SUP2    0.0000
     62 C36        7.7456   -1.9644    4.1797 Du        2 SUP2    0.0000
     63 C37        7.2926    1.1723    6.2307 Du        2 SUP2    0.0000
     64 C38        6.5981    2.0809    5.5952 Du        2 SUP2    0.0000
     65 H22        9.5621   -2.6513    6.7827 Du        2 SUP2    0.0000
     66 H23        6.8578    3.3921    7.9646 Du        2 SUP2    0.0000
     67 H24        6.0921    5.5122    8.5138 Du        2 SUP2    0.0000
     68 H25        4.5360    5.9036    4.8308 Du        2 SUP2    0.0000
     69 H26        5.3017    3.7844    4.2816 Du        2 SUP2    0.0000
     70 H27        8.7381   -0.5992    7.4847 Du        2 SUP2    0.0000
     71 H28        6.6760   -0.2544    4.0523 Du        2 SUP2    0.0000
     72 H29        7.4997   -2.3074    3.3517 Du        2 SUP2    0.0000
     73 H30        7.6308    1.4398    7.0545 Du        2 SUP2    0.0000
     74 H31        6.3567    1.8666    4.7233 Du        2 SUP2    0.0000
@<TRIPOS>BOND
     1    1    5 1
     2    2    6 1
     3    3    9 2
     4    4    6 ar
     5    5   13 ar
     6    6   13 ar
     7    7    4 ar
     8    8    7 1
     9   10    4 1
    10   11   10 1
    11   12    3 2
    12   13   14 1
    13   15    1 1
    14   16   15 1
    15   17   15 1
    16   18   15 1
    17   19    5 ar
    18   20   19 1
    19   21    2 1
    20   22   21 1
    21   23   21 1
    22   24   21 1
    23   25   10 2
    24   26   25 1
    25   27   28 1
    26   29   30 1
    27   31   29 ar
    28   32   31 1
    29   33   34 1
    30   35   36 1
    31   37   27 ar
    32   38   37 1
    33   39   35 ar
    34   40   39 1
    35   41   25 1
    36   42    3 1
    37   43   31 ar
    38   44   33 ar
    39   45   44 1
    40   46   43 1
    41   47   46 1
    42   48   46 2
    43   49   48 1
    44   50   37 ar
    45    7   19 ar
    46   27   42 ar
    47   29   41 ar
    48   33   41 ar
    49   35   42 ar
    50   39   50 ar
    51   43   44 ar
    52   48   50 1
@<TRIPOS>SUBSTRUCTURE
     1 RES1 1
     2 SUP2 51

@<TRIPOS>CRYSIN
   7.6895    9.3190   14.4500  90.0000 101.6130  90.0000   7 1

