# MOL2 file generated by ConQuest
# Please check atom types

@<TRIPOS>MOLECULE
IPATOJ01
    74    52     2
SMALL
NO_CHARGES
****
Generated from CSD

@<TRIPOS>ATOM
      1 O1         1.8573   12.4573    9.6220 O.3       1 RES1    0.0000
      2 O2         2.3183    7.7640   10.1883 O.3       1 RES1    0.0000
      3 N1         8.8903   -4.2401    4.8164 N.pl3     1 RES1    0.0000
      4 C1         3.5659    8.8208    8.5102 C.ar      1 RES1    0.0000
      5 C2         2.4385   11.2981    9.1744 C.ar      1 RES1    0.0000
      6 C3         2.6081    8.9318    9.5438 C.ar      1 RES1    0.0000
      7 C4         3.9046    9.9869    7.8367 C.ar      1 RES1    0.0000
      8 H1         4.5255    9.9369    7.1454 H         1 RES1    0.0000
      9 O3         9.6530   -4.6813    5.6725 O.2       1 RES1    0.0000
     10 C5         4.2061    7.5290    8.2305 C.2       1 RES1    0.0000
     11 H2         4.3407    6.9612    8.9551 H         1 RES1    0.0000
     12 O4         8.5315   -4.8880    3.8468 O.2       1 RES1    0.0000
     13 C6         2.0471   10.1496    9.8660 C.ar      1 RES1    0.0000
     14 H3         1.4104   10.2060   10.5411 H         1 RES1    0.0000
     15 C7         2.3686   13.6885    9.0939 C.3       1 RES1    0.0000
     16 H4         3.3309   13.7477    9.2754 H         1 RES1    0.0000
     17 H5         1.9103   14.4430    9.5202 H         1 RES1    0.0000
     18 H6         2.2134   13.7171    8.1244 H         1 RES1    0.0000
     19 C8         3.3577   11.2232    8.1501 C.ar      1 RES1    0.0000
     20 H7         3.6074   11.9861    7.6782 H         1 RES1    0.0000
     21 C9         1.3333    7.8129   11.2194 C.3       1 RES1    0.0000
     22 H8         1.5857    8.4796   11.8740 H         1 RES1    0.0000
     23 H9         1.2718    6.9455   11.6516 H         1 RES1    0.0000
     24 H10        0.4757    8.0450   10.8348 H         1 RES1    0.0000
     25 C10        4.6136    7.0907    7.0412 C.2       1 RES1    0.0000
     26 H11        4.4624    7.6335    6.3006 H         1 RES1    0.0000
     27 C11        8.7507   -2.1324    6.0764 C.ar      1 RES1    0.0000
     28 H12        9.3176   -2.4912    6.7202 H         1 RES1    0.0000
     29 C12        6.1162    5.2320    7.7947 C.ar      1 RES1    0.0000
     30 H13        6.2755    5.6897    8.5887 H         1 RES1    0.0000
     31 C13        6.7015    4.0012    7.5916 C.ar      1 RES1    0.0000
     32 H14        7.2536    3.6489    8.2516 H         1 RES1    0.0000
     33 C14        5.1063    5.0952    5.6314 C.ar      1 RES1    0.0000
     34 H15        4.5893    5.4678    4.9538 H         1 RES1    0.0000
     35 C15        7.5574   -2.3654    3.9935 C.ar      1 RES1    0.0000
     36 H16        7.3205   -2.8758    3.2531 H         1 RES1    0.0000
     37 C16        8.2666   -0.8581    6.2119 C.ar      1 RES1    0.0000
     38 H17        8.5005   -0.3560    6.9593 H         1 RES1    0.0000
     39 C17        7.0911   -1.0838    4.1352 C.ar      1 RES1    0.0000
     40 H18        6.5387   -0.7296    3.4769 H         1 RES1    0.0000
     41 C18        5.2877    5.8016    6.8272 C.ar      1 RES1    0.0000
     42 C19        8.3826   -2.8814    4.9659 C.ar      1 RES1    0.0000
     43 C20        6.4895    3.2707    6.4259 C.ar      1 RES1    0.0000
     44 C21        5.6837    3.8551    5.4410 C.ar      1 RES1    0.0000
     45 H19        5.5341    3.3992    4.6447 H         1 RES1    0.0000
     46 C22        7.0918    1.9437    6.2889 C.2       1 RES1    0.0000
     47 H20        7.6991    1.6959    6.9482 H         1 RES1    0.0000
     48 C23        6.8693    1.0588    5.3335 C.2       1 RES1    0.0000
     49 H21        6.3004    1.3242    4.6475 H         1 RES1    0.0000
     50 C24        7.4212   -0.2950    5.2373 C.ar      1 RES1    0.0000
     51 C25        8.5988   -2.7649    5.0349 Du        2 SUP2    0.0000
     52 C26        8.7669   -2.3118    6.3356 Du        2 SUP2    0.0000
     53 C27        6.0872    3.3475    6.0419 Du        2 SUP2    0.0000
     54 C28        6.3281    3.9300    7.2866 Du        2 SUP2    0.0000
     55 C29        5.9423    5.2339    7.5244 Du        2 SUP2    0.0000
     56 C30        5.3050    5.9736    6.5314 Du        2 SUP2    0.0000
     57 C31        5.0536    5.3911    5.3006 Du        2 SUP2    0.0000
     58 C32        5.4423    4.0780    5.0489 Du        2 SUP2    0.0000
     59 C33        8.2375   -1.0819    6.7132 Du        2 SUP2    0.0000
     60 C34        7.5399   -0.3144    5.7901 Du        2 SUP2    0.0000
     61 C35        7.3717   -0.7675    4.4894 Du        2 SUP2    0.0000
     62 C36        7.9012   -1.9974    4.1118 Du        2 SUP2    0.0000
     63 C37        7.1683    1.0542    6.1817 Du        2 SUP2    0.0000
     64 C38        6.4828    2.0251    5.6083 Du        2 SUP2    0.0000
     65 H22        9.2316   -2.8278    6.9552 Du        2 SUP2    0.0000
     66 H23        6.7589    3.4362    7.9481 Du        2 SUP2    0.0000
     67 H24        6.1059    5.6241    8.3607 Du        2 SUP2    0.0000
     68 H25        4.6247    5.8830    4.6335 Du        2 SUP2    0.0000
     69 H26        5.2782    3.6951    4.2223 Du        2 SUP2    0.0000
     70 H27        8.3481   -0.7786    7.5873 Du        2 SUP2    0.0000
     71 H28        6.9043   -0.2534    3.8755 Du        2 SUP2    0.0000
     72 H29        7.7874   -2.3025    3.2419 Du        2 SUP2    0.0000
     73 H30        7.4814    1.2835    7.0279 Du        2 SUP2    0.0000
     74 H31        6.2044    1.8152    4.7496 Du        2 SUP2    0.0000
@<TRIPOS>BOND
     1    1    5 1
     2    2    6 1
     3    3    9 2
     4    4    6 ar
     5    5   13 ar
     6    6   13 ar
     7    7    4 ar
     8    8    7 1
     9   10    4 1
    10   11   10 1
    11   12    3 2
    12   13   14 1
    13   15    1 1
    14   16   15 1
    15   17   15 1
    16   18   15 1
    17   19    5 ar
    18   20   19 1
    19   21    2 1
    20   22   21 1
    21   23   21 1
    22   24   21 1
    23   25   10 2
    24   26   25 1
    25   27   28 1
    26   29   30 1
    27   31   29 ar
    28   32   31 1
    29   33   34 1
    30   35   36 1
    31   37   27 ar
    32   38   37 1
    33   39   35 ar
    34   40   39 1
    35   41   25 1
    36   42    3 1
    37   43   31 ar
    38   44   33 ar
    39   45   44 1
    40   46   43 1
    41   47   46 1
    42   48   46 2
    43   49   48 1
    44   50   37 ar
    45    7   19 ar
    46   27   42 ar
    47   29   41 ar
    48   33   41 ar
    49   35   42 ar
    50   39   50 ar
    51   43   44 ar
    52   48   50 1
@<TRIPOS>SUBSTRUCTURE
     1 RES1 1
     2 SUP2 51

@<TRIPOS>CRYSIN
   7.6544    9.2471   14.2800  90.0000 101.6500  90.0000   7 1

