# MOL2 file generated by ConQuest
# Please check atom types

@<TRIPOS>MOLECULE
IPATOJ03
    74    52     2
SMALL
NO_CHARGES
****
Generated from CSD

@<TRIPOS>ATOM
      1 O1         1.8491   12.4599    9.6562 O.3       1 RES1    0.0000
      2 O2         2.3309    7.7732   10.2492 O.3       1 RES1    0.0000
      3 N1         8.8842   -4.2220    4.8295 N.pl3     1 RES1    0.0000
      4 C1         3.5810    8.8224    8.5727 C.ar      1 RES1    0.0000
      5 C2         2.4427   11.2988    9.2232 C.ar      1 RES1    0.0000
      6 C3         2.6238    8.9402    9.6019 C.ar      1 RES1    0.0000
      7 C4         3.9178    9.9901    7.9016 C.ar      1 RES1    0.0000
      8 H1         4.5444    9.9419    7.2159 H         1 RES1    0.0000
      9 O3         9.6341   -4.6848    5.6762 O.2       1 RES1    0.0000
     10 C5         4.2135    7.5350    8.2854 C.2       1 RES1    0.0000
     11 H2         4.3406    6.9627    9.0076 H         1 RES1    0.0000
     12 O4         8.5191   -4.8508    3.8528 O.2       1 RES1    0.0000
     13 C6         2.0617   10.1580    9.9113 C.ar      1 RES1    0.0000
     14 H3         1.4230   10.2155   10.5855 H         1 RES1    0.0000
     15 C7         2.3393   13.6853    9.1116 C.3       1 RES1    0.0000
     16 H4         3.2829   13.7585    9.2860 H         1 RES1    0.0000
     17 H5         1.8775   14.4254    9.5223 H         1 RES1    0.0000
     18 H6         2.1887   13.6992    8.1610 H         1 RES1    0.0000
     19 C8         3.3682   11.2200    8.2027 C.ar      1 RES1    0.0000
     20 H7         3.6171   11.9805    7.7278 H         1 RES1    0.0000
     21 C9         1.3466    7.8151   11.2760 C.3       1 RES1    0.0000
     22 H8         1.5994    8.5052   11.9496 H         1 RES1    0.0000
     23 H9         1.2873    6.9284   11.7162 H         1 RES1    0.0000
     24 H10        0.4633    8.0507   10.8794 H         1 RES1    0.0000
     25 C10        4.6244    7.1000    7.0990 C.2       1 RES1    0.0000
     26 H11        4.4825    7.6463    6.3594 H         1 RES1    0.0000
     27 C11        8.7697   -2.1240    6.0951 C.ar      1 RES1    0.0000
     28 H12        9.3298   -2.4876    6.7434 H         1 RES1    0.0000
     29 C12        6.1120    5.2190    7.8473 C.ar      1 RES1    0.0000
     30 H13        6.2673    5.6717    8.6447 H         1 RES1    0.0000
     31 C13        6.6993    3.9864    7.6462 C.ar      1 RES1    0.0000
     32 H14        7.2457    3.6284    8.3086 H         1 RES1    0.0000
     33 C14        5.1300    5.1040    5.6872 C.ar      1 RES1    0.0000
     34 H15        4.6268    5.4862    5.0051 H         1 RES1    0.0000
     35 C15        7.5979   -2.3429    4.0081 C.ar      1 RES1    0.0000
     36 H16        7.3669   -2.8521    3.2655 H         1 RES1    0.0000
     37 C16        8.2791   -0.8477    6.2329 C.ar      1 RES1    0.0000
     38 H17        8.5068   -0.3487    6.9839 H         1 RES1    0.0000
     39 C17        7.1273   -1.0713    4.1529 C.ar      1 RES1    0.0000
     40 H18        6.5793   -0.7170    3.4905 H         1 RES1    0.0000
     41 C18        5.2930    5.8006    6.8826 C.ar      1 RES1    0.0000
     42 C19        8.4191   -2.8567    4.9812 C.ar      1 RES1    0.0000
     43 C20        6.4903    3.2667    6.4734 C.ar      1 RES1    0.0000
     44 C21        5.6995    3.8612    5.4903 C.ar      1 RES1    0.0000
     45 H19        5.5528    3.4132    4.6887 H         1 RES1    0.0000
     46 C22        7.1002    1.9422    6.3257 C.2       1 RES1    0.0000
     47 H20        7.7026    1.6899    6.9881 H         1 RES1    0.0000
     48 C23        6.8923    1.0676    5.3638 C.2       1 RES1    0.0000
     49 H21        6.3343    1.3412    4.6718 H         1 RES1    0.0000
     50 C24        7.4395   -0.2857    5.2597 C.ar      1 RES1    0.0000
     51 C25        8.2734   -2.8289    5.1191 Du        2 SUP2    0.0000
     52 C26        8.6986   -2.3002    6.3285 Du        2 SUP2    0.0000
     53 C27        6.1267    3.3715    6.0135 Du        2 SUP2    0.0000
     54 C28        6.3874    3.8862    7.2778 Du        2 SUP2    0.0000
     55 C29        5.9339    5.1569    7.6181 Du        2 SUP2    0.0000
     56 C30        5.2199    5.9082    6.6942 Du        2 SUP2    0.0000
     57 C31        4.9590    5.3980    5.4313 Du        2 SUP2    0.0000
     58 C32        5.4124    4.1274    5.0909 Du        2 SUP2    0.0000
     59 C33        8.3593   -0.9924    6.6731 Du        2 SUP2    0.0000
     60 C34        7.5954   -0.2226    5.8053 Du        2 SUP2    0.0000
     61 C35        7.1710   -0.7513    4.5917 Du        2 SUP2    0.0000
     62 C36        7.5106   -2.0590    4.2457 Du        2 SUP2    0.0000
     63 C37        7.2355    1.1408    6.2498 Du        2 SUP2    0.0000
     64 C38        6.5748    2.0618    5.5874 Du        2 SUP2    0.0000
     65 H22        9.2070   -2.8168    6.9079 Du        2 SUP2    0.0000
     66 H23        6.8656    3.3826    7.8952 Du        2 SUP2    0.0000
     67 H24        6.1097    5.5010    8.4647 Du        2 SUP2    0.0000
     68 H25        4.4784    5.8998    4.8139 Du        2 SUP2    0.0000
     69 H26        5.2335    3.7814    4.2443 Du        2 SUP2    0.0000
     70 H27        8.6420   -0.6418    7.4845 Du        2 SUP2    0.0000
     71 H28        6.6637   -0.2347    4.0109 Du        2 SUP2    0.0000
     72 H29        7.2287   -2.4096    3.4343 Du        2 SUP2    0.0000
     73 H30        7.5096    1.3755    7.1062 Du        2 SUP2    0.0000
     74 H31        6.3655    1.8402    4.7098 Du        2 SUP2    0.0000
@<TRIPOS>BOND
     1    1    5 1
     2    2    6 1
     3    3    9 2
     4    4    6 ar
     5    5   13 ar
     6    6   13 ar
     7    7    4 ar
     8    8    7 1
     9   10    4 1
    10   11   10 1
    11   12    3 2
    12   13   14 1
    13   15    1 1
    14   16   15 1
    15   17   15 1
    16   18   15 1
    17   19    5 ar
    18   20   19 1
    19   21    2 1
    20   22   21 1
    21   23   21 1
    22   24   21 1
    23   25   10 2
    24   26   25 1
    25   27   28 1
    26   29   30 1
    27   31   29 ar
    28   32   31 1
    29   33   34 1
    30   35   36 1
    31   37   27 ar
    32   38   37 1
    33   39   35 ar
    34   40   39 1
    35   41   25 1
    36   42    3 1
    37   43   31 ar
    38   44   33 ar
    39   45   44 1
    40   46   43 1
    41   47   46 1
    42   48   46 2
    43   49   48 1
    44   50   37 ar
    45    7   19 ar
    46   27   42 ar
    47   29   41 ar
    48   33   41 ar
    49   35   42 ar
    50   39   50 ar
    51   43   44 ar
    52   48   50 1
@<TRIPOS>SUBSTRUCTURE
     1 RES1 1
     2 SUP2 51

@<TRIPOS>CRYSIN
   7.6652    9.2750   14.3590  90.0000 101.6470  90.0000   7 1

