# MOL2 file generated by ConQuest
# Please check atom types

@<TRIPOS>MOLECULE
IPATOJ
    50    52     1
SMALL
NO_CHARGES
****
Generated from CSD

@<TRIPOS>ATOM
      1 O1         1.8458   12.4593    9.6271 O.3       1 RES1    0.0000
      2 O2         2.3021    7.7586   10.1891 O.3       1 RES1    0.0000
      3 N1         8.8503   -4.2548    4.8181 N.pl3     1 RES1    0.0000
      4 C1         3.5431    8.8171    8.5008 C.ar      1 RES1    0.0000
      5 C2         2.4203   11.2999    9.1758 C.ar      1 RES1    0.0000
      6 C3         2.5908    8.9243    9.5393 C.ar      1 RES1    0.0000
      7 C4         3.8839    9.9834    7.8230 C.ar      1 RES1    0.0000
      8 H1         4.5447    9.9369    7.1555 H         1 RES1    0.0000
      9 O3         9.6121   -4.6871    5.6752 O.2       1 RES1    0.0000
     10 C5         4.1800    7.5241    8.2274 C.2       1 RES1    0.0000
     11 H2         4.3735    6.9817    8.9164 H         1 RES1    0.0000
     12 O4         8.4945   -4.9072    3.8444 O.2       1 RES1    0.0000
     13 C6         2.0248   10.1466    9.8678 C.ar      1 RES1    0.0000
     14 H3         1.3691   10.2231   10.5739 H         1 RES1    0.0000
     15 C7         2.3587   13.6908    9.1016 C.3       1 RES1    0.0000
     16 H4         3.3000   13.7500    9.2882 H         1 RES1    0.0000
     17 H5         1.9056   14.4334    9.5174 H         1 RES1    0.0000
     18 H6         2.2178   13.7186    8.1450 H         1 RES1    0.0000
     19 C8         3.3365   11.2313    8.1425 C.ar      1 RES1    0.0000
     20 H7         3.6097   11.9870    7.7425 H         1 RES1    0.0000
     21 C9         1.3297    7.8082   11.2255 C.3       1 RES1    0.0000
     22 H8         1.5574    8.4870   11.8443 H         1 RES1    0.0000
     23 H9         1.2961    6.9724   11.6710 H         1 RES1    0.0000
     24 H10        0.4828    7.9975   10.8493 H         1 RES1    0.0000
     25 C10        4.5903    7.0875    7.0257 C.2       1 RES1    0.0000
     26 H11        4.4429    7.6189    6.2052 H         1 RES1    0.0000
     27 C11        8.7086   -2.1444    6.0830 C.ar      1 RES1    0.0000
     28 H12        9.2607   -2.4935    6.7642 H         1 RES1    0.0000
     29 C12        6.0888    5.2409    7.7914 C.ar      1 RES1    0.0000
     30 H13        6.2569    5.6703    8.5670 H         1 RES1    0.0000
     31 C13        6.6784    3.9978    7.5888 C.ar      1 RES1    0.0000
     32 H14        7.2715    3.6386    8.2596 H         1 RES1    0.0000
     33 C14        5.0758    5.0931    5.6101 C.ar      1 RES1    0.0000
     34 H15        4.5974    5.4671    4.9334 H         1 RES1    0.0000
     35 C15        7.5199   -2.3826    3.9787 C.ar      1 RES1    0.0000
     36 H16        7.2472   -2.9367    3.1864 H         1 RES1    0.0000
     37 C16        8.2219   -0.8589    6.2144 C.ar      1 RES1    0.0000
     38 H17        8.4127   -0.3602    7.0018 H         1 RES1    0.0000
     39 C17        7.0442   -1.0943    4.1234 C.ar      1 RES1    0.0000
     40 H18        6.5038   -0.6649    3.3961 H         1 RES1    0.0000
     41 C18        5.2633    5.8023    6.8102 C.ar      1 RES1    0.0000
     42 C19        8.3478   -2.8935    4.9629 C.ar      1 RES1    0.0000
     43 C20        6.4539    3.2656    6.4133 C.ar      1 RES1    0.0000
     44 C21        5.6466    3.8427    5.4216 C.ar      1 RES1    0.0000
     45 H19        5.5169    3.3985    4.5700 H         1 RES1    0.0000
     46 C22        7.0623    1.9394    6.2899 C.2       1 RES1    0.0000
     47 H20        7.7296    1.6808    6.9179 H         1 RES1    0.0000
     48 C23        6.8225    1.0482    5.3219 C.2       1 RES1    0.0000
     49 H21        6.2028    1.2467    4.6399 H         1 RES1    0.0000
     50 C24        7.3764   -0.3066    5.2341 C.ar      1 RES1    0.0000
@<TRIPOS>BOND
     1    1    5 1
     2    2    6 1
     3    3    9 2
     4    4    6 ar
     5    5   13 ar
     6    6   13 ar
     7    7    4 ar
     8    8    7 1
     9   10    4 1
    10   11   10 1
    11   12    3 2
    12   13   14 1
    13   15    1 1
    14   16   15 1
    15   17   15 1
    16   18   15 1
    17   19    5 ar
    18   20   19 1
    19   21    2 1
    20   22   21 1
    21   23   21 1
    22   24   21 1
    23   25   10 2
    24   26   25 1
    25   27   28 1
    26   29   30 1
    27   31   29 ar
    28   32   31 1
    29   33   34 1
    30   35   36 1
    31   37   27 ar
    32   38   37 1
    33   39   35 ar
    34   40   39 1
    35   41   25 1
    36   42    3 1
    37   43   31 ar
    38   44   33 ar
    39   45   44 1
    40   46   43 1
    41   47   46 1
    42   48   46 2
    43   49   48 1
    44   50   37 ar
    45    7   19 ar
    46   27   42 ar
    47   29   41 ar
    48   33   41 ar
    49   35   42 ar
    50   39   50 ar
    51   43   44 ar
    52   48   50 1
@<TRIPOS>SUBSTRUCTURE
     1 RES1 1

@<TRIPOS>CRYSIN
   7.6120    9.2350   14.2670  90.0000 101.6000  90.0000   7 1

