# MOL2 file generated by ConQuest
# Please check atom types

@<TRIPOS>MOLECULE
IPATOJ02
    74    52     2
SMALL
NO_CHARGES
****
Generated from CSD

@<TRIPOS>ATOM
      1 O1         1.8563   12.4577    9.6339 O.3       1 RES1    0.0000
      2 O2         2.3211    7.7659   10.2101 O.3       1 RES1    0.0000
      3 N1         8.8889   -4.2311    4.8236 N.pl3     1 RES1    0.0000
      4 C1         3.5707    8.8185    8.5295 C.ar      1 RES1    0.0000
      5 C2         2.4401   11.2982    9.1911 C.ar      1 RES1    0.0000
      6 C3         2.6129    8.9323    9.5637 C.ar      1 RES1    0.0000
      7 C4         3.9081    9.9838    7.8586 C.ar      1 RES1    0.0000
      8 H1         4.5304    9.9339    7.1697 H         1 RES1    0.0000
      9 O3         9.6475   -4.6828    5.6766 O.2       1 RES1    0.0000
     10 C5         4.2074    7.5319    8.2495 C.2       1 RES1    0.0000
     11 H2         4.3400    6.9635    8.9733 H         1 RES1    0.0000
     12 O4         8.5293   -4.8771    3.8522 O.2       1 RES1    0.0000
     13 C6         2.0519   10.1532    9.8814 C.ar      1 RES1    0.0000
     14 H3         1.4148   10.2106   10.5569 H         1 RES1    0.0000
     15 C7         2.3626   13.6827    9.1064 C.3       1 RES1    0.0000
     16 H4         3.3181   13.7410    9.2788 H         1 RES1    0.0000
     17 H5         1.9101   14.4315    9.5325 H         1 RES1    0.0000
     18 H6         2.2036   13.7123    8.1465 H         1 RES1    0.0000
     19 C8         3.3594   11.2205    8.1685 C.ar      1 RES1    0.0000
     20 H7         3.6086   11.9814    7.6952 H         1 RES1    0.0000
     21 C9         1.3402    7.8123   11.2380 C.3       1 RES1    0.0000
     22 H8         1.5977    8.4880   11.9023 H         1 RES1    0.0000
     23 H9         1.2777    6.9330   11.6710 H         1 RES1    0.0000
     24 H10        0.4670    8.0437   10.8484 H         1 RES1    0.0000
     25 C10        4.6169    7.0959    7.0585 C.2       1 RES1    0.0000
     26 H11        4.4722    7.6402    6.3190 H         1 RES1    0.0000
     27 C11        8.7480   -2.1336    6.0864 C.ar      1 RES1    0.0000
     28 H12        9.3132   -2.4955    6.7296 H         1 RES1    0.0000
     29 C12        6.1121    5.2317    7.8157 C.ar      1 RES1    0.0000
     30 H13        6.2676    5.6889    8.6103 H         1 RES1    0.0000
     31 C13        6.7009    3.9978    7.6125 C.ar      1 RES1    0.0000
     32 H14        7.2518    3.6433    8.2726 H         1 RES1    0.0000
     33 C14        5.1140    5.0984    5.6505 C.ar      1 RES1    0.0000
     34 H15        4.6031    5.4742    4.9708 H         1 RES1    0.0000
     35 C15        7.5601   -2.3576    4.0025 C.ar      1 RES1    0.0000
     36 H16        7.3256   -2.8667    3.2597 H         1 RES1    0.0000
     37 C16        8.2690   -0.8525    6.2181 C.ar      1 RES1    0.0000
     38 H17        8.5033   -0.3508    6.9651 H         1 RES1    0.0000
     39 C17        7.0992   -1.0811    4.1426 C.ar      1 RES1    0.0000
     40 H18        6.5464   -0.7266    3.4839 H         1 RES1    0.0000
     41 C18        5.2857    5.8009    6.8459 C.ar      1 RES1    0.0000
     42 C19        8.3784   -2.8759    4.9779 C.ar      1 RES1    0.0000
     43 C20        6.4907    3.2721    6.4437 C.ar      1 RES1    0.0000
     44 C21        5.6876    3.8571    5.4613 C.ar      1 RES1    0.0000
     45 H19        5.5372    3.4017    4.6639 H         1 RES1    0.0000
     46 C22        7.0932    1.9410    6.3042 C.2       1 RES1    0.0000
     47 H20        7.6965    1.6893    6.9665 H         1 RES1    0.0000
     48 C23        6.8755    1.0635    5.3464 C.2       1 RES1    0.0000
     49 H21        6.3078    1.3320    4.6597 H         1 RES1    0.0000
     50 C24        7.4297   -0.2916    5.2441 C.ar      1 RES1    0.0000
     51 C25        8.6152   -2.7491    5.0591 Du        2 SUP2    0.0000
     52 C26        8.8530   -2.2215    6.3204 Du        2 SUP2    0.0000
     53 C27        6.1362    3.3693    6.0121 Du        2 SUP2    0.0000
     54 C28        6.4123    3.8876    7.2734 Du        2 SUP2    0.0000
     55 C29        5.9782    5.1650    7.5957 Du        2 SUP2    0.0000
     56 C30        5.2805    5.9240    6.6708 Du        2 SUP2    0.0000
     57 C31        5.0044    5.4057    5.4095 Du        2 SUP2    0.0000
     58 C32        5.4337    4.1283    5.0731 Du        2 SUP2    0.0000
     59 C33        8.3212   -0.9904    6.6708 Du        2 SUP2    0.0000
     60 C34        7.5439   -0.2777    5.7598 Du        2 SUP2    0.0000
     61 C35        7.3061   -0.8053    4.4986 Du        2 SUP2    0.0000
     62 C36        7.8379   -2.0364    4.1482 Du        2 SUP2    0.0000
     63 C37        7.1939    1.0830    6.1943 Du        2 SUP2    0.0000
     64 C38        6.5657    2.0549    5.5636 Du        2 SUP2    0.0000
     65 H22        9.3720   -2.6954    6.9272 Du        2 SUP2    0.0000
     66 H23        6.8806    3.3795    7.8886 Du        2 SUP2    0.0000
     67 H24        6.1638    5.5168    8.4380 Du        2 SUP2    0.0000
     68 H25        4.5374    5.9111    4.7845 Du        2 SUP2    0.0000
     69 H26        5.2542    3.7747    4.2351 Du        2 SUP2    0.0000
     70 H27        8.4795   -0.6368    7.5186 Du        2 SUP2    0.0000
     71 H28        6.7857   -0.3277    3.8875 Du        2 SUP2    0.0000
     72 H29        7.6781   -2.3863    3.2961 Du        2 SUP2    0.0000
     73 H30        7.4683    1.3005    7.0590 Du        2 SUP2    0.0000
     74 H31        6.3565    1.8651    4.6765 Du        2 SUP2    0.0000
@<TRIPOS>BOND
     1    1    5 1
     2    2    6 1
     3    3    9 2
     4    4    6 ar
     5    5   13 ar
     6    6   13 ar
     7    7    4 ar
     8    8    7 1
     9   10    4 1
    10   11   10 1
    11   12    3 2
    12   13   14 1
    13   15    1 1
    14   16   15 1
    15   17   15 1
    16   18   15 1
    17   19    5 ar
    18   20   19 1
    19   21    2 1
    20   22   21 1
    21   23   21 1
    22   24   21 1
    23   25   10 2
    24   26   25 1
    25   27   28 1
    26   29   30 1
    27   31   29 ar
    28   32   31 1
    29   33   34 1
    30   35   36 1
    31   37   27 ar
    32   38   37 1
    33   39   35 ar
    34   40   39 1
    35   41   25 1
    36   42    3 1
    37   43   31 ar
    38   44   33 ar
    39   45   44 1
    40   46   43 1
    41   47   46 1
    42   48   46 2
    43   49   48 1
    44   50   37 ar
    45    7   19 ar
    46   27   42 ar
    47   29   41 ar
    48   33   41 ar
    49   35   42 ar
    50   39   50 ar
    51   43   44 ar
    52   48   50 1
@<TRIPOS>SUBSTRUCTURE
     1 RES1 1
     2 SUP2 51

@<TRIPOS>CRYSIN
   7.6592    9.2563   14.3090  90.0000 101.6500  90.0000   7 1

