# MOL2 file generated by ConQuest
# Please check atom types

@<TRIPOS>MOLECULE
IPATOJ04
    74    52     2
SMALL
NO_CHARGES
****
Generated from CSD

@<TRIPOS>ATOM
      1 O1         1.8497   12.4584    9.6687 O.3       1 RES1    0.0000
      2 O2         2.3424    7.7806   10.2827 O.3       1 RES1    0.0000
      3 N1         8.8758   -4.2092    4.8282 N.pl3     1 RES1    0.0000
      4 C1         3.5998    8.8312    8.6165 C.ar      1 RES1    0.0000
      5 C2         2.4503   11.2989    9.2514 C.ar      1 RES1    0.0000
      6 C3         2.6359    8.9465    9.6393 C.ar      1 RES1    0.0000
      7 C4         3.9263    9.9954    7.9393 C.ar      1 RES1    0.0000
      8 H1         4.5478    9.9442    7.2493 H         1 RES1    0.0000
      9 O3         9.6170   -4.6908    5.6663 O.2       1 RES1    0.0000
     10 C5         4.2203    7.5416    8.3188 C.2       1 RES1    0.0000
     11 H2         4.3405    6.9623    9.0356 H         1 RES1    0.0000
     12 O4         8.5018   -4.8182    3.8460 O.2       1 RES1    0.0000
     13 C6         2.0745   10.1609    9.9442 C.ar      1 RES1    0.0000
     14 H3         1.4386   10.2194   10.6186 H         1 RES1    0.0000
     15 C7         2.3194   13.6885    9.1160 C.3       1 RES1    0.0000
     16 H4         3.2923   13.7722    9.2754 H         1 RES1    0.0000
     17 H5         1.8483   14.4398    9.5449 H         1 RES1    0.0000
     18 H6         2.1446   13.7015    8.1425 H         1 RES1    0.0000
     19 C8         3.3793   11.2255    8.2342 C.ar      1 RES1    0.0000
     20 H7         3.6295   11.9861    7.7601 H         1 RES1    0.0000
     21 C9         1.3522    7.8168   11.3029 C.3       1 RES1    0.0000
     22 H8         1.5878    8.5263   11.9661 H         1 RES1    0.0000
     23 H9         1.3159    6.9363   11.7587 H         1 RES1    0.0000
     24 H10        0.4651    8.0242   10.8980 H         1 RES1    0.0000
     25 C10        4.6316    7.1093    7.1294 C.2       1 RES1    0.0000
     26 H11        4.4936    7.6532    6.3873 H         1 RES1    0.0000
     27 C11        8.7123   -2.1441    6.1446 C.ar      1 RES1    0.0000
     28 H12        9.2465   -2.5123    6.8105 H         1 RES1    0.0000
     29 C12        6.1158    5.2097    7.8758 C.ar      1 RES1    0.0000
     30 H13        6.2728    5.6523    8.6786 H         1 RES1    0.0000
     31 C13        6.7059    3.9805    7.6627 C.ar      1 RES1    0.0000
     32 H14        7.2569    3.6244    8.3216 H         1 RES1    0.0000
     33 C14        5.1467    5.1046    5.7298 C.ar      1 RES1    0.0000
     34 H15        4.6473    5.4858    5.0441 H         1 RES1    0.0000
     35 C15        7.5822   -2.3487    4.0536 C.ar      1 RES1    0.0000
     36 H16        7.3550   -2.8554    3.3086 H         1 RES1    0.0000
     37 C16        8.2694   -0.8563    6.2462 C.ar      1 RES1    0.0000
     38 H17        8.5198   -0.3477    6.9827 H         1 RES1    0.0000
     39 C17        7.1437   -1.0646    4.1679 C.ar      1 RES1    0.0000
     40 H18        6.6246   -0.6992    3.4878 H         1 RES1    0.0000
     41 C18        5.2978    5.8029    6.9305 C.ar      1 RES1    0.0000
     42 C19        8.3588   -2.8889    5.0441 C.ar      1 RES1    0.0000
     43 C20        6.5046    3.2627    6.5015 C.ar      1 RES1    0.0000
     44 C21        5.7204    3.8661    5.5365 C.ar      1 RES1    0.0000
     45 H19        5.5760    3.4235    4.7322 H         1 RES1    0.0000
     46 C22        7.0955    1.9293    6.3548 C.2       1 RES1    0.0000
     47 H20        7.6735    1.6606    7.0321 H         1 RES1    0.0000
     48 C23        6.9073    1.0702    5.3799 C.2       1 RES1    0.0000
     49 H21        6.3673    1.3538    4.6786 H         1 RES1    0.0000
     50 C24        7.4558   -0.2882    5.2755 C.ar      1 RES1    0.0000
     51 C25        8.5472   -2.6750    4.9524 Du        2 SUP2    0.0000
     52 C26        8.9284   -2.1943    6.1940 Du        2 SUP2    0.0000
     53 C27        6.1394    3.3752    6.0656 Du        2 SUP2    0.0000
     54 C28        6.3696    3.8959    7.3326 Du        2 SUP2    0.0000
     55 C29        5.9050    5.1697    7.6515 Du        2 SUP2    0.0000
     56 C30        5.2100    5.9135    6.7047 Du        2 SUP2    0.0000
     57 C31        4.9874    5.3910    5.4377 Du        2 SUP2    0.0000
     58 C32        5.4523    4.1199    5.1174 Du        2 SUP2    0.0000
     59 C33        8.4539   -0.9577    6.6356 Du        2 SUP2    0.0000
     60 C34        7.5991   -0.2148    5.8314 Du        2 SUP2    0.0000
     61 C35        7.2188   -0.6992    4.5855 Du        2 SUP2    0.0000
     62 C36        7.6933   -1.9293    4.1439 Du        2 SUP2    0.0000
     63 C37        7.2708    1.1632    6.2038 Du        2 SUP2    0.0000
     64 C38        6.5902    2.0948    5.5746 Du        2 SUP2    0.0000
     65 H22        9.5003   -2.6899    6.7329 Du        2 SUP2    0.0000
     66 H23        6.8322    3.4012    7.9661 Du        2 SUP2    0.0000
     67 H24        6.0565    5.5221    8.4994 Du        2 SUP2    0.0000
     68 H25        4.5210    5.8894    4.8042 Du        2 SUP2    0.0000
     69 H26        5.2974    3.7685    4.2709 Du        2 SUP2    0.0000
     70 H27        8.7104   -0.6369    7.4694 Du        2 SUP2    0.0000
     71 H28        6.6508   -0.2008    4.0465 Du        2 SUP2    0.0000
     72 H29        7.4407   -2.2538    3.3100 Du        2 SUP2    0.0000
     73 H30        7.6003    1.4245    7.0335 Du        2 SUP2    0.0000
     74 H31        6.3677    1.9033    4.6913 Du        2 SUP2    0.0000
@<TRIPOS>BOND
     1    1    5 1
     2    2    6 1
     3    3    9 2
     4    4    6 ar
     5    5   13 ar
     6    6   13 ar
     7    7    4 ar
     8    8    7 1
     9   10    4 1
    10   11   10 1
    11   12    3 2
    12   13   14 1
    13   15    1 1
    14   16   15 1
    15   17   15 1
    16   18   15 1
    17   19    5 ar
    18   20   19 1
    19   21    2 1
    20   22   21 1
    21   23   21 1
    22   24   21 1
    23   25   10 2
    24   26   25 1
    25   27   28 1
    26   29   30 1
    27   31   29 ar
    28   32   31 1
    29   33   34 1
    30   35   36 1
    31   37   27 ar
    32   38   37 1
    33   39   35 ar
    34   40   39 1
    35   41   25 1
    36   42    3 1
    37   43   31 ar
    38   44   33 ar
    39   45   44 1
    40   46   43 1
    41   47   46 1
    42   48   46 2
    43   49   48 1
    44   50   37 ar
    45    7   19 ar
    46   27   42 ar
    47   29   41 ar
    48   33   41 ar
    49   35   42 ar
    50   39   50 ar
    51   43   44 ar
    52   48   50 1
@<TRIPOS>SUBSTRUCTURE
     1 RES1 1
     2 SUP2 51

@<TRIPOS>CRYSIN
   7.6716    9.2980   14.4050  90.0000 101.6300  90.0000   7 1

