# MOL2 file generated by ConQuest
# Please check atom types

@<TRIPOS>MOLECULE
IPATOJ06
    74    52     2
SMALL
NO_CHARGES
****
Generated from CSD

@<TRIPOS>ATOM
      1 O1         1.8715   12.4638    9.7013 O.3       1 RES1    0.0000
      2 O2         2.3898    7.7990   10.3459 O.3       1 RES1    0.0000
      3 N1         8.9113   -4.1727    4.8274 N.pl3     1 RES1    0.0000
      4 C1         3.6450    8.8468    8.6803 C.ar      1 RES1    0.0000
      5 C2         2.4882   11.3095    9.2902 C.ar      1 RES1    0.0000
      6 C3         2.6867    8.9645    9.6960 C.ar      1 RES1    0.0000
      7 C4         3.9812   10.0030    8.0078 C.ar      1 RES1    0.0000
      8 H1         4.6164    9.9516    7.3298 H         1 RES1    0.0000
      9 O3         9.6468   -4.6779    5.6502 O.2       1 RES1    0.0000
     10 C5         4.2659    7.5571    8.3767 C.2       1 RES1    0.0000
     11 H2         4.3878    6.9772    9.0916 H         1 RES1    0.0000
     12 O4         8.5292   -4.7507    3.8458 O.2       1 RES1    0.0000
     13 C6         2.1101   10.1795    9.9939 C.ar      1 RES1    0.0000
     14 H3         1.4702   10.2402   10.6648 H         1 RES1    0.0000
     15 C7         2.3089   13.6938    9.1299 C.3       1 RES1    0.0000
     16 H4         3.2690   13.8180    9.3058 H         1 RES1    0.0000
     17 H5         1.8041   14.4381    9.5257 H         1 RES1    0.0000
     18 H6         2.1620   13.6751    8.1568 H         1 RES1    0.0000
     19 C8         3.4202   11.2320    8.2901 C.ar      1 RES1    0.0000
     20 H7         3.6695   11.9903    7.8121 H         1 RES1    0.0000
     21 C9         1.3756    7.8289   11.3330 C.3       1 RES1    0.0000
     22 H8         1.5675    8.5265   11.9586 H         1 RES1    0.0000
     23 H9         1.3478    6.9856   11.7883 H         1 RES1    0.0000
     24 H10        0.5313    7.9942   10.9159 H         1 RES1    0.0000
     25 C10        4.6727    7.1266    7.1908 C.2       1 RES1    0.0000
     26 H11        4.5396    7.6692    6.4474 H         1 RES1    0.0000
     27 C11        8.7079   -2.1732    6.1651 C.ar      1 RES1    0.0000
     28 H12        9.2197   -2.5636    6.8375 H         1 RES1    0.0000
     29 C12        6.1145    5.1766    7.9596 C.ar      1 RES1    0.0000
     30 H13        6.2347    5.5931    8.7810 H         1 RES1    0.0000
     31 C13        6.7086    3.9653    7.7341 C.ar      1 RES1    0.0000
     32 H14        7.2386    3.5964    8.4008 H         1 RES1    0.0000
     33 C14        5.2076    5.1206    5.7977 C.ar      1 RES1    0.0000
     34 H15        4.7251    5.5119    5.1069 H         1 RES1    0.0000
     35 C15        7.6036   -2.3460    4.1039 C.ar      1 RES1    0.0000
     36 H16        7.3461   -2.8568    3.3691 H         1 RES1    0.0000
     37 C16        8.3166   -0.8732    6.2673 C.ar      1 RES1    0.0000
     38 H17        8.5771   -0.3838    7.0134 H         1 RES1    0.0000
     39 C17        7.2358   -1.0460    4.2004 C.ar      1 RES1    0.0000
     40 H18        6.7545   -0.6687    3.4996 H         1 RES1    0.0000
     41 C18        5.3384    5.7977    7.0035 C.ar      1 RES1    0.0000
     42 C19        8.3490   -2.8876    5.0856 C.ar      1 RES1    0.0000
     43 C20        6.5388    3.2715    6.5566 C.ar      1 RES1    0.0000
     44 C21        5.7792    3.8916    5.5991 C.ar      1 RES1    0.0000
     45 H19        5.6457    3.4620    4.7863 H         1 RES1    0.0000
     46 C22        7.1499    1.9276    6.3949 C.2       1 RES1    0.0000
     47 H20        7.7173    1.6511    7.0787 H         1 RES1    0.0000
     48 C23        6.9844    1.0880    5.4076 C.2       1 RES1    0.0000
     49 H21        6.4533    1.3766    4.7012 H         1 RES1    0.0000
     50 C24        7.5426   -0.2522    5.2970 C.ar      1 RES1    0.0000
     51 C25        8.6601   -2.6429    5.0288 Du        2 SUP2    0.0000
     52 C26        9.0151   -2.1293    6.2701 Du        2 SUP2    0.0000
     53 C27        6.2130    3.4097    6.0687 Du        2 SUP2    0.0000
     54 C28        6.4672    3.9317    7.3312 Du        2 SUP2    0.0000
     55 C29        5.9890    5.1925    7.6688 Du        2 SUP2    0.0000
     56 C30        5.2605    5.9303    6.7439 Du        2 SUP2    0.0000
     57 C31        5.0027    5.4073    5.4800 Du        2 SUP2    0.0000
     58 C32        5.4809    4.1474    5.1423 Du        2 SUP2    0.0000
     59 C33        8.5132   -0.9059    6.6857 Du        2 SUP2    0.0000
     60 C34        7.6482   -0.1905    5.8615 Du        2 SUP2    0.0000
     61 C35        7.2852   -0.7051    4.6217 Du        2 SUP2    0.0000
     62 C36        7.7951   -1.9313    4.2047 Du        2 SUP2    0.0000
     63 C37        7.3292    1.1776    6.2545 Du        2 SUP2    0.0000
     64 C38        6.6384    2.0751    5.6161 Du        2 SUP2    0.0000
     65 H22        9.5935   -2.6056    6.8205 Du        2 SUP2    0.0000
     66 H23        6.9512    3.4386    7.9511 Du        2 SUP2    0.0000
     67 H24        6.1536    5.5436    8.5143 Du        2 SUP2    0.0000
     68 H25        4.5184    5.9013    4.8615 Du        2 SUP2    0.0000
     69 H26        5.3160    3.7972    4.2983 Du        2 SUP2    0.0000
     70 H27        8.7511   -0.5585    7.5156 Du        2 SUP2    0.0000
     71 H28        6.7101   -0.2288    4.0699 Du        2 SUP2    0.0000
     72 H29        7.5525   -2.2750    3.3748 Du        2 SUP2    0.0000
     73 H30        7.6671    1.4457    7.0787 Du        2 SUP2    0.0000
     74 H31        6.3785    1.8426    4.7536 Du        2 SUP2    0.0000
@<TRIPOS>BOND
     1    1    5 1
     2    2    6 1
     3    3    9 2
     4    4    6 ar
     5    5   13 ar
     6    6   13 ar
     7    7    4 ar
     8    8    7 1
     9   10    4 1
    10   11   10 1
    11   12    3 2
    12   13   14 1
    13   15    1 1
    14   16   15 1
    15   17   15 1
    16   18   15 1
    17   19    5 ar
    18   20   19 1
    19   21    2 1
    20   22   21 1
    21   23   21 1
    22   24   21 1
    23   25   10 2
    24   26   25 1
    25   27   28 1
    26   29   30 1
    27   31   29 ar
    28   32   31 1
    29   33   34 1
    30   35   36 1
    31   37   27 ar
    32   38   37 1
    33   39   35 ar
    34   40   39 1
    35   41   25 1
    36   42    3 1
    37   43   31 ar
    38   44   33 ar
    39   45   44 1
    40   46   43 1
    41   47   46 1
    42   48   46 2
    43   49   48 1
    44   50   37 ar
    45    7   19 ar
    46   27   42 ar
    47   29   41 ar
    48   33   41 ar
    49   35   42 ar
    50   39   50 ar
    51   43   44 ar
    52   48   50 1
@<TRIPOS>SUBSTRUCTURE
     1 RES1 1
     2 SUP2 51

@<TRIPOS>CRYSIN
   7.7161    9.3390   14.4810  90.0000 101.5900  90.0000   7 1

