# MOL2 file generated by ConQuest
# Please check atom types

@<TRIPOS>MOLECULE
IPEHAM
    30    31     1
SMALL
NO_CHARGES
****
Generated from CSD

@<TRIPOS>ATOM
      1 O1         0.3699    3.7314   -0.4933 O.3       1 RES1    0.0000
      2 H1        -0.2333    4.2606   -0.7432 H         1 RES1    0.0000
      3 N1         1.0492    4.2846    0.6636 N.3       1 RES1    0.0000
      4 C1         0.6655    3.4093    1.7956 C.3       1 RES1    0.0000
      5 H2         1.0735    2.5162    1.6721 H         1 RES1    0.0000
      6 H3        -0.3186    3.2964    1.8028 H         1 RES1    0.0000
      7 C2         1.1046    3.9740    3.0950 C.2       1 RES1    0.0000
      8 C3         2.0803    3.5296    3.8753 C.2       1 RES1    0.0000
      9 H4         2.6191    2.7745    3.6679 H         1 RES1    0.0000
     10 C4         2.2312    4.3171    5.0668 C.2       1 RES1    0.0000
     11 H5         2.8729    4.1842    5.7548 H         1 RES1    0.0000
     12 C5         1.2046    5.3650    5.0188 C.2       1 RES1    0.0000
     13 H6         1.0458    6.0437    5.6637 H         1 RES1    0.0000
     14 C6         0.4485    5.1338    3.7183 C.3       1 RES1    0.0000
     15 H7        -0.5062    4.9414    3.8969 H         1 RES1    0.0000
     16 H8         0.5096    5.9286    3.1309 H         1 RES1    0.0000
     17 C7         2.4876    4.1581    0.3740 C.3       1 RES1    0.0000
     18 H9         2.6979    3.2117    0.1750 H         1 RES1    0.0000
     19 H10        3.0058    4.4227    1.1747 H         1 RES1    0.0000
     20 C8         2.9043    5.0083   -0.7851 C.ar      1 RES1    0.0000
     21 C9         2.9046    6.3993   -0.7000 C.ar      1 RES1    0.0000
     22 H11        2.6672    6.8197    0.1175 H         1 RES1    0.0000
     23 C10        3.2423    7.1669   -1.7848 C.ar      1 RES1    0.0000
     24 H12        3.2410    8.1144   -1.7177 H         1 RES1    0.0000
     25 C11        3.5774    6.5718   -2.9451 C.ar      1 RES1    0.0000
     26 H13        3.7620    7.1083   -3.7063 H         1 RES1    0.0000
     27 C12        3.6553    5.2374   -3.0458 C.ar      1 RES1    0.0000
     28 H14        3.9567    4.8389   -3.8537 H         1 RES1    0.0000
     29 C13        3.2981    4.4436   -1.9814 C.ar      1 RES1    0.0000
     30 H15        3.3213    3.4982   -2.0701 H         1 RES1    0.0000
@<TRIPOS>BOND
     1    1    2 1
     2    3    1 1
     3    4    3 1
     4    5    4 1
     5    6    4 1
     6    7    4 1
     7    8    7 2
     8    9    8 1
     9   10    8 1
    10   11   10 1
    11   12   10 2
    12   13   12 1
    13   14    7 1
    14   15   14 1
    15   16   14 1
    16   17    3 1
    17   18   17 1
    18   19   17 1
    19   20   17 1
    20   21   20 ar
    21   22   21 1
    22   23   21 ar
    23   24   23 1
    24   25   23 ar
    25   26   25 1
    26   27   25 ar
    27   28   27 1
    28   29   20 ar
    29   30   29 1
    30   12   14 1
    31   27   29 ar
@<TRIPOS>SUBSTRUCTURE
     1 RES1 1

@<TRIPOS>CRYSIN
   8.9830   10.4580   12.0080  90.0000  93.4110  90.0000 231 1

