# MOL2 file generated by ConQuest
# Please check atom types

@<TRIPOS>MOLECULE
IPEZEJ
   155   159     1
SMALL
NO_CHARGES
****
Generated from CSD

@<TRIPOS>ATOM
      1 C1        -0.3994    3.2860    3.1768 C.ar      1 RES1    0.0000
      2 C2         0.3974    3.9550    2.2543 C.ar      1 RES1    0.0000
      3 H1         0.9298    3.4874    1.6240 H         1 RES1    0.0000
      4 C3         0.3701    5.3427    2.3038 C.ar      1 RES1    0.0000
      5 C4         1.1776    6.2290    1.4601 C.2       1 RES1    0.0000
      6 C5         1.3528    7.5661    1.6494 C.2       1 RES1    0.0000
      7 H2         0.9831    8.1021    2.3407 H         1 RES1    0.0000
      8 C6         2.5551    9.3089    0.3685 C.ar      1 RES1    0.0000
      9 C7         2.1060    9.9404   -0.7688 C.ar      1 RES1    0.0000
     10 H3         1.6124    9.4532   -1.4169 H         1 RES1    0.0000
     11 C8         2.3695   11.2662   -0.9683 C.ar      1 RES1    0.0000
     12 H4         2.0775   11.6944   -1.7650 H         1 RES1    0.0000
     13 C9         3.0569   11.9821   -0.0114 C.ar      1 RES1    0.0000
     14 H5         3.2132   12.9097   -0.1385 H         1 RES1    0.0000
     15 C10        3.5167   11.3618    1.1297 C.ar      1 RES1    0.0000
     16 H6         4.0037   11.8631    1.7727 H         1 RES1    0.0000
     17 C11        3.2775   10.0229    1.3495 C.ar      1 RES1    0.0000
     18 C12        4.3169   10.0847    3.4920 C.3       1 RES1    0.0000
     19 H7         3.6519   10.6994    3.8935 H         1 RES1    0.0000
     20 H8         5.0580   10.6263    3.1196 H         1 RES1    0.0000
     21 C13        4.8423    9.1571    4.5327 C.3       1 RES1    0.0000
     22 H9         5.5222    8.5574    4.1337 H         1 RES1    0.0000
     23 H10        4.1054    8.5987    4.8859 H         1 RES1    0.0000
     24 C14        5.4718    9.9704    5.6751 C.3       1 RES1    0.0000
     25 H11        6.1554   10.5785    5.3002 H         1 RES1    0.0000
     26 H12        4.7730   10.5279    6.0995 H         1 RES1    0.0000
     27 C15        6.1153    9.0887    6.7348 C.3       1 RES1    0.0000
     28 H13        6.8211    8.5368    6.3155 H         1 RES1    0.0000
     29 H14        5.4348    8.4778    7.1097 H         1 RES1    0.0000
     30 C16        6.7324    9.9236    7.8760 C.3       1 RES1    0.0000
     31 H15        7.4117   10.5382    7.4998 H         1 RES1    0.0000
     32 H16        6.0252   10.4745    8.2966 H         1 RES1    0.0000
     33 C17        7.3860    9.0456    8.9446 C.3       1 RES1    0.0000
     34 H17        6.7029    8.4366    9.3233 H         1 RES1    0.0000
     35 H18        8.0857    8.4900    8.5202 H         1 RES1    0.0000
     36 C18        8.0116    9.8570   10.0756 C.3       1 RES1    0.0000
     37 H19        7.3135   10.4220   10.4911 H         1 RES1    0.0000
     38 H20        8.6997   10.4595    9.6969 H         1 RES1    0.0000
     39 C19        8.6542    8.9922   11.1570 C.3       1 RES1    0.0000
     40 H21        7.9664    8.3907   11.5369 H         1 RES1    0.0000
     41 H22        9.3529    8.4253   10.7402 H         1 RES1    0.0000
     42 C20        9.2825    9.7924   12.2879 C.3       1 RES1    0.0000
     43 H23        8.5865   10.3630   12.7009 H         1 RES1    0.0000
     44 H24        9.9767   10.3883   11.9105 H         1 RES1    0.0000
     45 C21        9.9165    8.9182   13.3731 C.3       1 RES1    0.0000
     46 H25        9.2211    8.3194   13.7493 H         1 RES1    0.0000
     47 H26       10.6153    8.3504   12.9627 H         1 RES1    0.0000
     48 C22       10.5403    9.7287   14.5079 C.3       1 RES1    0.0000
     49 H27        9.8398   10.2909   14.9247 H         1 RES1    0.0000
     50 H28       11.2303   10.3321   14.1317 H         1 RES1    0.0000
     51 C23       11.1827    8.8470   15.5867 C.3       1 RES1    0.0000
     52 H29       10.4931    8.2454   15.9667 H         1 RES1    0.0000
     53 H30       11.8840    8.2829   15.1712 H         1 RES1    0.0000
     54 C24       11.8060    9.6715   16.7113 C.3       1 RES1    0.0000
     55 H31       11.1059   10.2431   17.1180 H         1 RES1    0.0000
     56 H32       12.5003   10.2665   16.3301 H         1 RES1    0.0000
     57 C25       12.4391    8.8001   17.8041 C.3       1 RES1    0.0000
     58 H33       11.7408    8.2201   18.1993 H         1 RES1    0.0000
     59 H34       13.1240    8.2145   17.3937 H         1 RES1    0.0000
     60 C26       13.0899    9.6218   18.9160 C.3       1 RES1    0.0000
     61 H35       13.8150   10.1719   18.5285 H         1 RES1    0.0000
     62 H36       12.4181   10.2365   19.3011 H         1 RES1    0.0000
     63 C27       13.6646    8.7467   20.0279 C.3       1 RES1    0.0000
     64 H37       14.2905    8.0918   19.6302 H         1 RES1    0.0000
     65 H38       12.9279    8.2398   20.4511 H         1 RES1    0.0000
     66 C28       14.4003    9.5441   21.1068 C.3       1 RES1    0.0000
     67 H39       15.1437   10.0491   20.6874 H         1 RES1    0.0000
     68 H40       13.7764   10.1981   21.5096 H         1 RES1    0.0000
     69 C29       14.9634    8.6483   22.2034 C.3       1 RES1    0.0000
     70 H41       15.4248    9.1993   22.8718 H         1 RES1    0.0000
     71 H42       15.5984    8.0121   21.8120 H         1 RES1    0.0000
     72 H43       14.2312    8.1573   22.6329 H         1 RES1    0.0000
     73 N1        -0.3994    1.8355    3.1768 N.pl3     1 RES1    0.0000
     74 N2        -0.3994    6.0042    3.1768 N.ar      1 RES1    0.0000
     75 N3         1.8836    5.8393    0.3545 N.2       1 RES1    0.0000
     76 N4         2.4794    6.8971   -0.1525 N.2       1 RES1    0.0000
     77 N5         2.1586    7.9681    0.6557 N.pl3     1 RES1    0.0000
     78 O1         0.3799    1.2527    2.4398 O.2       1 RES1    0.0000
     79 O2         3.6920    9.3108    2.4309 O.3       1 RES1    0.0000
     80 C2A       -1.1962    3.9550    4.0994 C.ar      1 RES1    0.0000
     81 H1A       -1.7286    3.4874    4.7296 H         1 RES1    0.0000
     82 C3A       -1.1689    5.3427    4.0498 C.ar      1 RES1    0.0000
     83 C4A       -1.9765    6.2290    4.8936 C.2       1 RES1    0.0000
     84 C5A       -2.1517    7.5661    4.7042 C.2       1 RES1    0.0000
     85 H2A       -1.7819    8.1021    4.0130 H         1 RES1    0.0000
     86 C6A       -3.3539    9.3089    5.9851 C.ar      1 RES1    0.0000
     87 C7A       -2.9048    9.9404    7.1224 C.ar      1 RES1    0.0000
     88 H3A       -2.4112    9.4532    7.7705 H         1 RES1    0.0000
     89 C8A       -3.1683   11.2662    7.3219 C.ar      1 RES1    0.0000
     90 H4A       -2.8763   11.6944    8.1187 H         1 RES1    0.0000
     91 C9A       -3.8557   11.9821    6.3651 C.ar      1 RES1    0.0000
     92 H5A       -4.0120   12.9097    6.4921 H         1 RES1    0.0000
     93 C10A      -4.3155   11.3618    5.2240 C.ar      1 RES1    0.0000
     94 H6A       -4.8026   11.8631    4.5810 H         1 RES1    0.0000
     95 C11A      -4.0763   10.0229    5.0041 C.ar      1 RES1    0.0000
     96 C12A      -5.1157   10.0847    2.8617 C.3       1 RES1    0.0000
     97 H7A       -4.4508   10.6994    2.4601 H         1 RES1    0.0000
     98 H8A       -5.8568   10.6263    3.2340 H         1 RES1    0.0000
     99 C13A      -5.6411    9.1571    1.8210 C.3       1 RES1    0.0000
    100 H9A       -6.3210    8.5574    2.2200 H         1 RES1    0.0000
    101 H10A      -4.9042    8.5987    1.4677 H         1 RES1    0.0000
    102 C14A      -6.2706    9.9704    0.6786 C.3       1 RES1    0.0000
    103 H11A      -6.9542   10.5785    1.0534 H         1 RES1    0.0000
    104 H12A      -5.5718   10.5279    0.2541 H         1 RES1    0.0000
    105 C15A      -6.9141    9.0887   -0.3812 C.3       1 RES1    0.0000
    106 H13A      -7.6199    8.5368    0.0381 H         1 RES1    0.0000
    107 H14A      -6.2337    8.4778   -0.7561 H         1 RES1    0.0000
    108 C16A      -7.5313    9.9236   -1.5223 C.3       1 RES1    0.0000
    109 H15A      -8.2105   10.5382   -1.1462 H         1 RES1    0.0000
    110 H16A      -6.8240   10.4745   -1.9429 H         1 RES1    0.0000
    111 C17A      -8.1849    9.0456   -2.5910 C.3       1 RES1    0.0000
    112 H17A      -7.5017    8.4366   -2.9697 H         1 RES1    0.0000
    113 H18A      -8.8845    8.4900   -2.1666 H         1 RES1    0.0000
    114 C18A      -8.8104    9.8570   -3.7220 C.3       1 RES1    0.0000
    115 H19A      -8.1123   10.4220   -4.1375 H         1 RES1    0.0000
    116 H20A      -9.4985   10.4595   -3.3433 H         1 RES1    0.0000
    117 C19A      -9.4530    8.9922   -4.8033 C.3       1 RES1    0.0000
    118 H21A      -8.7652    8.3907   -5.1833 H         1 RES1    0.0000
    119 H22A     -10.1517    8.4253   -4.3865 H         1 RES1    0.0000
    120 C20A     -10.0813    9.7924   -5.9343 C.3       1 RES1    0.0000
    121 H23A      -9.3853   10.3630   -6.3473 H         1 RES1    0.0000
    122 H24A     -10.7755   10.3883   -5.5569 H         1 RES1    0.0000
    123 C21A     -10.7153    8.9182   -7.0195 C.3       1 RES1    0.0000
    124 H25A     -10.0199    8.3194   -7.3956 H         1 RES1    0.0000
    125 H26A     -11.4142    8.3504   -6.6090 H         1 RES1    0.0000
    126 C22A     -11.3391    9.7287   -8.1542 C.3       1 RES1    0.0000
    127 H27A     -10.6386   10.2909   -8.5710 H         1 RES1    0.0000
    128 H28A     -12.0291   10.3321   -7.7781 H         1 RES1    0.0000
    129 C23A     -11.9816    8.8470   -9.2331 C.3       1 RES1    0.0000
    130 H29A     -11.2920    8.2454   -9.6130 H         1 RES1    0.0000
    131 H30A     -12.6828    8.2829   -8.8176 H         1 RES1    0.0000
    132 C24A     -12.6048    9.6715  -10.3577 C.3       1 RES1    0.0000
    133 H31A     -11.9047   10.2431  -10.7643 H         1 RES1    0.0000
    134 H32A     -13.2991   10.2665   -9.9765 H         1 RES1    0.0000
    135 C25A     -13.2379    8.8001  -11.4505 C.3       1 RES1    0.0000
    136 H33A     -12.5397    8.2201  -11.8457 H         1 RES1    0.0000
    137 H34A     -13.9228    8.2145  -11.0401 H         1 RES1    0.0000
    138 C26A     -13.8887    9.6218  -12.5624 C.3       1 RES1    0.0000
    139 H35A     -14.6138   10.1719  -12.1748 H         1 RES1    0.0000
    140 H36A     -13.2169   10.2365  -12.9474 H         1 RES1    0.0000
    141 C27A     -14.4634    8.7467  -13.6743 C.3       1 RES1    0.0000
    142 H37A     -15.0894    8.0918  -13.2765 H         1 RES1    0.0000
    143 H38A     -13.7267    8.2398  -14.0974 H         1 RES1    0.0000
    144 C28A     -15.1991    9.5441  -14.7531 C.3       1 RES1    0.0000
    145 H39A     -15.9425   10.0491  -14.3338 H         1 RES1    0.0000
    146 H40A     -14.5752   10.1981  -15.1560 H         1 RES1    0.0000
    147 C29A     -15.7622    8.6483  -15.8498 C.3       1 RES1    0.0000
    148 H41A     -16.2236    9.1993  -16.5182 H         1 RES1    0.0000
    149 H42A     -16.3972    8.0121  -15.4584 H         1 RES1    0.0000
    150 H43A     -15.0301    8.1573  -16.2793 H         1 RES1    0.0000
    151 N3A       -2.6824    5.8393    5.9991 N.2       1 RES1    0.0000
    152 N4A       -3.2782    6.8971    6.5061 N.2       1 RES1    0.0000
    153 N5A       -2.9574    7.9681    5.6979 N.pl3     1 RES1    0.0000
    154 O1A       -1.1787    1.2527    3.9138 O.2       1 RES1    0.0000
    155 O2A       -4.4908    9.3108    3.9227 O.3       1 RES1    0.0000
@<TRIPOS>BOND
     1    1    2 ar
     2    2    3 1
     3    4    2 ar
     4    5    4 1
     5    6    5 2
     6    7    6 1
     7    8    9 ar
     8    9   10 1
     9   11    9 ar
    10   12   11 1
    11   13   11 ar
    12   14   13 1
    13   15   13 ar
    14   16   15 1
    15   17    8 ar
    16   18   19 1
    17   20   18 1
    18   21   18 1
    19   22   21 1
    20   23   21 1
    21   24   21 1
    22   25   24 1
    23   26   24 1
    24   27   24 1
    25   28   27 1
    26   29   27 1
    27   30   27 1
    28   31   30 1
    29   32   30 1
    30   33   30 1
    31   34   33 1
    32   35   33 1
    33   36   33 1
    34   37   36 1
    35   38   36 1
    36   39   36 1
    37   40   39 1
    38   41   39 1
    39   42   39 1
    40   43   42 1
    41   44   42 1
    42   45   42 1
    43   46   45 1
    44   47   45 1
    45   48   45 1
    46   49   48 1
    47   50   48 1
    48   51   48 1
    49   52   51 1
    50   53   51 1
    51   54   51 1
    52   55   54 1
    53   56   54 1
    54   57   54 1
    55   58   57 1
    56   59   57 1
    57   60   57 1
    58   61   60 1
    59   62   60 1
    60   63   60 1
    61   64   63 1
    62   65   63 1
    63   66   63 1
    64   67   66 1
    65   68   66 1
    66   69   66 1
    67   70   69 1
    68   71   69 1
    69   72   69 1
    70   73    1 1
    71   74    4 ar
    72   75    5 1
    73   76   75 2
    74   77    6 1
    75   78   73 2
    76   79   17 1
    77   80    1 ar
    78   81   80 1
    79   82   74 ar
    80   83   82 1
    81   84   83 2
    82   85   84 1
    83   86   87 ar
    84   87   88 1
    85   89   87 ar
    86   90   89 1
    87   91   89 ar
    88   92   91 1
    89   93   91 ar
    90   94   93 1
    91   95   86 ar
    92   96   97 1
    93   98   96 1
    94   99   96 1
    95  100   99 1
    96  101   99 1
    97  102   99 1
    98  103  102 1
    99  104  102 1
   100  105  102 1
   101  106  105 1
   102  107  105 1
   103  108  105 1
   104  109  108 1
   105  110  108 1
   106  111  108 1
   107  112  111 1
   108  113  111 1
   109  114  111 1
   110  115  114 1
   111  116  114 1
   112  117  114 1
   113  118  117 1
   114  119  117 1
   115  120  117 1
   116  121  120 1
   117  122  120 1
   118  123  120 1
   119  124  123 1
   120  125  123 1
   121  126  123 1
   122  127  126 1
   123  128  126 1
   124  129  126 1
   125  130  129 1
   126  131  129 1
   127  132  129 1
   128  133  132 1
   129  134  132 1
   130  135  132 1
   131  136  135 1
   132  137  135 1
   133  138  135 1
   134  139  138 1
   135  140  138 1
   136  141  138 1
   137  142  141 1
   138  143  141 1
   139  144  141 1
   140  145  144 1
   141  146  144 1
   142  147  144 1
   143  148  147 1
   144  149  147 1
   145  150  147 1
   146  151   83 1
   147  152  151 2
   148  153   84 1
   149  154   73 2
   150  155   95 1
   151    8   77 1
   152   15   17 ar
   153   18   79 1
   154   76   77 1
   155   80   82 ar
   156   86  153 1
   157   93   95 ar
   158   96  155 1
   159  152  153 1
@<TRIPOS>SUBSTRUCTURE
     1 RES1 1

@<TRIPOS>CRYSIN
  44.8210    9.3698   12.8073  90.0000  97.1660  90.0000  15 1

