# MOL2 file generated by ConQuest
# Please check atom types

@<TRIPOS>MOLECULE
IPEZUZ
    17    17     1
SMALL
USER_CHARGES
****
Generated from CSD

@<TRIPOS>ATOM
      1 C1        14.0557    4.4104   -1.8932 C.ar      1 RES1    0.0000
      2 N1        13.6911    4.4104   -3.1820 N.ar      1 RES1    0.0000
      3 C2        14.7348    4.4104   -4.0156 C.ar      1 RES1    0.0000
      4 N2        16.0269    4.4104   -3.6834 N.ar      1 RES1    0.0000
      5 C3        16.2226    4.4104   -2.3687 C.ar      1 RES1    0.0000
      6 N3        15.2913    4.4104   -1.4057 N.ar      1 RES1    0.0000
      7 N4        12.9434    4.4104   -1.0662 N.pl3     1 RES1    0.0000
      8 H1        12.1485    4.4104   -1.4263 H         1 RES1    0.0000
      9 N5        12.9194    4.4104    0.3063 N.pl3     1 RES1    0.0000
     10 O1        13.9655    4.4104    0.9219 O.2       1 RES1    0.0000
     11 O2        11.7946    4.4104    0.7899 O.2       1 RES1    0.0000
     12 N6        14.3737    4.4104   -5.3622 N.2       1 RES1    0.0000
     13 N7        15.3796    4.4104   -6.1354 N.1       1 RES1    1.0000
     14 N8        16.1557    4.4104   -6.9365 N.2       1 RES1   -1.0000
     15 N9        17.5713    4.4104   -2.0153 N.2       1 RES1    0.0000
     16 N10       17.7641    4.4104   -0.7563 N.1       1 RES1    1.0000
     17 N11       18.0853    4.4104    0.3089 N.2       1 RES1   -1.0000
@<TRIPOS>BOND
     1    1    2 ar
     2    2    3 ar
     3    3    4 ar
     4    4    5 ar
     5    5    6 ar
     6    6    1 ar
     7    7    1 1
     8    8    7 1
     9    9    7 1
    10   10    9 2
    11   11    9 2
    12   12    3 1
    13   13   12 2
    14   14   13 2
    15   15    5 1
    16   16   15 2
    17   17   16 2
@<TRIPOS>SUBSTRUCTURE
     1 RES1 1

@<TRIPOS>CRYSIN
  14.1327    5.8806    9.7157  90.0000  90.0000  90.0000  62 1

