# MOL2 file generated by ConQuest
# Please check atom types

@<TRIPOS>MOLECULE
IPEZUZ01
    17    17     1
SMALL
USER_CHARGES
****
Generated from CSD

@<TRIPOS>ATOM
      1 O1         6.8853    1.4650   10.6255 O.2       1 RES1    0.0000
      2 N1         8.3026    1.4650    3.5768 N.1       1 RES1    1.0000
      3 N2         5.8395    1.4650   10.0099 N.pl3     1 RES1    0.0000
      4 O2         4.7186    1.4650   10.4882 O.2       1 RES1    0.0000
      5 N3         6.6173    1.4650    6.5238 N.ar      1 RES1    0.0000
      6 N4         8.2114    1.4650    8.2989 N.ar      1 RES1    0.0000
      7 N5        10.4851    1.4650    7.6903 N.2       1 RES1    0.0000
      8 N6         8.9476    1.4650    6.0268 N.ar      1 RES1    0.0000
      9 N7        10.6797    1.4650    8.9492 N.1       1 RES1    1.0000
     10 N8         5.8711    1.4650    8.6363 N.pl3     1 RES1    0.0000
     11 H1         5.1064    1.4650    8.2421 H         1 RES1    0.0000
     12 N9         7.3006    1.4650    4.3523 N.2       1 RES1    0.0000
     13 C1         6.9791    1.4650    7.8114 C.ar      1 RES1    0.0000
     14 N10        9.0756    1.4650    2.7742 N.2       1 RES1   -1.0000
     15 N11       10.9995    1.4650   10.0143 N.2       1 RES1   -1.0000
     16 C2         7.6569    1.4650    5.6929 C.ar      1 RES1    0.0000
     17 C3         9.1422    1.4650    7.3390 C.ar      1 RES1    0.0000
@<TRIPOS>BOND
     1    1    3 2
     2    2   12 2
     3    3    4 2
     4    5   13 ar
     5    6   13 ar
     6    7    9 2
     7    8   16 ar
     8    9   15 2
     9   10    3 1
    10   11   10 1
    11   12   16 1
    12   13   10 1
    13   14    2 2
    14   16    5 ar
    15   17    6 ar
    16    7   17 1
    17    8   17 ar
@<TRIPOS>SUBSTRUCTURE
     1 RES1 1

@<TRIPOS>CRYSIN
  14.1061    5.8600    9.7000  90.0000  90.0000  90.0000  62 1

