# MOL2 file generated by ConQuest
# Please check atom types

@<TRIPOS>MOLECULE
IPIKEZ
    73    75     1
SMALL
NO_CHARGES
****
Generated from CSD

@<TRIPOS>ATOM
      1 N1         4.3337   -1.7604    9.8717 N.3       1 RES1    0.0000
      2 C1         3.8267   -2.3716   11.1008 C.3       1 RES1    0.0000
      3 H1         4.4543   -2.2243   11.8269 H         1 RES1    0.0000
      4 H2         3.7227   -3.3279   10.9769 H         1 RES1    0.0000
      5 C2         2.4901   -1.7481   11.4423 C.3       1 RES1    0.0000
      6 H3         2.0422   -2.2812   12.1178 H         1 RES1    0.0000
      7 H4         1.9275   -1.7233   10.6523 H         1 RES1    0.0000
      8 N2         2.7064   -0.3365   11.9639 N.3       1 RES1    0.0000
      9 H5         3.1436   -0.1608   12.6826 H         1 RES1    0.0000
     10 C3         2.2053    0.5171   11.2697 C.3       1 RES1    0.0000
     11 H6         1.2504    0.3501   11.2321 H         1 RES1    0.0000
     12 H7         2.5504    0.4120   10.3690 H         1 RES1    0.0000
     13 C4         2.4133    1.9732   11.6862 C.ar      1 RES1    0.0000
     14 C5         1.8968    2.9369   10.8099 C.ar      1 RES1    0.0000
     15 H8         1.4678    2.6474   10.0369 H         1 RES1    0.0000
     16 C6         3.0940    3.8462   13.1235 C.ar      1 RES1    0.0000
     17 H9         3.4958    4.1691   13.8985 H         1 RES1    0.0000
     18 C7         2.5882    4.6949   12.2229 C.ar      1 RES1    0.0000
     19 C8         1.9890    4.2619   11.0332 C.ar      1 RES1    0.0000
     20 H10        1.6628    4.8743   10.4140 H         1 RES1    0.0000
     21 C9         3.0125    2.4767   12.8927 C.ar      1 RES1    0.0000
     22 H11        3.3481    1.8817   13.5232 H         1 RES1    0.0000
     23 N3         2.7052    6.1250   12.4743 N.pl3     1 RES1    0.0000
     24 O1         2.0375    6.8982   11.8495 O.2       1 RES1    0.0000
     25 O2         3.4486    6.4899   13.3731 O.2       1 RES1    0.0000
     26 C10        3.6802   -2.2590    8.6877 C.3       1 RES1    0.0000
     27 H12        2.7217   -2.1625    8.8041 H         1 RES1    0.0000
     28 H13        3.8693   -3.2066    8.6089 H         1 RES1    0.0000
     29 C11        4.0726   -1.5848    7.3949 C.3       1 RES1    0.0000
     30 H14        4.9778   -1.8396    7.1566 H         1 RES1    0.0000
     31 H15        3.4805   -1.8742    6.6837 H         1 RES1    0.0000
     32 N4         3.9910   -0.1225    7.5450 N.3       1 RES1    0.0000
     33 H16        3.6837    0.2759    8.2430 H         1 RES1    0.0000
     34 C12        4.4744    0.5357    6.4154 C.3       1 RES1    0.0000
     35 H17        3.9331    0.2808    5.6517 H         1 RES1    0.0000
     36 H18        5.3808    0.2363    6.2447 H         1 RES1    0.0000
     37 C13        4.4744    2.0227    6.5261 C.ar      1 RES1    0.0000
     38 C14        3.9248    2.6709    7.6520 C.ar      1 RES1    0.0000
     39 H19        3.5384    2.1736    8.3368 H         1 RES1    0.0000
     40 C15        3.9650    4.0392    7.7308 C.ar      1 RES1    0.0000
     41 H20        3.5774    4.4833    8.4494 H         1 RES1    0.0000
     42 C16        4.5866    4.7394    6.7306 C.ar      1 RES1    0.0000
     43 C17        5.1185    4.1320    5.6086 C.ar      1 RES1    0.0000
     44 H21        5.5002    4.6268    4.9199 H         1 RES1    0.0000
     45 C18        5.0570    2.7872    5.5635 C.ar      1 RES1    0.0000
     46 H22        5.4352    2.3555    4.8317 H         1 RES1    0.0000
     47 N5         4.6079    6.2128    6.8432 N.pl3     1 RES1    0.0000
     48 O3         5.0487    6.8437    5.9294 O.2       1 RES1    0.0000
     49 O4         4.3101    6.7077    7.9053 O.2       1 RES1    0.0000
     50 C19        5.7791   -1.9942    9.8173 C.3       1 RES1    0.0000
     51 H23        6.1112   -1.7233    8.9467 H         1 RES1    0.0000
     52 H24        5.9516   -2.9431    9.9205 H         1 RES1    0.0000
     53 C20        6.5449   -1.2223   10.9094 C.3       1 RES1    0.0000
     54 H25        6.3192   -1.5860   11.7800 H         1 RES1    0.0000
     55 H26        7.4986   -1.3373   10.7762 H         1 RES1    0.0000
     56 N6         6.2211    0.1856   10.8775 N.3       1 RES1    0.0000
     57 H27        5.8524    0.5654   10.2001 H         1 RES1    0.0000
     58 C21        6.5626    0.8821   12.0577 C.3       1 RES1    0.0000
     59 H28        7.4774    0.6544   12.2848 H         1 RES1    0.0000
     60 H29        5.9977    0.5505   12.7745 H         1 RES1    0.0000
     61 C22        6.4539    2.3357   12.0390 C.ar      1 RES1    0.0000
     62 C23        6.9373    3.0817   13.1085 C.ar      1 RES1    0.0000
     63 H30        7.2824    2.6314   13.8460 H         1 RES1    0.0000
     64 C24        6.9255    4.4450   13.1217 C.ar      1 RES1    0.0000
     65 H31        7.2528    4.9200   13.8516 H         1 RES1    0.0000
     66 C25        6.4149    5.0982   12.0202 C.ar      1 RES1    0.0000
     67 C26        5.9067    4.4277   10.9563 C.ar      1 RES1    0.0000
     68 H32        5.5463    4.9015   10.2414 H         1 RES1    0.0000
     69 C27        5.9197    3.0544   10.9263 C.ar      1 RES1    0.0000
     70 H33        5.5853    2.5967   10.1889 H         1 RES1    0.0000
     71 N7         6.4291    6.5778   11.9639 N.pl3     1 RES1    0.0000
     72 O5         6.8486    7.1728   12.9490 O.2       1 RES1    0.0000
     73 O6         6.0131    7.1233   10.9582 O.2       1 RES1    0.0000
@<TRIPOS>BOND
     1    1    2 1
     2    2    3 1
     3    4    2 1
     4    5    2 1
     5    6    5 1
     6    7    5 1
     7    8    5 1
     8    9    8 1
     9   10    8 1
    10   11   10 1
    11   12   10 1
    12   13   10 1
    13   14   13 ar
    14   15   14 1
    15   16   17 1
    16   18   16 ar
    17   19   14 ar
    18   20   19 1
    19   21   13 ar
    20   22   21 1
    21   23   18 1
    22   24   23 2
    23   25   23 2
    24   26    1 1
    25   27   26 1
    26   28   26 1
    27   29   26 1
    28   30   29 1
    29   31   29 1
    30   32   29 1
    31   33   32 1
    32   34   32 1
    33   35   34 1
    34   36   34 1
    35   37   34 1
    36   38   37 ar
    37   39   38 1
    38   40   38 ar
    39   41   40 1
    40   42   40 ar
    41   43   42 ar
    42   44   43 1
    43   45   37 ar
    44   46   45 1
    45   47   42 1
    46   48   47 2
    47   49   47 2
    48   50    1 1
    49   51   50 1
    50   52   50 1
    51   53   50 1
    52   54   53 1
    53   55   53 1
    54   56   53 1
    55   57   56 1
    56   58   56 1
    57   59   58 1
    58   60   58 1
    59   61   58 1
    60   62   61 ar
    61   63   62 1
    62   64   62 ar
    63   65   64 1
    64   66   64 ar
    65   67   66 ar
    66   68   67 1
    67   69   61 ar
    68   70   69 1
    69   71   66 1
    70   72   71 2
    71   73   71 2
    72   16   21 ar
    73   18   19 ar
    74   43   45 ar
    75   67   69 ar
@<TRIPOS>SUBSTRUCTURE
     1 RES1 1

@<TRIPOS>CRYSIN
  11.8182   12.3712   18.7640  90.0000  90.0000  90.0000  19 1

