# MOL2 file generated by ConQuest
# Please check atom types

@<TRIPOS>MOLECULE
IPITUY
    28    29     1
SMALL
USER_CHARGES
****
Generated from CSD

@<TRIPOS>ATOM
      1 N1         1.4000    1.3408    0.4414 N.pl3     1 RES1    0.0000
      2 H1         0.6277    1.3010    0.0967 H         1 RES1    0.0000
      3 H2         1.6569    2.0198    0.8016 H         1 RES1    0.0000
      4 C1         1.8924    0.1800    0.9053 C.2       1 RES1    0.0000
      5 N2         1.3705   -1.0266    0.6938 N.2       1 RES1    0.0000
      6 N3         2.2282   -1.8957    1.2953 N.2       1 RES1    0.0000
      7 N4         3.2245   -1.2974    1.8396 N.2       1 RES1    0.0000
      8 N5         3.0359    0.0356    1.5974 N.pl3     1 RES1    0.0000
      9 C2         3.9707    1.0046    2.1591 C.3       1 RES1    0.0000
     10 H3         3.8153    1.8868    1.7387 H         1 RES1    0.0000
     11 H4         4.8962    0.7248    1.9460 H         1 RES1    0.0000
     12 C3         3.8274    1.1406    3.6694 C.3       1 RES1    0.0000
     13 H5         3.7502    0.2394    4.0716 H         1 RES1    0.0000
     14 H6         4.6422    1.5678    4.0357 H         1 RES1    0.0000
     15 N6         2.6644    1.9319    4.0437 N.pl3     1 RES1    0.0000
     16 N7         1.4296    1.5226    3.5962 N.2       1 RES1    0.0000
     17 C4         0.5840    2.4618    4.0000 C.2       1 RES1    0.0000
     18 N8        -0.7809    2.3917    3.6982 N.2       1 RES1    0.0000
     19 N9        -1.0612    1.3117    3.1058 N.1       1 RES1    1.0000
     20 N10       -1.4300    0.4081    2.5508 N.2       1 RES1   -1.0000
     21 C5         1.2556    3.4783    4.7129 C.2       1 RES1    0.0000
     22 N11        0.7037    4.6349    5.3064 N.pl3     1 RES1    0.0000
     23 O1        -0.4979    4.8571    5.1704 O.2       1 RES1    0.0000
     24 O2         1.4770    5.3734    5.9474 O.2       1 RES1    0.0000
     25 C6         2.6178    3.0874    4.7231 C.2       1 RES1    0.0000
     26 N12        3.8154    3.6125    5.1079 N.2       1 RES1    0.0000
     27 N13        3.8761    4.3421    6.1301 N.1       1 RES1    1.0000
     28 N14        4.1538    5.0027    6.9903 N.2       1 RES1   -1.0000
@<TRIPOS>BOND
     1    1    2 1
     2    3    1 1
     3    4    1 1
     4    5    4 2
     5    6    5 1
     6    7    6 2
     7    8    4 1
     8    9    8 1
     9   10    9 1
    10   11    9 1
    11   12    9 1
    12   13   12 1
    13   14   12 1
    14   15   12 1
    15   16   15 1
    16   17   16 2
    17   18   17 1
    18   19   18 2
    19   20   19 2
    20   21   17 1
    21   22   21 1
    22   23   22 2
    23   24   22 2
    24   25   15 1
    25   26   25 1
    26   27   26 2
    27   28   27 2
    28    7    8 1
    29   21   25 2
@<TRIPOS>SUBSTRUCTURE
     1 RES1 1

@<TRIPOS>CRYSIN
  14.8551    5.9407   28.6170  90.0000 105.0010  90.0000  15 1

