# MOL2 file generated by ConQuest
# Please check atom types

@<TRIPOS>MOLECULE
IPITOS
    44    46     2
SMALL
NO_CHARGES
****
Generated from CSD

@<TRIPOS>ATOM
      1 O1         1.5439    5.2650    8.1236 O.2       1 RES1    0.0000
      2 O2         3.3298    4.0544    8.3639 O.2       1 RES1    0.0000
      3 N1         2.5212    4.6720    7.6858 N.pl3     1 RES1    0.0000
      4 C1         2.7365    4.7165    6.2736 C.2       1 RES1    0.0000
      5 N2         1.9343    5.3650    5.4433 N.2       1 RES1    0.0000
      6 N3         2.4512    5.1521    4.2474 N.2       1 RES1    0.0000
      7 N4         3.5248    4.3964    4.4529 N.3       1 RES1    0.0000
      8 N5         3.7610    4.0835    5.7050 N.2       1 RES1    0.0000
      9 C2         4.3727    3.8983    3.3717 C.3       1 RES1    0.0000
     10 H1         4.3922    2.9090    3.4064 H         1 RES1    0.0000
     11 H2         5.2973    4.2248    3.5105 H         1 RES1    0.0000
     12 C3         3.8948    4.3325    2.0236 C.3       1 RES1    0.0000
     13 H3         4.3761    3.8144    1.3295 H         1 RES1    0.0000
     14 H4         2.9306    4.1235    1.9435 H         1 RES1    0.0000
     15 N6         4.0949    5.7645    1.7726 N.pl3     1 RES1    0.0000
     16 N7         5.3072    6.3033    1.9648 N.2       1 RES1    0.0000
     17 N8         5.2408    7.5061    1.4603 N.2       1 RES1    0.0000
     18 N9         4.0123    7.7346    0.9450 N.2       1 RES1    0.0000
     19 C4         3.3495    6.6292    1.1132 C.2       1 RES1    0.0000
     20 N10        2.0579    6.4007    0.7341 N.3       1 RES1    0.0000
     21 H5         1.5967    7.0357    0.3364 H         1 RES1    0.0000
     22 H6         1.6855    5.6186    0.8890 H         1 RES1    0.0000
     23 O3        -1.1419    0.7589    8.4200 O.2       2 RES2    0.0000
     24 O4         0.5452    2.0404    8.9005 O.2       2 RES2    0.0000
     25 N11       -0.1584    1.4100    8.1183 N.pl3     2 RES2    0.0000
     26 C5         0.1961    1.4823    6.7274 C.2       2 RES2    0.0000
     27 N12        1.2659    2.1256    6.2950 N.2       2 RES2    0.0000
     28 N13        1.2810    1.9088    4.9975 N.2       2 RES2    0.0000
     29 N14        0.2184    1.1667    4.7306 N.3       2 RES2    0.0000
     30 N15       -0.5021    0.8531    5.8064 N.2       2 RES2    0.0000
     31 C6        -0.0810    0.6169    3.4278 C.3       2 RES2    0.0000
     32 H7        -0.2791   -0.3485    3.5292 H         2 RES2    0.0000
     33 H8         0.7220    0.7002    2.8565 H         2 RES2    0.0000
     34 C7        -1.2375    1.2764    2.7337 C.3       2 RES2    0.0000
     35 H9        -1.5834    0.6711    2.0316 H         2 RES2    0.0000
     36 H10       -1.9644    1.4293    3.3877 H         2 RES2    0.0000
     37 N16       -0.8580    2.5735    2.1170 N.pl3     2 RES2    0.0000
     38 N17        0.4358    3.0097    2.0956 N.2       2 RES2    0.0000
     39 N18        0.3802    4.1415    1.4870 N.2       2 RES2    0.0000
     40 N19       -0.8697    4.4339    1.0732 N.2       2 RES2    0.0000
     41 C8        -1.6070    3.4123    1.4549 C.2       2 RES2    0.0000
     42 N20       -2.9438    3.3072    1.2814 N.3       2 RES2    0.0000
     43 H11       -3.3807    2.6277    1.6311 H         2 RES2    0.0000
     44 H12       -3.3770    3.9189    0.8222 H         2 RES2    0.0000
@<TRIPOS>BOND
     1    1    3 2
     2    2    3 2
     3    3    4 1
     4    4    5 1
     5    5    6 2
     6    6    7 1
     7    7    8 1
     8    8    4 2
     9    9    7 1
    10   10    9 1
    11   11    9 1
    12   12    9 1
    13   13   12 1
    14   14   12 1
    15   15   12 1
    16   16   15 1
    17   17   16 2
    18   18   17 1
    19   19   15 1
    20   20   19 1
    21   21   20 1
    22   22   20 1
    23   23   25 2
    24   24   25 2
    25   25   26 1
    26   26   27 1
    27   27   28 2
    28   28   29 1
    29   29   30 1
    30   30   26 2
    31   31   29 1
    32   32   31 1
    33   33   31 1
    34   34   31 1
    35   35   34 1
    36   36   34 1
    37   37   34 1
    38   38   37 1
    39   39   38 2
    40   40   39 1
    41   41   37 1
    42   42   41 1
    43   43   42 1
    44   44   42 1
    45   18   19 2
    46   40   41 2
@<TRIPOS>SUBSTRUCTURE
     1 RES1 1
     2 RES2 23

@<TRIPOS>CRYSIN
  10.0420    6.4530   27.0400  90.0000  99.1470  90.0000  14 1

