# MOL2 file generated by ConQuest
# Please check atom types

@<TRIPOS>MOLECULE
IPMFCB
    50    50     2
SMALL
NO_CHARGES
****
Generated from CSD

@<TRIPOS>ATOM
      1 O1         1.5382   -3.8967    6.1119 O.3       1 RES1    0.0000
      2 O2         1.6439   -4.0138    8.3877 O.2       1 RES1    0.0000
      3 O3         1.6285   -6.4919    2.9065 O.2       1 RES1    0.0000
      4 O4         0.8344   -8.5760    3.2936 O.3       1 RES1    0.0000
      5 N1         1.4477   -4.6433    7.3354 N.pl3     1 RES1    0.0000
      6 N2         1.2705   -4.7888    5.0699 N.2       1 RES1    0.0000
      7 N3         0.7897   -7.1136    4.9455 N.am      1 RES1    0.0000
      8 C1         1.1582   -5.8907    7.0485 C.2       1 RES1    0.0000
      9 C2         1.0624   -5.9486    5.6385 C.2       1 RES1    0.0000
     10 C3         1.0209   -6.9334    8.0870 C.3       1 RES1    0.0000
     11 C4         1.1326   -7.3196    3.6374 C.2       1 RES1    0.0000
     12 C5         1.1433   -8.9815    1.9250 C.3       1 RES1    0.0000
     13 C6         0.1937  -10.1002    1.5984 C.3       1 RES1    0.0000
     14 C7         2.5844   -9.3986    1.8386 C.3       1 RES1    0.0000
     15 O5         1.1955   -0.5986    2.4607 O.3       2 RES2    0.0000
     16 O6         3.4241   -0.5008    2.8823 O.2       2 RES2    0.0000
     17 O7        -1.8589   -3.3238    2.0494 O.2       2 RES2    0.0000
     18 O8        -1.2215   -5.4749    1.7781 O.3       2 RES2    0.0000
     19 N4         2.4527   -1.2435    2.6888 N.pl3     2 RES2    0.0000
     20 N5         0.2515   -1.6001    2.2637 N.2       2 RES2    0.0000
     21 N6         0.3282   -3.9713    2.1790 N.am      2 RES2    0.0000
     22 C8         2.2804   -2.5450    2.6387 C.2       2 RES2    0.0000
     23 C9         0.9031   -2.7291    2.3622 C.2       2 RES2    0.0000
     24 C10        3.3992   -3.4963    2.7838 C.3       2 RES2    0.0000
     25 C11       -1.0181   -4.1837    2.0114 C.2       2 RES2    0.0000
     26 C12       -2.6085   -5.9293    1.6416 C.3       2 RES2    0.0000
     27 C13       -3.0903   -6.3747    2.9583 C.3       2 RES2    0.0000
     28 C14       -2.5787   -7.0338    0.6013 C.3       2 RES2    0.0000
     29 H1         0.2952   -7.8010    5.3741 H         1 RES1    0.0000
     30 H2         1.5111   -6.7455    8.8646 H         1 RES1    0.0000
     31 H3         0.0263   -7.0287    8.3290 H         1 RES1    0.0000
     32 H4         1.4032   -7.7624    7.7933 H         1 RES1    0.0000
     33 H5         0.9364   -8.2130    1.2614 H         1 RES1    0.0000
     34 H6         0.3620  -10.8262    2.2637 H         1 RES1    0.0000
     35 H7        -0.7094   -9.8092    1.7107 H         1 RES1    0.0000
     36 H8         0.3183  -10.4271    0.6221 H         1 RES1    0.0000
     37 H9         2.6658  -10.2469    2.3846 H         1 RES1    0.0000
     38 H10        2.9011   -9.5646    0.9158 H         1 RES1    0.0000
     39 H11        3.2115   -8.7665    2.2810 H         1 RES1    0.0000
     40 H12        0.8711   -4.7244    2.2118 H         2 RES2    0.0000
     41 H13        4.0866   -3.0638    3.1622 H         2 RES2    0.0000
     42 H14        3.1847   -4.2610    3.4042 H         2 RES2    0.0000
     43 H15        3.7354   -3.7975    1.9181 H         2 RES2    0.0000
     44 H16       -3.2180   -5.1749    1.2614 H         2 RES2    0.0000
     45 H17       -2.4946   -7.1831    3.2659 H         2 RES2    0.0000
     46 H18       -2.9916   -5.6512    3.6288 H         2 RES2    0.0000
     47 H19       -4.0043   -6.6425    2.9549 H         2 RES2    0.0000
     48 H20       -1.9054   -7.7624    0.8294 H         2 RES2    0.0000
     49 H21       -3.5601   -7.4148    0.4838 H         2 RES2    0.0000
     50 H22       -2.2708   -6.6682   -0.2938 H         2 RES2    0.0000
@<TRIPOS>BOND
     1    1    5 1
     2    2    5 1
     3    3   11 2
     4    4   11 1
     5    5    8 2
     6    6    1 1
     7    7    9 1
     8    8    9 1
     9    9    6 2
    10   10    8 1
    11   11    7 1
    12   12    4 1
    13   13   12 1
    14   14   12 1
    15   15   19 1
    16   16   19 1
    17   17   25 2
    18   18   25 1
    19   19   22 2
    20   20   15 1
    21   21   23 1
    22   22   23 1
    23   23   20 2
    24   24   22 1
    25   25   21 1
    26   26   18 1
    27   27   26 1
    28   28   26 1
    29   29    7 1
    30   30   10 1
    31   31   10 1
    32   32   10 1
    33   33   12 1
    34   34   13 1
    35   35   13 1
    36   36   13 1
    37   37   14 1
    38   38   14 1
    39   39   14 1
    40   40   21 1
    41   41   24 1
    42   42   24 1
    43   43   24 1
    44   44   26 1
    45   45   27 1
    46   46   27 1
    47   47   27 1
    48   48   28 1
    49   49   28 1
    50   50   28 1
@<TRIPOS>SUBSTRUCTURE
     1 RES1 1
     2 RES2 15

@<TRIPOS>CRYSIN
   8.9150   12.8730   17.5910  90.0000 100.7900  90.0000  14 1

