# MOL2 file generated by ConQuest
# Please check atom types

@<TRIPOS>MOLECULE
IPOCEV
    39    42     1
SMALL
NO_CHARGES
****
Generated from CSD

@<TRIPOS>ATOM
      1 N1         3.3899    2.0985    6.2107 N.ar      1 RES1    0.0000
      2 N2         5.3330    2.6663    9.1837 N.ar      1 RES1    0.0000
      3 N3         5.3330   -4.4233    9.1837 N.pl3     1 RES1    0.0000
      4 O1         5.3330   -5.7139    9.1837 O.2       1 RES1    0.0000
      5 C1         2.7831    2.8044    5.2514 C.ar      1 RES1    0.0000
      6 H1         2.2729    2.3440    4.6249 H         1 RES1    0.0000
      7 C2         2.8695    4.1770    5.1357 C.ar      1 RES1    0.0000
      8 H2         2.4265    4.6278    4.4535 H         1 RES1    0.0000
      9 C3         3.6303    4.8631    6.0592 C.ar      1 RES1    0.0000
     10 H3         3.7139    5.7883    6.0049 H         1 RES1    0.0000
     11 C4         4.2673    4.1624    7.0670 C.ar      1 RES1    0.0000
     12 H4         4.7837    4.6048    7.7009 H         1 RES1    0.0000
     13 C5         4.1178    2.7814    7.1107 C.ar      1 RES1    0.0000
     14 C6         4.7559    1.9702    8.1906 C.ar      1 RES1    0.0000
     15 C7         4.7440    0.5812    8.1508 C.ar      1 RES1    0.0000
     16 H5         4.3443    0.1375    7.4376 H         1 RES1    0.0000
     17 C8         5.3330   -0.1442    9.1837 C.ar      1 RES1    0.0000
     18 C9         5.3330   -1.6303    9.1837 C.ar      1 RES1    0.0000
     19 C10        4.5521   -2.3734    8.3031 C.ar      1 RES1    0.0000
     20 H6         4.0147   -1.9278    7.6886 H         1 RES1    0.0000
     21 C11        4.5552   -3.7348    8.3170 C.ar      1 RES1    0.0000
     22 H7         4.0136   -4.1995    7.7205 H         1 RES1    0.0000
     23 N1B        7.2761    2.0985   12.1568 N.ar      1 RES1    0.0000
     24 C1B        7.8829    2.8044   13.1161 C.ar      1 RES1    0.0000
     25 H1B        8.3931    2.3440   13.7426 H         1 RES1    0.0000
     26 C2B        7.7965    4.1770   13.2318 C.ar      1 RES1    0.0000
     27 H2B        8.2395    4.6278   13.9140 H         1 RES1    0.0000
     28 C3B        7.0357    4.8631   12.3083 C.ar      1 RES1    0.0000
     29 H3B        6.9521    5.7883   12.3626 H         1 RES1    0.0000
     30 C4B        6.3987    4.1624   11.3005 C.ar      1 RES1    0.0000
     31 H4B        5.8823    4.6048   10.6666 H         1 RES1    0.0000
     32 C5B        6.5482    2.7814   11.2568 C.ar      1 RES1    0.0000
     33 C6B        5.9101    1.9702   10.1769 C.ar      1 RES1    0.0000
     34 C7B        5.9220    0.5812   10.2167 C.ar      1 RES1    0.0000
     35 H5B        6.3217    0.1375   10.9299 H         1 RES1    0.0000
     36 C10B       6.1139   -2.3734   10.0644 C.ar      1 RES1    0.0000
     37 H6B        6.6513   -1.9278   10.6789 H         1 RES1    0.0000
     38 C11B       6.1108   -3.7348   10.0505 C.ar      1 RES1    0.0000
     39 H7B        6.6524   -4.1995   10.6470 H         1 RES1    0.0000
@<TRIPOS>BOND
     1    1    5 ar
     2    2   14 ar
     3    3    4 1
     4    5    6 1
     5    7    5 ar
     6    8    7 1
     7    9    7 ar
     8   10    9 1
     9   11    9 ar
    10   12   11 1
    11   13    1 ar
    12   14   13 1
    13   15   14 ar
    14   16   15 1
    15   17   15 ar
    16   18   17 1
    17   19   18 ar
    18   20   19 1
    19   21    3 ar
    20   22   21 1
    21   23   24 ar
    22   24   25 1
    23   26   24 ar
    24   27   26 1
    25   28   26 ar
    26   29   28 1
    27   30   28 ar
    28   31   30 1
    29   32   23 ar
    30   33    2 ar
    31   34   17 ar
    32   35   34 1
    33   36   18 ar
    34   37   36 1
    35   38    3 ar
    36   39   38 1
    37   11   13 ar
    38   19   21 ar
    39   30   32 ar
    40   32   33 1
    41   33   34 ar
    42   36   38 ar
@<TRIPOS>SUBSTRUCTURE
     1 RES1 1

@<TRIPOS>CRYSIN
  10.6660   12.0640   12.2450  90.0000  90.0000  90.0000  60 1

