# MOL2 file generated by ConQuest
# Please check atom types

@<TRIPOS>MOLECULE
IPOREK
    60    64     1
SMALL
NO_CHARGES
****
Generated from CSD

@<TRIPOS>ATOM
      1 O1         2.8365    5.6454   10.0265 O.3       1 RES1    0.0000
      2 O2         4.3881    4.8810    8.1758 O.3       1 RES1    0.0000
      3 O3        -1.4592    7.1063    7.8247 O.3       1 RES1    0.0000
      4 H1        -2.1893    7.3954    7.5282 H         1 RES1    0.0000
      5 O4        -4.2854    8.4399    5.3486 O.3       1 RES1    0.0000
      6 O5         4.4090    3.8908    0.7151 O.3       1 RES1    0.0000
      7 O6         2.3822    2.8722    1.0534 O.3       1 RES1    0.0000
      8 O7        -1.3573    5.8378    2.4508 O.2       1 RES1    0.0000
      9 O8        -0.1875    7.7079    2.5195 O.3       1 RES1    0.0000
     10 H2        -0.4783    7.7940    1.7359 H         1 RES1    0.0000
     11 N1        -3.1896    7.8307    5.9907 N.2       1 RES1    0.0000
     12 C1        -1.0845    6.8210    5.4759 C.ar      1 RES1    0.0000
     13 C2        -0.1849    6.4056    4.4473 C.ar      1 RES1    0.0000
     14 C3         1.0448    5.8662    4.7339 C.ar      1 RES1    0.0000
     15 C4         1.4700    5.7745    6.0921 C.ar      1 RES1    0.0000
     16 C5         0.6099    6.2173    7.1290 C.ar      1 RES1    0.0000
     17 C6        -0.6726    6.7258    6.7927 C.ar      1 RES1    0.0000
     18 C7         1.0482    6.1733    8.4640 C.ar      1 RES1    0.0000
     19 H3         0.4676    6.4662    9.1564 H         1 RES1    0.0000
     20 C8         2.2939    5.7172    8.7837 C.ar      1 RES1    0.0000
     21 C9         3.1615    5.2790    7.7369 C.ar      1 RES1    0.0000
     22 C10        2.7451    5.2810    6.4515 C.ar      1 RES1    0.0000
     23 H4         3.3210    4.9428    5.7757 H         1 RES1    0.0000
     24 C11        1.9678    5.9197   11.1225 C.3       1 RES1    0.0000
     25 H5         2.4645    5.8347   11.9623 H         1 RES1    0.0000
     26 H6         1.2237    5.2821   11.1159 H         1 RES1    0.0000
     27 H7         1.6171    6.8316   11.0397 H         1 RES1    0.0000
     28 C12        5.3115    4.4524    7.1721 C.3       1 RES1    0.0000
     29 H8         6.1585    4.1970    7.5944 H         1 RES1    0.0000
     30 H9         5.4693    5.1845    6.5393 H         1 RES1    0.0000
     31 H10        4.9402    3.6814    6.6934 H         1 RES1    0.0000
     32 C13        1.9616    5.4059    3.6407 C.ar      1 RES1    0.0000
     33 C14        3.1507    6.0401    3.3724 C.ar      1 RES1    0.0000
     34 H11        3.3768    6.8185    3.8693 H         1 RES1    0.0000
     35 C15        4.0340    5.5835    2.4050 C.ar      1 RES1    0.0000
     36 H12        4.8625    6.0167    2.2328 H         1 RES1    0.0000
     37 C16        3.6434    4.4780    1.7176 C.ar      1 RES1    0.0000
     38 C17        2.5035    3.8563    1.9297 C.ar      1 RES1    0.0000
     39 C18        1.6012    4.2789    2.9003 C.ar      1 RES1    0.0000
     40 H13        0.7812    3.8241    3.0510 H         1 RES1    0.0000
     41 C19        3.6458    2.7987    0.3511 C.3       1 RES1    0.0000
     42 H14        4.1170    1.9609    0.5864 H         1 RES1    0.0000
     43 H15        3.4902    2.8048   -0.6278 H         1 RES1    0.0000
     44 C20       -0.6273    6.6066    3.0212 C.2       1 RES1    0.0000
     45 C21       -5.2055    9.0088    6.3124 C.3       1 RES1    0.0000
     46 H16       -4.7164    9.4464    7.0545 H         1 RES1    0.0000
     47 H17       -5.8024    8.3127    6.6867 H         1 RES1    0.0000
     48 C22       -5.9843   10.0121    5.5157 C.ar      1 RES1    0.0000
     49 C23       -5.5712   11.3263    5.4627 C.ar      1 RES1    0.0000
     50 H18       -4.8538   11.6238    6.0093 H         1 RES1    0.0000
     51 C24       -6.2040   12.2130    4.6080 C.ar      1 RES1    0.0000
     52 H19       -5.9164   13.1178    4.5616 H         1 RES1    0.0000
     53 C25       -7.2531   11.7802    3.8245 C.ar      1 RES1    0.0000
     54 H20       -7.6864   12.3903    3.2398 H         1 RES1    0.0000
     55 C26       -7.6739   10.4883    3.8825 C.ar      1 RES1    0.0000
     56 H21       -8.3942   10.1991    3.3343 H         1 RES1    0.0000
     57 C27       -7.0568    9.5944    4.7355 C.ar      1 RES1    0.0000
     58 H22       -7.3637    8.6972    4.7885 H         1 RES1    0.0000
     59 C28       -2.3558    7.4115    5.1099 C.2       1 RES1    0.0000
     60 H23       -2.5795    7.4913    4.1906 H         1 RES1    0.0000
@<TRIPOS>BOND
     1    1   20 1
     2    2   21 1
     3    3    4 1
     4    5   11 1
     5    6   37 1
     6    7   38 1
     7    8   44 2
     8    9   10 1
     9   11   59 2
    10   12   13 ar
    11   13   14 ar
    12   14   15 ar
    13   15   16 ar
    14   16   17 ar
    15   17    3 1
    16   18   16 ar
    17   19   18 1
    18   20   18 ar
    19   21   20 ar
    20   22   15 ar
    21   23   22 1
    22   24    1 1
    23   25   24 1
    24   26   24 1
    25   27   24 1
    26   28    2 1
    27   29   28 1
    28   30   28 1
    29   31   28 1
    30   32   14 1
    31   33   32 ar
    32   34   33 1
    33   35   33 ar
    34   36   35 1
    35   37   35 ar
    36   38   37 ar
    37   39   32 ar
    38   40   39 1
    39   41    6 1
    40   42   41 1
    41   43   41 1
    42   44    9 1
    43   45    5 1
    44   46   45 1
    45   47   45 1
    46   48   45 1
    47   49   48 ar
    48   50   49 1
    49   51   49 ar
    50   52   51 1
    51   53   51 ar
    52   54   53 1
    53   55   53 ar
    54   56   55 1
    55   57   48 ar
    56   58   57 1
    57   59   12 1
    58   60   59 1
    59    7   41 1
    60   12   17 ar
    61   13   44 1
    62   21   22 ar
    63   38   39 ar
    64   55   57 ar
@<TRIPOS>SUBSTRUCTURE
     1 RES1 1

@<TRIPOS>CRYSIN
   9.0768   10.0200   16.6380  94.5000  90.8600 114.6800   2 1

