# MOL2 file generated by ConQuest
# Please check atom types

@<TRIPOS>MOLECULE
IPOXAZ
    27    28     1
SMALL
NO_CHARGES
****
Generated from CSD

@<TRIPOS>ATOM
      1 C1         2.5551    2.4819   -6.3371 C.ar      1 RES1    0.0000
      2 C2         6.7213    3.3694   -9.3422 C.3       1 RES1    0.0000
      3 C3         2.5631    1.9633   -7.6127 C.ar      1 RES1    0.0000
      4 C4         2.9908    2.7550   -8.6446 C.ar      1 RES1    0.0000
      5 C5         3.4377    4.0582   -8.4110 C.ar      1 RES1    0.0000
      6 C6         3.3994    4.5612   -7.1121 C.ar      1 RES1    0.0000
      7 C7         2.9646    3.7760   -6.0627 C.ar      1 RES1    0.0000
      8 C8         3.8787    4.8811   -9.5699 C.3       1 RES1    0.0000
      9 C9         6.2625    4.7528   -8.9189 C.3       1 RES1    0.0000
     10 C10        7.3868    5.7562   -8.9438 C.3       1 RES1    0.0000
     11 H1         5.9306    2.7589   -9.2327 H         1 RES1    0.0000
     12 H2         7.1488    3.4385  -10.2982 H         1 RES1    0.0000
     13 H3         7.5095    3.0332   -8.7978 H         1 RES1    0.0000
     14 H4         2.2119    1.0484   -7.7295 H         1 RES1    0.0000
     15 H5         3.0831    2.3744   -9.5626 H         1 RES1    0.0000
     16 H6         3.6696    5.4643   -6.9632 H         1 RES1    0.0000
     17 H7         2.9328    4.1429   -5.1972 H         1 RES1    0.0000
     18 H8         3.3333    4.7287  -10.3668 H         1 RES1    0.0000
     19 H9         5.8264    4.6681   -7.9805 H         1 RES1    0.0000
     20 H10        6.9606    6.6261   -8.7467 H         1 RES1    0.0000
     21 H11        7.8053    5.7986   -9.8472 H         1 RES1    0.0000
     22 H12        8.0445    5.5712   -8.2534 H         1 RES1    0.0000
     23 N1         5.2472    5.1542   -9.9012 N.3       1 RES1    0.0000
     24 N2         2.1117    1.6407   -5.2294 N.pl3     1 RES1    0.0000
     25 O1         4.3294    6.1869   -9.3159 O.3       1 RES1    0.0000
     26 O2         2.1443    2.0832   -4.1055 O.2       1 RES1    0.0000
     27 O3         1.6821    0.5271   -5.4818 O.2       1 RES1    0.0000
@<TRIPOS>BOND
     1    1    3 ar
     2    2    9 1
     3    3    4 ar
     4    4    5 ar
     5    5    6 ar
     6    6    7 ar
     7    7    1 ar
     8    8    5 1
     9    9   10 1
    10   10   20 1
    11   11    2 1
    12   12    2 1
    13   13    2 1
    14   14    3 1
    15   15    4 1
    16   16    6 1
    17   17    7 1
    18   18    8 1
    19   19    9 1
    20   21   10 1
    21   22   10 1
    22   23    8 1
    23   24    1 1
    24   25    8 1
    25   26   24 2
    26   27   24 2
    27    9   23 1
    28   23   25 1
@<TRIPOS>SUBSTRUCTURE
     1 RES1 1

@<TRIPOS>CRYSIN
  11.2060    6.5160   14.7570  90.0000  98.5000  90.0000 231 1

