# MOL2 file generated by ConQuest
# Please check atom types

@<TRIPOS>MOLECULE
IPOYUH
    18    19     1
SMALL
USER_CHARGES
****
Generated from CSD

@<TRIPOS>ATOM
      1 O1        -0.0625    1.8697    7.4684 O.3       1 RES1    0.0000
      2 N1         1.2134    2.3025    9.2005 N.2       1 RES1    0.0000
      3 N2         0.0254    0.6745    8.2058 N.2       1 RES1    0.0000
      4 N3         1.5775    4.0495    6.2570 N.2       1 RES1    0.0000
      5 N4         0.9127    3.6997    5.2837 N.1       1 RES1    1.0000
      6 N5         0.4248    3.4019    4.3171 N.2       1 RES1   -1.0000
      7 C1         0.6725    2.7684    8.1241 C.2       1 RES1    0.0000
      8 C2         0.7852    1.0035    9.1976 C.2       1 RES1    0.0000
      9 C3         0.8054    4.1165    7.5170 C.3       1 RES1    0.0000
     10 C2A        1.1531    0.0352   10.2312 C.2       1 RES1    0.0000
     11 N1A        0.7248   -1.2638   10.2283 N.2       1 RES1    0.0000
     12 C1A        1.2658   -1.7297   11.3046 C.2       1 RES1    0.0000
     13 O1A        2.0008   -0.8310   11.9604 O.3       1 RES1    0.0000
     14 N2A        1.9129    0.3642   11.2230 N.2       1 RES1    0.0000
     15 C3A        1.1328   -3.0778   11.9118 C.3       1 RES1    0.0000
     16 N3A        0.3608   -3.0108   13.1717 N.2       1 RES1    0.0000
     17 N4A        1.0256   -2.6610   14.1451 N.1       1 RES1    1.0000
     18 N5A        1.5134   -2.3632   15.1117 N.2       1 RES1   -1.0000
@<TRIPOS>BOND
     1    1    3 1
     2    2    7 2
     3    3    8 2
     4    4    5 2
     5    5    6 2
     6    7    1 1
     7    8    2 1
     8    9    4 1
     9   10    8 1
    10   11   10 1
    11   12   11 2
    12   13   12 1
    13   14   10 2
    14   15   12 1
    15   16   15 1
    16   17   16 2
    17   18   17 2
    18    7    9 1
    19   13   14 1
@<TRIPOS>SUBSTRUCTURE
     1 RES1 1

@<TRIPOS>CRYSIN
   3.9580    6.7150   10.0900 104.9000  90.8000 105.0000   2 1

