# MOL2 file generated by ConQuest
# Please check atom types

@<TRIPOS>MOLECULE
IPUNUE
    46    49     1
SMALL
NO_CHARGES
****
Generated from CSD

@<TRIPOS>ATOM
      1 O1        11.4677    0.5276   14.1609 O.2       1 RES1    0.0000
      2 O2         9.0213    1.7957   14.4510 O.3       1 RES1    0.0000
      3 C1        12.4178    2.4052   15.4498 C.2       1 RES1    0.0000
      4 O3         9.7800    4.5921   15.3670 O.3       1 RES1    0.0000
      5 H1        10.3318    4.9490   14.8758 H         1 RES1    0.0000
      6 C2        11.7929    3.4053   16.0849 C.2       1 RES1    0.0000
      7 H2        12.2318    4.0378   16.6075 H         1 RES1    0.0000
      8 C3         7.7242    1.4815   12.4620 C.ar      1 RES1    0.0000
      9 C4        11.3628    1.5953   14.7434 C.2       1 RES1    0.0000
     10 N1        10.2325    2.3097   14.8799 N.am      1 RES1    0.0000
     11 C5         8.2008    2.3927   19.4844 C.ar      1 RES1    0.0000
     12 H3         7.7546    2.1775   20.2706 H         1 RES1    0.0000
     13 C6        10.3019    3.3946   15.8617 C.3       1 RES1    0.0000
     14 C7        13.8570    2.1147   15.3905 C.ar      1 RES1    0.0000
     15 C8         8.7305    3.9732   17.7653 C.ar      1 RES1    0.0000
     16 H4         8.6426    4.8251   17.4031 H         1 RES1    0.0000
     17 C9        14.3444    0.9201   14.8604 C.ar      1 RES1    0.0000
     18 H5        13.7517    0.2863   14.5267 H         1 RES1    0.0000
     19 C10        9.6636    1.7844   17.7012 C.ar      1 RES1    0.0000
     20 H6        10.2017    1.1477   17.2892 H         1 RES1    0.0000
     21 C11        9.5341    3.0336   17.1396 C.ar      1 RES1    0.0000
     22 C12       15.7047    0.6711   14.8284 C.ar      1 RES1    0.0000
     23 H7        16.0192   -0.1322   14.4824 H         1 RES1    0.0000
     24 C13        6.4128    1.8597   12.2492 C.ar      1 RES1    0.0000
     25 H8         6.1004    2.6725   12.5747 H         1 RES1    0.0000
     26 C14        9.0013    1.4667   18.8732 C.ar      1 RES1    0.0000
     27 H9         9.1010    0.6207   19.2472 H         1 RES1    0.0000
     28 C15        8.0590    3.6418   18.9319 C.ar      1 RES1    0.0000
     29 H10        7.5088    4.2696   19.3434 H         1 RES1    0.0000
     30 C16        7.3093   -0.5697   11.2850 C.ar      1 RES1    0.0000
     31 H11        7.6183   -1.3843   10.9612 H         1 RES1    0.0000
     32 C17       16.5917    1.5995   15.3031 C.ar      1 RES1    0.0000
     33 H12       17.5061    1.4282   15.2795 H         1 RES1    0.0000
     34 C18        5.5643    1.0114   11.5409 C.ar      1 RES1    0.0000
     35 H13        4.6837    1.2663   11.3871 H         1 RES1    0.0000
     36 C19        8.1513    0.2608   11.9839 C.ar      1 RES1    0.0000
     37 H14        9.0287   -0.0059   12.1384 H         1 RES1    0.0000
     38 C20        8.6857    2.3951   13.1692 C.3       1 RES1    0.0000
     39 H15        9.4872    2.5113   12.6353 H         1 RES1    0.0000
     40 H16        8.2791    3.2654   13.3052 H         1 RES1    0.0000
     41 C21       14.7708    3.0436   15.8562 C.ar      1 RES1    0.0000
     42 H17       14.4683    3.8529   16.2023 H         1 RES1    0.0000
     43 C22       16.1252    2.7828   15.8163 C.ar      1 RES1    0.0000
     44 H18       16.7276    3.4148   16.1387 H         1 RES1    0.0000
     45 C23        6.0120   -0.1915   11.0692 C.ar      1 RES1    0.0000
     46 H19        5.4354   -0.7517   10.6004 H         1 RES1    0.0000
@<TRIPOS>BOND
     1    1    9 2
     2    2   10 1
     3    3    6 2
     4    4    5 1
     5    6    7 1
     6    8   24 ar
     7    9    3 1
     8   10    9 1
     9   11   12 1
    10   13    4 1
    11   14    3 1
    12   15   16 1
    13   17   14 ar
    14   18   17 1
    15   19   20 1
    16   21   13 1
    17   22   17 ar
    18   23   22 1
    19   24   25 1
    20   26   11 ar
    21   27   26 1
    22   28   11 ar
    23   29   28 1
    24   30   31 1
    25   32   22 ar
    26   33   32 1
    27   34   24 ar
    28   35   34 1
    29   36    8 ar
    30   37   36 1
    31   38    2 1
    32   39   38 1
    33   40   38 1
    34   41   14 ar
    35   42   41 1
    36   43   32 ar
    37   44   43 1
    38   45   30 ar
    39   46   45 1
    40    6   13 1
    41    8   38 1
    42   10   13 1
    43   15   21 ar
    44   15   28 ar
    45   19   21 ar
    46   19   26 ar
    47   30   36 ar
    48   34   45 ar
    49   41   43 ar
@<TRIPOS>SUBSTRUCTURE
     1 RES1 1

@<TRIPOS>CRYSIN
  20.6513    5.9284   14.7885  90.0000  90.0000  90.0000  29 1

