# MOL2 file generated by ConQuest
# Please check atom types

@<TRIPOS>MOLECULE
IPUNOY
    39    41     1
SMALL
NO_CHARGES
****
Generated from CSD

@<TRIPOS>ATOM
      1 O1         4.5990  -10.1946    1.9320 O.3       1 RES1    0.0000
      2 O2         4.2290   -6.8631    1.5922 O.2       1 RES1    0.0000
      3 O3         1.6033  -10.6743    2.3492 O.2       1 RES1    0.0000
      4 N1         3.5653   -9.3992    2.4096 N.am      1 RES1    0.0000
      5 C1         3.6663   -8.3036    3.3845 C.3       1 RES1    0.0000
      6 H1         4.1819   -8.5546    4.1792 H         1 RES1    0.0000
      7 C2         4.1133   -6.9801    2.7984 C.2       1 RES1    0.0000
      8 C3         4.2427   -5.9321    5.0957 C.ar      1 RES1    0.0000
      9 H2         3.9585   -6.7291    5.4826 H         1 RES1    0.0000
     10 C4         4.3712   -5.8381    3.7177 C.ar      1 RES1    0.0000
     11 C5         4.9773   -3.6697    5.3373 C.ar      1 RES1    0.0000
     12 H3         5.1881   -2.9467    5.8828 H         1 RES1    0.0000
     13 C6         1.6203   -8.7971    4.9815 C.3       1 RES1    0.0000
     14 H4         2.2091   -9.4230    5.4100 H         1 RES1    0.0000
     15 H5         0.7377   -9.1707    4.9324 H         1 RES1    0.0000
     16 H6         1.5959   -7.9828    5.4883 H         1 RES1    0.0000
     17 C7         5.6422  -11.9046   -0.6493 C.ar      1 RES1    0.0000
     18 H7         4.7543  -12.0652   -0.8730 H         1 RES1    0.0000
     19 C8         4.5368   -4.8444    5.8941 C.ar      1 RES1    0.0000
     20 H8         4.4348   -4.9081    6.8163 H         1 RES1    0.0000
     21 C9         2.1245   -8.5058    3.5818 C.3       1 RES1    0.0000
     22 H9         1.6057   -7.7975    3.1467 H         1 RES1    0.0000
     23 C10        5.9666  -10.7848    0.0963 C.ar      1 RES1    0.0000
     24 C11        8.2816  -11.4377   -0.0123 C.ar      1 RES1    0.0000
     25 H10        9.1750  -11.2845    0.1963 H         1 RES1    0.0000
     26 C12        4.7959   -4.6354    3.1665 C.ar      1 RES1    0.0000
     27 H11        4.8702   -4.5532    2.2425 H         1 RES1    0.0000
     28 C13        5.1069   -3.5641    3.9706 C.ar      1 RES1    0.0000
     29 H12        5.4049   -2.7687    3.5922 H         1 RES1    0.0000
     30 C14        7.9167  -12.5478   -0.7532 C.ar      1 RES1    0.0000
     31 H13        8.5731  -13.1410   -1.0410 H         1 RES1    0.0000
     32 C15        4.8879   -9.8465    0.5550 C.3       1 RES1    0.0000
     33 H14        5.1907   -8.9270    0.4946 H         1 RES1    0.0000
     34 H15        4.0950   -9.9485    0.0057 H         1 RES1    0.0000
     35 C16        7.3037  -10.5597    0.4143 C.ar      1 RES1    0.0000
     36 H16        7.5408   -9.8140    0.9174 H         1 RES1    0.0000
     37 C17        6.6187  -12.7867   -1.0656 C.ar      1 RES1    0.0000
     38 H17        6.3875  -13.5408   -1.5582 H         1 RES1    0.0000
     39 C18        2.2797   -9.7444    2.6738 C.2       1 RES1    0.0000
@<TRIPOS>BOND
     1    1    4 1
     2    2    7 2
     3    3   39 2
     4    4    5 1
     5    5    6 1
     6    7    5 1
     7    8    9 1
     8   10    7 1
     9   11   12 1
    10   13   14 1
    11   15   13 1
    12   16   13 1
    13   17   18 1
    14   19    8 ar
    15   20   19 1
    16   21    5 1
    17   22   21 1
    18   23   17 ar
    19   24   25 1
    20   26   10 ar
    21   27   26 1
    22   28   11 ar
    23   29   28 1
    24   30   24 ar
    25   31   30 1
    26   32    1 1
    27   33   32 1
    28   34   32 1
    29   35   23 ar
    30   36   35 1
    31   37   17 ar
    32   38   37 1
    33   39    4 1
    34    8   10 ar
    35   11   19 ar
    36   13   21 1
    37   21   39 1
    38   23   32 1
    39   24   35 ar
    40   26   28 ar
    41   30   37 ar
@<TRIPOS>SUBSTRUCTURE
     1 RES1 1

@<TRIPOS>CRYSIN
   9.2442    9.4365   10.1285 109.0290  92.1630 110.0610   2 1

