# MOL2 file generated by ConQuest
# Please check atom types

@<TRIPOS>MOLECULE
IPUPOZ
    17    18     1
SMALL
USER_CHARGES
****
Generated from CSD

@<TRIPOS>ATOM
      1 C1         0.6952   -0.3076    2.9375 C.2       1 RES1    0.0000
      2 N1        -0.2990   -0.6906    3.7374 N.pl3     1 RES1    1.0000
      3 N2        -0.2074    1.6027    3.7547 N.2       1 RES1    0.0000
      4 O1        -0.7611   -1.7593    4.0923 O.2       1 RES1   -1.0000
      5 O2        -0.8787    0.5108    4.2462 O.3       1 RES1    0.0000
      6 C2         0.7333    1.0988    2.9777 C.2       1 RES1    0.0000
      7 C3         1.7556    1.7261    2.2129 C.2       1 RES1    0.0000
      8 N3         1.8776    3.1788    2.2187 N.pl3     1 RES1    0.0000
      9 O3         1.0183    3.8027    2.8126 O.2       1 RES1    0.0000
     10 O4         2.8222    3.6834    1.6480 O.2       1 RES1    0.0000
     11 C4         2.6173    0.9846    1.4981 C.2       1 RES1    0.0000
     12 H1         3.2856    1.4058    1.0070 H         1 RES1    0.0000
     13 C5         2.5235   -0.4425    1.4810 C.2       1 RES1    0.0000
     14 C6         1.5731   -1.1039    2.1935 C.2       1 RES1    0.0000
     15 H2         1.5104   -2.0317    2.1868 H         1 RES1    0.0000
     16 C7         3.5032   -1.1661    0.7224 C.1       1 RES1    0.0000
     17 N4         4.3125   -1.7212    0.1566 N.1       1 RES1    0.0000
@<TRIPOS>BOND
     1    1    2 2
     2    2    4 1
     3    3    5 1
     4    5    2 1
     5    6    1 1
     6    7    6 1
     7    8    7 1
     8    9    8 2
     9   10    8 2
    10   11    7 2
    11   12   11 1
    12   13   11 1
    13   14    1 1
    14   15   14 1
    15   16   13 1
    16   17   16 3
    17    3    6 2
    18   13   14 2
@<TRIPOS>SUBSTRUCTURE
     1 RES1 1

@<TRIPOS>CRYSIN
   9.8632    8.1924   10.8000  90.0000 111.4840  90.0000  14 1

