# MOL2 file generated by ConQuest
# Please check atom types

@<TRIPOS>MOLECULE
IPUTET
    52    50     2
SMALL
NO_CHARGES
****
Generated from CSD

@<TRIPOS>ATOM
      1 O1         2.0201    2.1858    7.9293 O.2       1 RES1    0.0000
      2 O2         0.5691    1.0769    6.7900 O.2       1 RES1    0.0000
      3 O3         2.6972   -2.0120    6.8432 O.2       1 RES1    0.0000
      4 O4         4.5149   -0.8108    6.4467 O.3       1 RES1    0.0000
      5 O5         5.4742    0.8152    3.4647 O.2       1 RES1    0.0000
      6 O6         6.7726   -1.5167    4.8301 O.2       1 RES1    0.0000
      7 O7         8.5063   -0.6325    5.9766 O.3       1 RES1    0.0000
      8 N1         1.6880    1.5318    6.9551 N.pl3     1 RES1    0.0000
      9 C1         4.1350    1.5724    6.3235 C.3       1 RES1    0.0000
     10 H1         4.1314    1.4974    7.3205 H         1 RES1    0.0000
     11 C2         2.6934    1.2978    5.8462 C.3       1 RES1    0.0000
     12 H2         2.4865    1.9347    5.1028 H         1 RES1    0.0000
     13 C3         2.5480   -0.1316    5.3020 C.3       1 RES1    0.0000
     14 H3         1.5877   -0.3666    5.1507 H         1 RES1    0.0000
     15 C4         3.3543   -0.1996    3.9898 C.3       1 RES1    0.0000
     16 H4         3.4050   -1.1337    3.6674 H         1 RES1    0.0000
     17 H5         2.9188    0.3510    3.2912 H         1 RES1    0.0000
     18 C5         4.7383    0.3279    4.2823 C.2       1 RES1    0.0000
     19 C6         5.0123    0.3932    5.7804 C.3       1 RES1    0.0000
     20 C7         3.2026   -1.0885    6.2816 C.2       1 RES1    0.0000
     21 C8         6.4739    0.4839    6.1333 C.3       1 RES1    0.0000
     22 H6         6.5747    0.4954    7.1178 H         1 RES1    0.0000
     23 H7         6.8460    1.3304    5.7781 H         1 RES1    0.0000
     24 C9         7.2529   -0.6878    5.5609 C.2       1 RES1    0.0000
     25 C10        9.4779   -1.6828    5.5813 C.3       1 RES1    0.0000
     26 C11        9.0449   -2.9962    6.1656 C.3       1 RES1    0.0000
     27 H8         8.9100   -2.8957    7.1315 H         1 RES1    0.0000
     28 H9         9.7353   -3.6713    5.9999 H         1 RES1    0.0000
     29 H10        8.2049   -3.2793    5.7475 H         1 RES1    0.0000
     30 C12       10.7061   -1.2738    6.4539 C.3       1 RES1    0.0000
     31 H11       11.0428   -0.4020    6.1584 H         1 RES1    0.0000
     32 H12       11.4146   -1.9461    6.3570 H         1 RES1    0.0000
     33 H13       10.4356   -1.2186    7.3941 H         1 RES1    0.0000
     34 C13        9.6340   -1.7210    4.0897 C.3       1 RES1    0.0000
     35 H14        8.8030   -2.0451    3.6824 H         1 RES1    0.0000
     36 H15       10.3694   -2.3240    3.8540 H         1 RES1    0.0000
     37 H16        9.8301   -0.8209    3.7583 H         1 RES1    0.0000
     38 C14        4.6881    2.9450    5.9850 C.ar      1 RES1    0.0000
     39 C15        4.4338    3.5949    4.7846 C.ar      1 RES1    0.0000
     40 H17        3.8593    3.1915    4.1435 H         1 RES1    0.0000
     41 C16        5.0107    4.8319    4.5125 C.ar      1 RES1    0.0000
     42 H18        4.8244    5.2735    3.6931 H         1 RES1    0.0000
     43 C17        5.8572    5.4178    5.4359 C.ar      1 RES1    0.0000
     44 H19        6.2625    6.2557    5.2446 H         1 RES1    0.0000
     45 C18        6.1163    4.7852    6.6345 C.ar      1 RES1    0.0000
     46 H20        6.6940    5.1914    7.2697 H         1 RES1    0.0000
     47 C19        5.5312    3.5595    6.9132 C.ar      1 RES1    0.0000
     48 H21        5.7061    3.1321    7.7433 H         1 RES1    0.0000
     49 C20       10.8074   -1.0360    5.8193 Du        2 SUP2    0.0000
     50 H22       10.8450   -0.1812    5.3438 Du        2 SUP2    0.0000
     51 H23       11.5200   -1.6248    5.4952 Du        2 SUP2    0.0000
     52 H24       10.9267   -0.8803    6.7810 Du        2 SUP2    0.0000
@<TRIPOS>BOND
     1    1    8 2
     2    2    8 2
     3    3   20 2
     4    4   19 1
     5    5   18 2
     6    6   24 2
     7    7   24 1
     8    8   11 1
     9    9   10 1
    10   11    9 1
    11   12   11 1
    12   13   11 1
    13   14   13 1
    14   15   13 1
    15   16   15 1
    16   17   15 1
    17   18   15 1
    18   19    9 1
    19   20    4 1
    20   21   19 1
    21   22   21 1
    22   23   21 1
    23   24   21 1
    24   25    7 1
    25   26   25 1
    26   27   26 1
    27   28   26 1
    28   29   26 1
    29   30   25 1
    30   31   30 1
    31   32   30 1
    32   33   30 1
    33   34   25 1
    34   35   34 1
    35   36   34 1
    36   37   34 1
    37   38    9 1
    38   39   38 ar
    39   40   39 1
    40   41   39 ar
    41   42   41 1
    42   43   41 ar
    43   44   43 1
    44   45   43 ar
    45   46   45 1
    46   47   38 ar
    47   48   47 1
    48   13   20 1
    49   18   19 1
    50   45   47 ar
@<TRIPOS>SUBSTRUCTURE
     1 RES1 1
     2 SUP2 49

@<TRIPOS>CRYSIN
  16.3427   16.3427    5.9808  90.0000  90.0000 120.0000 145 1

