# MOL2 file generated by ConQuest
# Please check atom types

@<TRIPOS>MOLECULE
IQADIN
    58    61     1
SMALL
NO_CHARGES
****
Generated from CSD

@<TRIPOS>ATOM
      1 O1        -2.9428   -0.3886   13.1442 O.3       1 RES1    0.0000
      2 H1        -3.5066   -0.5504   13.7441 H         1 RES1    0.0000
      3 O2        -0.8241    1.3268    7.3048 O.3       1 RES1    0.0000
      4 O3         6.4833   -0.1447    5.4106 O.3       1 RES1    0.0000
      5 O4         7.2377    4.7881    0.9468 O.3       1 RES1    0.0000
      6 N1        -1.3676    0.8819    8.5346 N.2       1 RES1    0.0000
      7 N2         5.2236    0.5038    5.4227 N.2       1 RES1    0.0000
      8 N3         7.0580    3.8029    1.9542 N.2       1 RES1    0.0000
      9 C1        -3.5877   -0.0064   12.0087 C.ar      1 RES1    0.0000
     10 C2        -4.9767    0.0378   11.9158 C.ar      1 RES1    0.0000
     11 H2        -5.5136   -0.2290   12.6535 H         1 RES1    0.0000
     12 C3        -5.5682    0.4716   10.7500 C.ar      1 RES1    0.0000
     13 H3        -6.5160    0.5134   10.6921 H         1 RES1    0.0000
     14 C4        -4.7980    0.8468    9.6628 C.ar      1 RES1    0.0000
     15 H4        -5.2157    1.1594    8.8696 H         1 RES1    0.0000
     16 C5        -3.4097    0.7649    9.7357 C.ar      1 RES1    0.0000
     17 C6        -2.8078    0.3463   10.9192 C.ar      1 RES1    0.0000
     18 H5        -1.8608    0.3021   10.9785 H         1 RES1    0.0000
     19 C7        -2.6136    1.1023    8.5575 C.2       1 RES1    0.0000
     20 H6        -3.0357    1.4912    7.7992 H         1 RES1    0.0000
     21 C8         0.4976    0.9738    7.1527 C.ar      1 RES1    0.0000
     22 C9         1.1778    0.1205    8.0046 C.ar      1 RES1    0.0000
     23 H7         0.7547   -0.2426    8.7741 H         1 RES1    0.0000
     24 C10        2.4949   -0.1888    7.7009 C.ar      1 RES1    0.0000
     25 H8         2.9756   -0.7777    8.2708 H         1 RES1    0.0000
     26 C11        3.1309    0.3407    6.5813 C.ar      1 RES1    0.0000
     27 C12        2.4230    1.2052    5.7496 C.ar      1 RES1    0.0000
     28 H9         2.8436    1.5764    4.9845 H         1 RES1    0.0000
     29 C13        1.1159    1.5218    6.0360 C.ar      1 RES1    0.0000
     30 H10        0.6359    2.1147    5.4705 H         1 RES1    0.0000
     31 C14        4.5093   -0.0546    6.3236 C.2       1 RES1    0.0000
     32 H11        4.8904   -0.7528    6.8446 H         1 RES1    0.0000
     33 C15        7.3738    0.3656    4.4956 C.ar      1 RES1    0.0000
     34 C16        7.1788    1.4944    3.7266 C.ar      1 RES1    0.0000
     35 H12        6.3702    1.9894    3.7868 H         1 RES1    0.0000
     36 C17        8.2031    1.8921    2.8547 C.ar      1 RES1    0.0000
     37 C18        9.3914    1.1722    2.7919 C.ar      1 RES1    0.0000
     38 H13       10.0911    1.4575    2.2160 H         1 RES1    0.0000
     39 C19        9.5522    0.0410    3.5675 C.ar      1 RES1    0.0000
     40 H14       10.3597   -0.4572    3.5149 H         1 RES1    0.0000
     41 C20        8.5494   -0.3696    4.4160 C.ar      1 RES1    0.0000
     42 H15        8.6606   -1.1514    4.9440 H         1 RES1    0.0000
     43 C21        8.0813    3.0451    1.9663 C.2       1 RES1    0.0000
     44 H16        8.7961    3.2371    1.3712 H         1 RES1    0.0000
     45 C22        6.3048    5.8645    1.1172 C.3       1 RES1    0.0000
     46 H17        6.4138    6.2847    2.0077 H         1 RES1    0.0000
     47 H18        5.3736    5.5382    1.0299 H         1 RES1    0.0000
     48 C23        6.6297    6.8399    0.0263 C.ar      1 RES1    0.0000
     49 C24        5.8344    6.9491   -1.1028 C.ar      1 RES1    0.0000
     50 H19        5.0424    6.4301   -1.1745 H         1 RES1    0.0000
     51 C25        6.1851    7.8080   -2.1263 C.ar      1 RES1    0.0000
     52 H20        5.6388    7.8691   -2.9016 H         1 RES1    0.0000
     53 C26        7.3169    8.5705   -2.0279 C.ar      1 RES1    0.0000
     54 H21        7.5613    9.1538   -2.7367 H         1 RES1    0.0000
     55 C27        8.1018    8.4878   -0.8954 C.ar      1 RES1    0.0000
     56 H22        8.8777    9.0309   -0.8158 H         1 RES1    0.0000
     57 C28        7.7613    7.6192    0.1186 C.ar      1 RES1    0.0000
     58 H23        8.3134    7.5573    0.8881 H         1 RES1    0.0000
@<TRIPOS>BOND
     1    1    2 1
     2    3    6 1
     3    4    7 1
     4    5    8 1
     5    6   19 2
     6    7   31 2
     7    8   43 2
     8    9    1 1
     9   10    9 ar
    10   11   10 1
    11   12   10 ar
    12   13   12 1
    13   14   12 ar
    14   15   14 1
    15   16   14 ar
    16   17    9 ar
    17   18   17 1
    18   19   16 1
    19   20   19 1
    20   21    3 1
    21   22   21 ar
    22   23   22 1
    23   24   22 ar
    24   25   24 1
    25   26   24 ar
    26   27   26 ar
    27   28   27 1
    28   29   21 ar
    29   30   29 1
    30   31   26 1
    31   32   31 1
    32   33    4 1
    33   34   33 ar
    34   35   34 1
    35   36   34 ar
    36   37   36 ar
    37   38   37 1
    38   39   37 ar
    39   40   39 1
    40   41   33 ar
    41   42   41 1
    42   43   36 1
    43   44   43 1
    44   45    5 1
    45   46   45 1
    46   47   45 1
    47   48   45 1
    48   49   48 ar
    49   50   49 1
    50   51   49 ar
    51   52   51 1
    52   53   51 ar
    53   54   53 1
    54   55   53 ar
    55   56   55 1
    56   57   48 ar
    57   58   57 1
    58   16   17 ar
    59   27   29 ar
    60   39   41 ar
    61   55   57 ar
@<TRIPOS>SUBSTRUCTURE
     1 RES1 1

@<TRIPOS>CRYSIN
  10.1436    8.0346   29.1220  90.0000  96.6010  90.0000  14 1

