# MOL2 file generated by ConQuest
# Please check atom types

@<TRIPOS>MOLECULE
IQADOT
    70    73     1
SMALL
NO_CHARGES
****
Generated from CSD

@<TRIPOS>ATOM
      1 O1        14.7587    4.1892    6.1620 O.3       1 RES1    0.0000
      2 H1        14.8089    4.7274    5.5187 H         1 RES1    0.0000
      3 O2         8.2378    0.2973    4.8833 O.3       1 RES1    0.0000
      4 O3         1.2329    1.4977    1.9024 O.3       1 RES1    0.0000
      5 O4        -4.9896   -2.8188    0.3731 O.3       1 RES1    0.0000
      6 O5        13.1125    4.7168    4.1686 O.3       1 RES1    0.0000
      7 O6        -0.0045    3.5512    1.0878 O.2       1 RES1    0.0000
      8 O7        -1.8447    3.3328    0.1079 O.2       1 RES1    0.0000
      9 N1         9.2139    1.3443    4.8161 N.2       1 RES1    0.0000
     10 N2         2.3274    0.7288    2.4492 N.2       1 RES1    0.0000
     11 N3        -3.7097   -2.4851    0.8323 N.2       1 RES1    0.0000
     12 N4        -0.9470    2.8660    0.7740 N.pl3     1 RES1    0.0000
     13 C1        13.5987    3.4793    6.0714 C.ar      1 RES1    0.0000
     14 C2        13.3257    2.5053    6.9919 C.ar      1 RES1    0.0000
     15 H2        13.9383    2.3339    7.6979 H         1 RES1    0.0000
     16 C3        12.1508    1.7638    6.8960 C.ar      1 RES1    0.0000
     17 H3        11.9615    1.0913    7.5397 H         1 RES1    0.0000
     18 C4        11.2573    2.0039    5.8646 C.ar      1 RES1    0.0000
     19 C5        11.5315    3.0101    4.9322 C.ar      1 RES1    0.0000
     20 H4        10.9176    3.1858    4.2285 H         1 RES1    0.0000
     21 C6        12.6910    3.7455    5.0343 C.ar      1 RES1    0.0000
     22 C7        10.0726    1.1509    5.7380 C.2       1 RES1    0.0000
     23 H5         9.9425    0.4399    6.3551 H         1 RES1    0.0000
     24 C8         7.0630    0.6410    4.2457 C.ar      1 RES1    0.0000
     25 C9         6.7515    1.9341    3.8821 C.ar      1 RES1    0.0000
     26 H6         7.3706    2.6390    4.0323 H         1 RES1    0.0000
     27 C10        5.5233    2.1905    3.2932 C.ar      1 RES1    0.0000
     28 H7         5.3011    3.0765    3.0316 H         1 RES1    0.0000
     29 C11        4.6135    1.1612    3.0821 C.ar      1 RES1    0.0000
     30 C12        4.9615   -0.1390    3.4400 C.ar      1 RES1    0.0000
     31 H8         4.3453   -0.8430    3.2769 H         1 RES1    0.0000
     32 C13        6.1872   -0.4346    4.0290 C.ar      1 RES1    0.0000
     33 C14        3.3093    1.5307    2.5289 C.2       1 RES1    0.0000
     34 H9         3.1906    2.4181    2.2124 H         1 RES1    0.0000
     35 C15        0.1051    0.7832    1.6798 C.ar      1 RES1    0.0000
     36 C16       -0.0306   -0.5793    1.9297 C.ar      1 RES1    0.0000
     37 H10        0.6972   -1.0605    2.3044 H         1 RES1    0.0000
     38 C17       -1.1948   -1.2349    1.6438 C.ar      1 RES1    0.0000
     39 H11       -1.2587   -2.1656    1.8212 H         1 RES1    0.0000
     40 C18       -2.2959   -0.5642    1.0950 C.ar      1 RES1    0.0000
     41 C19       -2.1786    0.7914    0.8368 C.ar      1 RES1    0.0000
     42 H12       -2.9075    1.2677    0.4574 H         1 RES1    0.0000
     43 C20       -0.9960    1.4544    1.1323 C.ar      1 RES1    0.0000
     44 C21       -3.5488   -1.2195    0.7350 C.2       1 RES1    0.0000
     45 H13       -4.2693   -0.6882    0.4170 H         1 RES1    0.0000
     46 C22       -5.2036   -4.2264    0.5862 C.3       1 RES1    0.0000
     47 H14       -4.4170   -4.7268    0.2526 H         1 RES1    0.0000
     48 H15       -5.9908   -4.5171    0.0613 H         1 RES1    0.0000
     49 C23       -5.4244   -4.5709    2.0272 C.ar      1 RES1    0.0000
     50 C24       -4.5241   -5.3429    2.7299 C.ar      1 RES1    0.0000
     51 H16       -3.7407   -5.6488    2.2896 H         1 RES1    0.0000
     52 C25       -4.7207   -5.6756    4.0188 C.ar      1 RES1    0.0000
     53 H17       -4.0830   -6.2145    4.4738 H         1 RES1    0.0000
     54 C26       -5.8374   -5.2396    4.6749 C.ar      1 RES1    0.0000
     55 H18       -5.9785   -5.4879    5.5812 H         1 RES1    0.0000
     56 C27       -6.7572   -4.4476    4.0384 C.ar      1 RES1    0.0000
     57 H19       -7.5226   -4.1291    4.5032 H         1 RES1    0.0000
     58 C28       -6.5541   -4.1136    2.6919 C.ar      1 RES1    0.0000
     59 H20       -7.1889   -3.5736    2.2357 H         1 RES1    0.0000
     60 C29       12.1710    5.1708    3.1837 C.3       1 RES1    0.0000
     61 H21       11.3879    5.5832    3.6276 H         1 RES1    0.0000
     62 H22       11.8560    4.4072    2.6379 H         1 RES1    0.0000
     63 C30       12.8589    6.1761    2.3142 C.3       1 RES1    0.0000
     64 H23       13.6429    5.7641    1.8947 H         1 RES1    0.0000
     65 H24       13.1438    6.9396    2.8587 H         1 RES1    0.0000
     66 H25       12.2401    6.4835    1.6188 H         1 RES1    0.0000
     67 C31        6.5587   -1.8312    4.4162 C.3       1 RES1    0.0000
     68 H26        6.8201   -1.8497    5.3605 H         1 RES1    0.0000
     69 H27        7.3090   -2.1349    3.8643 H         1 RES1    0.0000
     70 H28        5.7903   -2.4239    4.2788 H         1 RES1    0.0000
@<TRIPOS>BOND
     1    1    2 1
     2    3    9 1
     3    4   10 1
     4    5   11 1
     5    6   21 1
     6    7   12 2
     7    8   12 2
     8    9   22 2
     9   10   33 2
    10   11   44 2
    11   12   43 1
    12   13    1 1
    13   14   13 ar
    14   15   14 1
    15   16   14 ar
    16   17   16 1
    17   18   16 ar
    18   19   18 ar
    19   20   19 1
    20   21   13 ar
    21   22   18 1
    22   23   22 1
    23   24    3 1
    24   25   24 ar
    25   26   25 1
    26   27   25 ar
    27   28   27 1
    28   29   27 ar
    29   30   29 ar
    30   31   30 1
    31   32   24 ar
    32   33   29 1
    33   34   33 1
    34   35    4 1
    35   36   35 ar
    36   37   36 1
    37   38   36 ar
    38   39   38 1
    39   40   38 ar
    40   41   40 ar
    41   42   41 1
    42   43   35 ar
    43   44   40 1
    44   45   44 1
    45   46    5 1
    46   47   46 1
    47   48   46 1
    48   49   46 1
    49   50   49 ar
    50   51   50 1
    51   52   50 ar
    52   53   52 1
    53   54   52 ar
    54   55   54 1
    55   56   54 ar
    56   57   56 1
    57   58   49 ar
    58   59   58 1
    59   60    6 1
    60   61   60 1
    61   62   60 1
    62   63   60 1
    63   64   63 1
    64   65   63 1
    65   66   63 1
    66   67   32 1
    67   68   67 1
    68   69   67 1
    69   70   67 1
    70   19   21 ar
    71   30   32 ar
    72   41   43 ar
    73   56   58 ar
@<TRIPOS>SUBSTRUCTURE
     1 RES1 1

@<TRIPOS>CRYSIN
  10.2388   11.3897   12.7626  85.4660  73.9570  76.8340   2 1

