# MOL2 file generated by ConQuest
# Please check atom types

@<TRIPOS>MOLECULE
IQAYIJ
    55    57     1
SMALL
NO_CHARGES
****
Generated from CSD

@<TRIPOS>ATOM
      1 O1        11.7149    2.7157   -0.0363 O.2       1 RES1    0.0000
      2 O2        10.9384    3.8609    1.6043 O.2       1 RES1    0.0000
      3 O3         4.9418    0.9682    6.4903 O.3       1 RES1    0.0000
      4 N1        10.7973    3.1439    0.6219 N.pl3     1 RES1    0.0000
      5 N2         8.4266    2.6632    2.4844 N.pl3     1 RES1    0.0000
      6 H1         9.0141    3.2934    2.7623 H         1 RES1    0.0000
      7 C1         6.7621    3.1593   -1.5603 C.ar      1 RES1    0.0000
      8 H2         7.4235    2.9075   -2.1944 H         1 RES1    0.0000
      9 C2         5.4213    2.9409   -1.8446 C.ar      1 RES1    0.0000
     10 H3         5.1708    2.5478   -2.6720 H         1 RES1    0.0000
     11 C3         4.4522    3.2931   -0.9297 C.ar      1 RES1    0.0000
     12 H4         3.5345    3.1567   -1.1324 H         1 RES1    0.0000
     13 C4         4.8192    3.8446    0.2828 C.ar      1 RES1    0.0000
     14 H5         4.1554    4.0653    0.9255 H         1 RES1    0.0000
     15 C5         6.1572    4.0760    0.5603 C.ar      1 RES1    0.0000
     16 H6         6.4013    4.4681    1.3910 H         1 RES1    0.0000
     17 C6         7.1491    3.7432   -0.3594 C.ar      1 RES1    0.0000
     18 C7         8.6063    4.0527   -0.0749 C.3       1 RES1    0.0000
     19 H7         8.6407    4.6217    0.7461 H         1 RES1    0.0000
     20 C8         9.3833    2.7635    0.2189 C.3       1 RES1    0.0000
     21 H8         9.4312    2.2275   -0.6240 H         1 RES1    0.0000
     22 C9         8.7863    1.8683    1.3299 C.3       1 RES1    0.0000
     23 H9         7.9319    1.4987    0.9651 H         1 RES1    0.0000
     24 C10        9.6838    0.6696    1.6235 C.ar      1 RES1    0.0000
     25 C11        9.6506   -0.4358    0.7793 C.ar      1 RES1    0.0000
     26 H10        9.0665   -0.4402    0.0297 H         1 RES1    0.0000
     27 C12       10.4647   -1.5328    1.0235 C.ar      1 RES1    0.0000
     28 H11       10.4447   -2.2799    0.4358 H         1 RES1    0.0000
     29 C13       11.3039   -1.5403    2.1185 C.ar      1 RES1    0.0000
     30 H12       11.8574   -2.2930    2.2869 H         1 RES1    0.0000
     31 C14       11.3403   -0.4586    2.9692 C.ar      1 RES1    0.0000
     32 H13       11.9170   -0.4665    3.7241 H         1 RES1    0.0000
     33 C15       10.5304    0.6503    2.7224 C.ar      1 RES1    0.0000
     34 H14       10.5597    1.3957    3.3103 H         1 RES1    0.0000
     35 C16        7.5851    2.1465    3.4734 C.ar      1 RES1    0.0000
     36 C17        7.3773    2.8993    4.6384 C.ar      1 RES1    0.0000
     37 H15        7.8419    3.7206    4.7509 H         1 RES1    0.0000
     38 C18        6.5186    2.4749    5.6155 C.ar      1 RES1    0.0000
     39 H16        6.4052    2.9993    6.3995 H         1 RES1    0.0000
     40 C19        5.8059    1.2790    5.4760 C.ar      1 RES1    0.0000
     41 C20        6.0068    0.5176    4.3371 C.ar      1 RES1    0.0000
     42 H17        5.5325   -0.2979    4.2249 H         1 RES1    0.0000
     43 C21        6.9015    0.9408    3.3522 C.ar      1 RES1    0.0000
     44 H18        7.0460    0.3972    2.5873 H         1 RES1    0.0000
     45 C22        4.1668   -0.2109    6.3411 C.3       1 RES1    0.0000
     46 H19        3.5941   -0.3260    7.1269 H         1 RES1    0.0000
     47 H20        4.7634   -0.9835    6.2542 H         1 RES1    0.0000
     48 H21        3.6106   -0.1368    5.5389 H         1 RES1    0.0000
     49 C23        8.5802    6.1742   -1.4736 C.3       1 RES1    0.0000
     50 H22        9.0235    6.6337   -2.2164 H         1 RES1    0.0000
     51 H23        8.6369    6.7274   -0.6669 H         1 RES1    0.0000
     52 H24        7.6387    6.0211   -1.6981 H         1 RES1    0.0000
     53 C24        9.2602    4.8467   -1.2227 C.3       1 RES1    0.0000
     54 H25       10.2123    5.0076   -1.0037 H         1 RES1    0.0000
     55 H26        9.2260    4.3051   -2.0503 H         1 RES1    0.0000
@<TRIPOS>BOND
     1    1    4 2
     2    2    4 2
     3    3   40 1
     4    4   20 1
     5    5    6 1
     6    7    8 1
     7    9    7 ar
     8   10    9 1
     9   11    9 ar
    10   12   11 1
    11   13   11 ar
    12   14   13 1
    13   15   13 ar
    14   16   15 1
    15   17    7 ar
    16   18   17 1
    17   19   18 1
    18   20   18 1
    19   21   20 1
    20   22    5 1
    21   23   22 1
    22   24   22 1
    23   25   24 ar
    24   26   25 1
    25   27   25 ar
    26   28   27 1
    27   29   27 ar
    28   30   29 1
    29   31   29 ar
    30   32   31 1
    31   33   24 ar
    32   34   33 1
    33   35    5 1
    34   36   35 ar
    35   37   36 1
    36   38   36 ar
    37   39   38 1
    38   40   38 ar
    39   41   40 ar
    40   42   41 1
    41   43   35 ar
    42   44   43 1
    43   45    3 1
    44   46   45 1
    45   47   45 1
    46   48   45 1
    47   49   50 1
    48   51   49 1
    49   52   49 1
    50   53   18 1
    51   54   53 1
    52   55   53 1
    53   15   17 ar
    54   20   22 1
    55   31   33 ar
    56   41   43 ar
    57   49   53 1
@<TRIPOS>SUBSTRUCTURE
     1 RES1 1

@<TRIPOS>CRYSIN
  10.2972   18.7340   11.0137  90.0000  92.2640  90.0000   9 1

