# MOL2 file generated by ConQuest
# Please check atom types

@<TRIPOS>MOLECULE
IQAYOP
    58    60     1
SMALL
NO_CHARGES
****
Generated from CSD

@<TRIPOS>ATOM
      1 N1         8.5826    3.3049   12.2637 N.pl3     1 RES1    0.0000
      2 C1         6.3370    6.2667   14.4619 C.3       1 RES1    0.0000
      3 H1         6.7714    6.6868   15.2335 H         1 RES1    0.0000
      4 H2         5.3927    6.1025   14.6674 H         1 RES1    0.0000
      5 H3         6.4032    6.8612   13.6857 H         1 RES1    0.0000
      6 N2         6.2327    2.8516   10.3452 N.pl3     1 RES1    0.0000
      7 H4         6.8534    3.3875   10.1205 H         1 RES1    0.0000
      8 O1         8.7441    4.0441   11.2974 O.2       1 RES1    0.0000
      9 C2         7.0267    4.9427   14.1474 C.3       1 RES1    0.0000
     10 H5         6.9953    4.3666   14.9505 H         1 RES1    0.0000
     11 H6         7.9785    5.1176   13.9373 H         1 RES1    0.0000
     12 O2         9.4924    2.8665   12.9489 O.2       1 RES1    0.0000
     13 C3         6.3848    4.1891   12.9657 C.3       1 RES1    0.0000
     14 H7         6.4317    4.7900   12.1682 H         1 RES1    0.0000
     15 C4         7.1708    2.9148   12.6242 C.3       1 RES1    0.0000
     16 H8         7.2141    2.3548   13.4521 H         1 RES1    0.0000
     17 O3         3.2162    0.9045    6.0739 O.3       1 RES1    0.0000
     18 C5         6.5922    2.0386   11.4976 C.3       1 RES1    0.0000
     19 H9         5.7409    1.6478   11.8481 H         1 RES1    0.0000
     20 C6         7.5226    0.8668   11.2022 C.ar      1 RES1    0.0000
     21 C7         8.4160    0.9158   10.1407 C.ar      1 RES1    0.0000
     22 H10        8.4091    1.6650    9.5555 H         1 RES1    0.0000
     23 C8         9.3145   -0.1088    9.9239 C.ar      1 RES1    0.0000
     24 H11        9.9104   -0.0594    9.1848 H         1 RES1    0.0000
     25 C9         9.3637   -1.2121   10.7675 C.ar      1 RES1    0.0000
     26 C10        8.4500   -1.2699   11.8043 C.ar      1 RES1    0.0000
     27 H12        8.4467   -2.0233   12.3816 H         1 RES1    0.0000
     28 C11        7.5381   -0.2466   12.0132 C.ar      1 RES1    0.0000
     29 H13        6.9147   -0.3142   12.7276 H         1 RES1    0.0000
     30 C12       10.3841   -2.3026   10.5440 C.3       1 RES1    0.0000
     31 H14        9.9866   -3.0158   10.0014 H         1 RES1    0.0000
     32 H15       10.6666   -2.6690   11.4077 H         1 RES1    0.0000
     33 H16       11.1614   -1.9313   10.0767 H         1 RES1    0.0000
     34 C13        5.5125    2.2781    9.2859 C.ar      1 RES1    0.0000
     35 C14        5.4158    2.9786    8.0852 C.ar      1 RES1    0.0000
     36 H17        5.8795    3.8013    7.9818 H         1 RES1    0.0000
     37 C15        4.6520    2.4895    7.0428 C.ar      1 RES1    0.0000
     38 H18        4.6009    2.9775    6.2296 H         1 RES1    0.0000
     39 C16        3.9599    1.2941    7.1697 C.ar      1 RES1    0.0000
     40 C17        4.0680    0.5790    8.3435 C.ar      1 RES1    0.0000
     41 H19        3.6119   -0.2491    8.4356 H         1 RES1    0.0000
     42 C18        4.8399    1.0659    9.3926 C.ar      1 RES1    0.0000
     43 H20        4.9103    0.5614   10.1946 H         1 RES1    0.0000
     44 C19        2.4423   -0.2893    6.2150 C.3       1 RES1    0.0000
     45 H21        1.9595   -0.4675    5.3815 H         1 RES1    0.0000
     46 H22        1.8004   -0.1782    6.9473 H         1 RES1    0.0000
     47 H23        3.0372   -1.0423    6.4149 H         1 RES1    0.0000
     48 C20        4.9169    3.8732   13.2072 C.ar      1 RES1    0.0000
     49 C21        3.9499    4.2075   12.2581 C.ar      1 RES1    0.0000
     50 H24        4.2180    4.5965   11.4347 H         1 RES1    0.0000
     51 C22        2.6110    3.9803   12.5007 C.ar      1 RES1    0.0000
     52 H25        1.9641    4.2267   11.8503 H         1 RES1    0.0000
     53 C23        2.2080    3.3965   13.6823 C.ar      1 RES1    0.0000
     54 H26        1.2848    3.2495   13.8508 H         1 RES1    0.0000
     55 C24        3.1513    3.0277   14.6180 C.ar      1 RES1    0.0000
     56 H27        2.8773    2.6134   15.4279 H         1 RES1    0.0000
     57 C25        4.4900    3.2587   14.3821 C.ar      1 RES1    0.0000
     58 H28        5.1317    2.9947   15.0302 H         1 RES1    0.0000
@<TRIPOS>BOND
     1    1    8 2
     2    2    3 1
     3    4    2 1
     4    5    2 1
     5    6    7 1
     6    9    2 1
     7   10    9 1
     8   11    9 1
     9   12    1 2
    10   13    9 1
    11   14   13 1
    12   15    1 1
    13   16   15 1
    14   17   39 1
    15   18    6 1
    16   19   18 1
    17   20   18 1
    18   21   20 ar
    19   22   21 1
    20   23   21 ar
    21   24   23 1
    22   25   23 ar
    23   26   25 ar
    24   27   26 1
    25   28   20 ar
    26   29   28 1
    27   30   25 1
    28   31   30 1
    29   32   30 1
    30   33   30 1
    31   34    6 1
    32   35   34 ar
    33   36   35 1
    34   37   35 ar
    35   38   37 1
    36   39   37 ar
    37   40   39 ar
    38   41   40 1
    39   42   34 ar
    40   43   42 1
    41   44   17 1
    42   45   44 1
    43   46   44 1
    44   47   44 1
    45   48   13 1
    46   49   48 ar
    47   50   49 1
    48   51   49 ar
    49   52   51 1
    50   53   51 ar
    51   54   53 1
    52   55   53 ar
    53   56   55 1
    54   57   48 ar
    55   58   57 1
    56   13   15 1
    57   15   18 1
    58   26   28 ar
    59   40   42 ar
    60   55   57 ar
@<TRIPOS>SUBSTRUCTURE
     1 RES1 1

@<TRIPOS>CRYSIN
  10.4910   19.1600   11.2380  90.0000  91.7890  90.0000   9 1

