# MOL2 file generated by ConQuest
# Please check atom types

@<TRIPOS>MOLECULE
IQAZAC
   118   122     2
SMALL
NO_CHARGES
****
Generated from CSD

@<TRIPOS>ATOM
      1 O1        -1.4973    3.2663    6.8240 O.2       1 RES1    0.0000
      2 N1        -0.9733    2.1953    7.1156 N.pl3     1 RES1    0.0000
      3 C1         0.0455    1.0568    3.1362 C.3       1 RES1    0.0000
      4 H1        -0.4272    0.2966    2.7363 H         1 RES1    0.0000
      5 H2         0.9707    1.0735    2.8135 H         1 RES1    0.0000
      6 H3        -0.4029    1.8905    2.8830 H         1 RES1    0.0000
      7 O2        -1.5944    1.2439    7.5669 O.2       1 RES1    0.0000
      8 N2         1.2070    4.4369    7.0405 N.pl3     1 RES1    0.0000
      9 H4         0.4177    4.7932    7.0615 H         1 RES1    0.0000
     10 C2         0.0402    0.9171    4.6531 C.3       1 RES1    0.0000
     11 H5         0.4769    0.0631    4.8997 H         1 RES1    0.0000
     12 H6        -0.8967    0.8802    4.9707 H         1 RES1    0.0000
     13 O3         5.0676    8.3314    8.1420 O.3       1 RES1    0.0000
     14 C3         0.7653    2.0748    5.3654 C.3       1 RES1    0.0000
     15 H7         0.3865    2.9295    5.0109 H         1 RES1    0.0000
     16 C4         0.5122    2.0516    6.8858 C.3       1 RES1    0.0000
     17 H8         0.7947    1.1576    7.2329 H         1 RES1    0.0000
     18 O4         6.2658    2.1687    3.9343 O.3       1 RES1    0.0000
     19 C5         1.2679    3.1335    7.6826 C.3       1 RES1    0.0000
     20 H9         2.2301    2.8644    7.6468 H         1 RES1    0.0000
     21 C6         0.9036    3.1297    9.1647 C.ar      1 RES1    0.0000
     22 C7         1.4880    2.1907   10.0038 C.ar      1 RES1    0.0000
     23 H10        2.0879    1.5499    9.6419 H         1 RES1    0.0000
     24 C8         1.2083    2.1745   11.3647 C.ar      1 RES1    0.0000
     25 H11        1.6205    1.5308   11.9288 H         1 RES1    0.0000
     26 C9         0.3312    3.0946   11.8914 C.ar      1 RES1    0.0000
     27 H12        0.1335    3.0845   12.8213 H         1 RES1    0.0000
     28 C10       -0.2598    4.0294   11.0708 C.ar      1 RES1    0.0000
     29 H13       -0.8670    4.6612   11.4362 H         1 RES1    0.0000
     30 C11        0.0274    4.0525    9.7141 C.ar      1 RES1    0.0000
     31 H14       -0.3791    4.7052    9.1570 H         1 RES1    0.0000
     32 C12        2.2462    2.0642    5.0448 C.ar      1 RES1    0.0000
     33 C13        2.7112    2.8072    3.9633 C.ar      1 RES1    0.0000
     34 H15        2.1009    3.3409    3.4682 H         1 RES1    0.0000
     35 C14        4.0382    2.7833    3.5975 C.ar      1 RES1    0.0000
     36 H16        4.3255    3.2663    2.8305 H         1 RES1    0.0000
     37 C15        4.9571    2.0608    4.3398 C.ar      1 RES1    0.0000
     38 C16        4.5256    1.2990    5.4059 C.ar      1 RES1    0.0000
     39 H17        5.1442    0.7883    5.9127 H         1 RES1    0.0000
     40 C17        3.1686    1.2891    5.7294 C.ar      1 RES1    0.0000
     41 H18        2.8681    0.7348    6.4392 H         1 RES1    0.0000
     42 C18        7.2624    1.7650    4.8554 C.3       1 RES1    0.0000
     43 H19        8.1479    1.9728    4.4905 H         1 RES1    0.0000
     44 H20        7.1912    0.7998    5.0109 H         1 RES1    0.0000
     45 H21        7.1375    2.2426    5.7011 H         1 RES1    0.0000
     46 C19        2.1985    5.3820    7.3813 C.ar      1 RES1    0.0000
     47 C20        1.8657    6.7228    7.5649 C.ar      1 RES1    0.0000
     48 H22        0.9541    6.9880    7.5279 H         1 RES1    0.0000
     49 C21        2.8408    7.6735    7.7989 C.ar      1 RES1    0.0000
     50 H23        2.5925    8.5857    7.9016 H         1 RES1    0.0000
     51 C22        4.1710    7.3159    7.8863 C.ar      1 RES1    0.0000
     52 C23        4.5240    5.9866    7.7238 C.ar      1 RES1    0.0000
     53 H24        5.4353    5.7251    7.7873 H         1 RES1    0.0000
     54 C24        3.5434    5.0347    7.4672 C.ar      1 RES1    0.0000
     55 H25        3.7979    4.1273    7.3472 H         1 RES1    0.0000
     56 C25        6.4203    7.9441    8.3730 C.3       1 RES1    0.0000
     57 H26        6.9563    8.7369    8.5825 H         1 RES1    0.0000
     58 H27        6.7787    7.5122    7.5696 H         1 RES1    0.0000
     59 H28        6.4572    7.3171    9.1246 H         1 RES1    0.0000
     60 N3        12.4883    2.2914   14.9870 N.pl3     2 RES2    0.0000
     61 O5        13.0057    3.4062   14.9143 O.2       2 RES2    0.0000
     62 C26       11.4512    2.1257   10.7923 C.3       2 RES2    0.0000
     63 H29       11.9713    1.5269   10.2163 H         2 RES2    0.0000
     64 H30       11.7792    3.0424   10.6903 H         2 RES2    0.0000
     65 H31       10.5066    2.0876   10.5359 H         2 RES2    0.0000
     66 O6        13.1011    1.2887   15.2883 O.2       2 RES2    0.0000
     67 N4        10.3795    4.4224   15.5049 N.pl3     2 RES2    0.0000
     68 H32       11.1456    4.7129   15.1824 H         2 RES2    0.0000
     69 C27       11.6009    1.6919   12.2392 C.3       2 RES2    0.0000
     70 H33       12.5575    1.7183   12.4893 H         2 RES2    0.0000
     71 H34       11.2865    0.7577   12.3334 H         2 RES2    0.0000
     72 O7         6.4751    8.3090   16.3595 O.3       2 RES2    0.0000
     73 C28       10.8017    2.5933   13.1969 C.3       2 RES2    0.0000
     74 H35       11.1343    3.5303   13.0854 H         2 RES2    0.0000
     75 O8         5.1964    2.4988   12.2884 O.3       2 RES2    0.0000
     76 C29       11.0177    2.1888   14.6651 C.3       2 RES2    0.0000
     77 H36       10.7504    1.2304   14.7593 H         2 RES2    0.0000
     78 C30       10.2116    3.0076   15.6990 C.3       2 RES2    0.0000
     79 H37        9.2479    2.8166   15.5082 H         2 RES2    0.0000
     80 C31       10.4624    2.5118   17.1246 C.ar      2 RES2    0.0000
     81 C32       10.9755    3.3495   18.1024 C.ar      2 RES2    0.0000
     82 H38       11.1872    4.2498   17.8862 H         2 RES2    0.0000
     83 C33       11.1831    2.8876   19.3940 C.ar      2 RES2    0.0000
     84 H39       11.5268    3.4768   20.0558 H         2 RES2    0.0000
     85 C34       10.8934    1.5798   19.7261 C.ar      2 RES2    0.0000
     86 H40       11.0424    1.2648   20.6102 H         2 RES2    0.0000
     87 C35       10.3838    0.7334   18.7576 C.ar      2 RES2    0.0000
     88 H41       10.1846   -0.1684   18.9764 H         2 RES2    0.0000
     89 C36       10.1628    1.1930   17.4716 C.ar      2 RES2    0.0000
     90 H42        9.8035    0.6047   16.8176 H         2 RES2    0.0000
     91 C37        9.3142    2.5897   12.9013 C.ar      2 RES2    0.0000
     92 C38        8.6206    3.7732   12.7271 C.ar      2 RES2    0.0000
     93 H43        9.0962    4.5942   12.7626 H         2 RES2    0.0000
     94 C39        7.2488    3.7986   12.5007 C.ar      2 RES2    0.0000
     95 H44        6.7961    4.6248   12.3735 H         2 RES2    0.0000
     96 C40        6.5543    2.6040   12.4629 C.ar      2 RES2    0.0000
     97 C41        7.2332    1.4020   12.6110 C.ar      2 RES2    0.0000
     98 H45        6.7562    0.5817   12.5634 H         2 RES2    0.0000
     99 C42        8.5962    1.3926   12.8275 C.ar      2 RES2    0.0000
    100 H46        9.0507    0.5645   12.9279 H         2 RES2    0.0000
    101 C43        4.4927    3.7092   11.9983 C.3       2 RES2    0.0000
    102 H47        3.5321    3.5227   11.9380 H         2 RES2    0.0000
    103 H48        4.8092    4.0738   11.1459 H         2 RES2    0.0000
    104 H49        4.6545    4.3608   12.7132 H         2 RES2    0.0000
    105 C44        9.3860    5.3560   15.8031 C.ar      2 RES2    0.0000
    106 C45        8.1774    5.0205   16.3939 C.ar      2 RES2    0.0000
    107 H50        8.0241    4.1235   16.6679 H         2 RES2    0.0000
    108 C46        7.1814    5.9775   16.5941 C.ar      2 RES2    0.0000
    109 H51        6.3513    5.7232   16.9798 H         2 RES2    0.0000
    110 C47        7.3964    7.2861   16.2349 C.ar      2 RES2    0.0000
    111 C48        8.6228    7.6393   15.6919 C.ar      2 RES2    0.0000
    112 H52        8.7906    8.5474   15.4665 H         2 RES2    0.0000
    113 C49        9.5976    6.6967   15.4747 C.ar      2 RES2    0.0000
    114 H53       10.4275    6.9612   15.0959 H         2 RES2    0.0000
    115 C50        5.1757    7.9682   16.7780 C.3       2 RES2    0.0000
    116 H54        4.6014    8.7617   16.7389 H         2 RES2    0.0000
    117 H55        5.2068    7.6309   17.6978 H         2 RES2    0.0000
    118 H56        4.8140    7.2750   16.1876 H         2 RES2    0.0000
@<TRIPOS>BOND
     1    1    2 2
     2    2    7 2
     3    3    4 1
     4    5    3 1
     5    6    3 1
     6    8    9 1
     7   10    3 1
     8   11   10 1
     9   12   10 1
    10   13   51 1
    11   14   10 1
    12   15   14 1
    13   16    2 1
    14   17   16 1
    15   18   37 1
    16   19    8 1
    17   20   19 1
    18   21   19 1
    19   22   21 ar
    20   23   22 1
    21   24   22 ar
    22   25   24 1
    23   26   24 ar
    24   27   26 1
    25   28   26 ar
    26   29   28 1
    27   30   21 ar
    28   31   30 1
    29   32   14 1
    30   33   32 ar
    31   34   33 1
    32   35   33 ar
    33   36   35 1
    34   37   35 ar
    35   38   37 ar
    36   39   38 1
    37   40   32 ar
    38   41   40 1
    39   42   18 1
    40   43   42 1
    41   44   42 1
    42   45   42 1
    43   46    8 1
    44   47   46 ar
    45   48   47 1
    46   49   47 ar
    47   50   49 1
    48   51   49 ar
    49   52   51 ar
    50   53   52 1
    51   54   46 ar
    52   55   54 1
    53   56   13 1
    54   57   56 1
    55   58   56 1
    56   59   56 1
    57   60   61 2
    58   62   63 1
    59   64   62 1
    60   65   62 1
    61   66   60 2
    62   67   68 1
    63   69   62 1
    64   70   69 1
    65   71   69 1
    66   72  110 1
    67   73   69 1
    68   74   73 1
    69   75   96 1
    70   76   60 1
    71   77   76 1
    72   78   67 1
    73   79   78 1
    74   80   78 1
    75   81   80 ar
    76   82   81 1
    77   83   81 ar
    78   84   83 1
    79   85   83 ar
    80   86   85 1
    81   87   85 ar
    82   88   87 1
    83   89   80 ar
    84   90   89 1
    85   91   73 1
    86   92   91 ar
    87   93   92 1
    88   94   92 ar
    89   95   94 1
    90   96   94 ar
    91   97   96 ar
    92   98   97 1
    93   99   91 ar
    94  100   99 1
    95  101   75 1
    96  102  101 1
    97  103  101 1
    98  104  101 1
    99  105   67 1
   100  106  105 ar
   101  107  106 1
   102  108  106 ar
   103  109  108 1
   104  110  108 ar
   105  111  110 ar
   106  112  111 1
   107  113  105 ar
   108  114  113 1
   109  115   72 1
   110  116  115 1
   111  117  115 1
   112  118  115 1
   113   14   16 1
   114   16   19 1
   115   28   30 ar
   116   38   40 ar
   117   52   54 ar
   118   73   76 1
   119   76   78 1
   120   87   89 ar
   121   97   99 ar
   122  111  113 ar
@<TRIPOS>SUBSTRUCTURE
     1 RES1 1
     2 RES2 60

@<TRIPOS>CRYSIN
  14.7737   19.1346   15.4437  90.0000  90.9020  90.0000  14 1

