# MOL2 file generated by ConQuest
# Please check atom types

@<TRIPOS>MOLECULE
IQAZEG
   108   110     2
SMALL
NO_CHARGES
****
Generated from CSD

@<TRIPOS>ATOM
      1 C1        -4.1453    1.0080   10.6284 C.3       1 RES1    0.0000
      2 H1        -4.9196    0.9982   10.0291 H         1 RES1    0.0000
      3 H2        -4.4526    0.9813   11.5598 H         1 RES1    0.0000
      4 H3        -3.5823    0.2259   10.4496 H         1 RES1    0.0000
      5 C2        -3.3256    2.2975   10.3926 C.3       1 RES1    0.0000
      6 H4        -3.8841    3.0854   10.6147 H         1 RES1    0.0000
      7 H5        -3.0757    2.3566    9.4377 H         1 RES1    0.0000
      8 C3        -2.0393    2.3161   11.2651 C.3       1 RES1    0.0000
      9 H6        -1.5197    1.4858   11.0627 H         1 RES1    0.0000
     10 C4        -1.1664    3.5222   10.8917 C.3       1 RES1    0.0000
     11 H7        -1.7432    4.3342   10.9782 H         1 RES1    0.0000
     12 N1        -0.7654    3.4284    9.4318 N.pl3     1 RES1    0.0000
     13 O1        -1.2521    4.1966    8.6085 O.2       1 RES1    0.0000
     14 O2         0.0783    2.5435    9.1252 O.2       1 RES1    0.0000
     15 C5         0.1385    3.8041   11.7151 C.3       1 RES1    0.0000
     16 H8        -0.1249    3.9107   12.6739 H         1 RES1    0.0000
     17 N2         0.7498    5.0682   11.2749 N.pl3     1 RES1    0.0000
     18 H9         1.2567    5.0584   10.5557 H         1 RES1    0.0000
     19 C6         1.2462    2.7012   11.6443 C.2       1 RES1    0.0000
     20 O3         0.7944    1.5196   12.0432 O.3       1 RES1    0.0000
     21 O4         2.3673    2.9388   11.2749 O.2       1 RES1    0.0000
     22 C7         1.8015    0.4341   12.0078 C.3       1 RES1    0.0000
     23 H10        2.5169    0.6023   12.6700 H         1 RES1    0.0000
     24 H11        2.2111    0.3719   11.1079 H         1 RES1    0.0000
     25 C8         1.0571   -0.8476   12.3419 C.3       1 RES1    0.0000
     26 H12        1.6578   -1.6124   12.2279 H         1 RES1    0.0000
     27 H13        0.2879   -0.9447   11.7426 H         1 RES1    0.0000
     28 H14        0.7456   -0.8113   13.2693 H         1 RES1    0.0000
     29 C9         0.5673    6.2920   11.9430 C.ar      1 RES1    0.0000
     30 C10        1.4284    7.3719   11.5598 C.ar      1 RES1    0.0000
     31 H15        2.0844    7.2345   10.8858 H         1 RES1    0.0000
     32 C11        1.3178    8.5738   12.1414 C.ar      1 RES1    0.0000
     33 H16        1.8812    9.2818   11.8526 H         1 RES1    0.0000
     34 C12        0.3915    8.8107   13.1672 C.ar      1 RES1    0.0000
     35 O5         0.3997   10.1082   13.6918 O.3       1 RES1    0.0000
     36 C13       -0.4661    7.7785   13.5837 C.ar      1 RES1    0.0000
     37 H17       -1.0990    7.9320   14.2754 H         1 RES1    0.0000
     38 C14       -0.3773    6.4890   12.9569 C.ar      1 RES1    0.0000
     39 H18       -0.9513    5.7808   13.2261 H         1 RES1    0.0000
     40 C15       -0.3200   10.3029   14.9042 C.3       1 RES1    0.0000
     41 H19       -0.3044   11.2525   15.1439 H         1 RES1    0.0000
     42 H20        0.0958    9.7772   15.6194 H         1 RES1    0.0000
     43 H21       -1.2483   10.0126   14.7823 H         1 RES1    0.0000
     44 C16       -2.3543    2.3212   12.7525 C.ar      1 RES1    0.0000
     45 C17       -2.1681    1.2033   13.5503 C.ar      1 RES1    0.0000
     46 H22       -1.7969    0.4221   13.1573 H         1 RES1    0.0000
     47 C18       -2.4983    1.1748   14.8904 C.ar      1 RES1    0.0000
     48 H23       -2.3571    0.3850   15.4013 H         1 RES1    0.0000
     49 C19       -3.0410    2.3141   15.4937 C.ar      1 RES1    0.0000
     50 H24       -3.2677    2.3046   16.4172 H         1 RES1    0.0000
     51 C20       -3.2435    3.4466   14.7430 C.ar      1 RES1    0.0000
     52 H25       -3.5898    4.2279   15.1596 H         1 RES1    0.0000
     53 C21       -2.9492    3.4684   13.3774 C.ar      1 RES1    0.0000
     54 H26       -3.1421    4.2429   12.8606 H         1 RES1    0.0000
     55 C22       10.6494    4.6208    0.7919 C.3       2 RES2    0.0000
     56 H27       11.4138    4.8131    0.2103 H         2 RES2    0.0000
     57 H28       10.9500    4.5761    1.7233 H         2 RES2    0.0000
     58 H29        9.9814    5.3311    0.6976 H         2 RES2    0.0000
     59 C23       10.0245    3.2729    0.3891 C.3       2 RES2    0.0000
     60 H30       10.7341    2.5850    0.3576 H         2 RES2    0.0000
     61 H31        9.6419    3.3535   -0.5207 H         2 RES2    0.0000
     62 C24        8.9181    2.8107    1.3578 C.3       2 RES2    0.0000
     63 H32        8.2003    3.5070    1.3519 H         2 RES2    0.0000
     64 C25        8.2741    1.4599    0.8724 C.3       2 RES2    0.0000
     65 H33        9.0045    0.7776    0.8665 H         2 RES2    0.0000
     66 N3         7.8119    1.6159   -0.5600 N.pl3     2 RES2    0.0000
     67 O6         6.9255    2.4605   -0.7958 O.2       2 RES2    0.0000
     68 O7         8.3339    0.9227   -1.4344 O.2       2 RES2    0.0000
     69 C26        7.1004    0.8522    1.6899 C.3       2 RES2    0.0000
     70 H34        7.3795    0.8253    2.6507 H         2 RES2    0.0000
     71 N4         6.8506   -0.5335    1.2556 N.pl3     2 RES2    0.0000
     72 H35        6.6526   -0.7139    0.4185 H         2 RES2    0.0000
     73 C27        5.7889    1.6765    1.6034 C.2       2 RES2    0.0000
     74 O8         5.9137    2.8571    2.1850 O.3       2 RES2    0.0000
     75 O9         4.7678    1.2286    1.1023 O.2       2 RES2    0.0000
     76 C28        4.7220    3.7307    2.1497 C.3       2 RES2    0.0000
     77 H36        4.0134    3.3709    2.7411 H         2 RES2    0.0000
     78 H37        4.3655    3.7895    1.2281 H         2 RES2    0.0000
     79 C29        5.1691    5.1007    2.6330 C.3       2 RES2    0.0000
     80 H38        4.4175    5.7263    2.5800 H         2 RES2    0.0000
     81 H39        5.9037    5.4211    2.0691 H         2 RES2    0.0000
     82 H40        5.4740    5.0349    3.5625 H         2 RES2    0.0000
     83 C30        6.9371   -1.5680    2.2165 C.ar      2 RES2    0.0000
     84 C31        6.0056   -2.6049    2.2459 C.ar      2 RES2    0.0000
     85 H41        5.2897   -2.6000    1.6211 H         2 RES2    0.0000
     86 C32        6.0933   -3.6359    3.1538 C.ar      2 RES2    0.0000
     87 H42        5.4484   -4.3334    3.1380 H         2 RES2    0.0000
     88 C33        7.1346   -3.6647    4.1068 C.ar      2 RES2    0.0000
     89 O10        7.3118   -4.6387    5.0932 O.3       2 RES2    0.0000
     90 C34        8.0725   -2.6420    4.0950 C.ar      2 RES2    0.0000
     91 H43        8.7633   -2.6347    4.7473 H         2 RES2    0.0000
     92 C35        8.0229   -1.6306    3.1479 C.ar      2 RES2    0.0000
     93 H44        8.7111   -0.9758    3.1184 H         2 RES2    0.0000
     94 C36        6.3016   -5.6478    5.2248 C.3       2 RES2    0.0000
     95 H45        6.5312   -6.2454    5.9676 H         2 RES2    0.0000
     96 H46        6.2465   -6.1647    4.3936 H         2 RES2    0.0000
     97 H47        5.4369   -5.2232    5.4017 H         2 RES2    0.0000
     98 C37        9.4099    2.6643    2.8020 C.ar      2 RES2    0.0000
     99 C38        8.7013    3.2107    3.8474 C.ar      2 RES2    0.0000
    100 H48        7.9126    3.7078    3.6627 H         2 RES2    0.0000
    101 C39        9.1101    3.0546    5.1835 C.ar      2 RES2    0.0000
    102 H49        8.6017    3.4521    5.8811 H         2 RES2    0.0000
    103 C40       10.2331    2.3358    5.4881 C.ar      2 RES2    0.0000
    104 H50       10.5097    2.2230    6.3900 H         2 RES2    0.0000
    105 C41       10.9621    1.7737    4.4428 C.ar      2 RES2    0.0000
    106 H51       11.7618    1.2977    4.6314 H         2 RES2    0.0000
    107 C42       10.5301    1.9001    3.1184 C.ar      2 RES2    0.0000
    108 H52       11.0073    1.4598    2.4248 H         2 RES2    0.0000
@<TRIPOS>BOND
     1    1    2 1
     2    3    1 1
     3    4    1 1
     4    5    1 1
     5    6    5 1
     6    7    5 1
     7    8    5 1
     8    9    8 1
     9   10    8 1
    10   11   10 1
    11   12   10 1
    12   13   12 2
    13   14   12 2
    14   15   10 1
    15   16   15 1
    16   17   15 1
    17   18   17 1
    18   19   15 1
    19   20   19 1
    20   21   19 2
    21   22   20 1
    22   23   22 1
    23   24   22 1
    24   25   22 1
    25   26   25 1
    26   27   25 1
    27   28   25 1
    28   29   17 1
    29   30   29 ar
    30   31   30 1
    31   32   30 ar
    32   33   32 1
    33   34   32 ar
    34   35   34 1
    35   36   34 ar
    36   37   36 1
    37   38   29 ar
    38   39   38 1
    39   40   35 1
    40   41   40 1
    41   42   40 1
    42   43   40 1
    43   44    8 1
    44   45   44 ar
    45   46   45 1
    46   47   45 ar
    47   48   47 1
    48   49   47 ar
    49   50   49 1
    50   51   49 ar
    51   52   51 1
    52   53   44 ar
    53   54   53 1
    54   55   56 1
    55   57   55 1
    56   58   55 1
    57   59   55 1
    58   60   59 1
    59   61   59 1
    60   62   59 1
    61   63   62 1
    62   64   62 1
    63   65   64 1
    64   66   64 1
    65   67   66 2
    66   68   66 2
    67   69   64 1
    68   70   69 1
    69   71   69 1
    70   72   71 1
    71   73   69 1
    72   74   73 1
    73   75   73 2
    74   76   74 1
    75   77   76 1
    76   78   76 1
    77   79   76 1
    78   80   79 1
    79   81   79 1
    80   82   79 1
    81   83   71 1
    82   84   83 ar
    83   85   84 1
    84   86   84 ar
    85   87   86 1
    86   88   86 ar
    87   89   88 1
    88   90   88 ar
    89   91   90 1
    90   92   83 ar
    91   93   92 1
    92   94   89 1
    93   95   94 1
    94   96   94 1
    95   97   94 1
    96   98   62 1
    97   99   98 ar
    98  100   99 1
    99  101   99 ar
   100  102  101 1
   101  103  101 ar
   102  104  103 1
   103  105  103 ar
   104  106  105 1
   105  107   98 ar
   106  108  107 1
   107   36   38 ar
   108   51   53 ar
   109   90   92 ar
   110  105  107 ar
@<TRIPOS>SUBSTRUCTURE
     1 RES1 1
     2 RES2 55

@<TRIPOS>CRYSIN
   9.6340   11.9770   19.6780  91.8570  91.6460 110.6470   2 1

