# MOL2 file generated by ConQuest
# Please check atom types

@<TRIPOS>MOLECULE
IQEGAO
    35    34     2
SMALL
NO_CHARGES
****
Generated from CSD

@<TRIPOS>ATOM
      1 O1         1.7903    3.0879    8.5963 O.2       1 RES1    0.0000
      2 O2         1.6289    4.5491   10.1625 O.2       1 RES1    0.0000
      3 N1         4.8365    7.8626    5.9531 N.2       1 RES1    0.0000
      4 N2         2.0245    4.1941    9.0556 N.2       1 RES1    0.0000
      5 C1         4.1438    6.9302    6.7388 C.2       1 RES1    0.0000
      6 C2         3.7417    5.7174    6.1874 C.2       1 RES1    0.0000
      7 H1         3.9418    5.5187    5.3014 H         1 RES1    0.0000
      8 C3         3.0589    4.8254    6.9475 C.2       1 RES1    0.0000
      9 H2         2.7921    4.0120    6.5844 H         1 RES1    0.0000
     10 C4         2.7628    5.1275    8.2576 C.2       1 RES1    0.0000
     11 C5         3.1619    6.3248    8.8293 C.2       1 RES1    0.0000
     12 H3         2.9639    6.5142    9.7181 H         1 RES1    0.0000
     13 C6         3.8584    7.2334    8.0571 C.2       1 RES1    0.0000
     14 H4         4.1340    8.0437    8.4215 H         1 RES1    0.0000
     15 H5         5.1222    7.6132    5.1808 H         1 RES1    0.0000
     16 C7         5.0779    9.1199    6.3432 C.2       1 RES1    0.0000
     17 N3         5.2240   10.3482    6.7741 N.2       1 RES1    0.0000
     18 C8         5.0960    7.6018    4.6741 Du        2 SUP2    0.0000
     19 N4         5.3658    7.3586    3.3870 Du        2 SUP2    0.0000
     20 O1D        8.6577   17.6085    4.9518 O.2       1 RES1    0.0000
     21 O2D        8.8191   16.1473    3.3857 O.2       1 RES1    0.0000
     22 N1D        5.6116   12.8338    7.5951 N.2       1 RES1    0.0000
     23 N2D        8.4236   16.5023    4.4926 N.2       1 RES1    0.0000
     24 C1D        6.3043   13.7662    6.8093 C.2       1 RES1    0.0000
     25 C2D        6.7064   14.9790    7.3607 C.2       1 RES1    0.0000
     26 H1D        6.5062   15.1777    8.2467 H         1 RES1    0.0000
     27 C3D        7.3892   15.8710    6.6007 C.2       1 RES1    0.0000
     28 H2D        7.6560   16.6844    6.9637 H         1 RES1    0.0000
     29 C4D        7.6852   15.5689    5.2905 C.2       1 RES1    0.0000
     30 C5D        7.2862   14.3716    4.7188 C.2       1 RES1    0.0000
     31 H3D        7.4842   14.1822    3.8301 H         1 RES1    0.0000
     32 C6D        6.5897   13.4630    5.4911 C.2       1 RES1    0.0000
     33 H4D        6.3141   12.6527    5.1266 H         1 RES1    0.0000
     34 H5D        5.3259   13.0832    8.3673 H         1 RES1    0.0000
     35 C7D        5.3701   11.5765    7.2049 C.2       1 RES1    0.0000
@<TRIPOS>BOND
     1    1    4 1
     2    2    4 1
     3    3    5 1
     4    4   10 1
     5    5    6 1
     6    6    7 1
     7    8    6 1
     8    9    8 1
     9   10    8 1
    10   11   10 1
    11   12   11 1
    12   13    5 1
    13   14   13 1
    14   15    3 1
    15   16    3 1
    16   17   16 1
    17   20   23 1
    18   21   23 1
    19   22   24 1
    20   23   29 1
    21   24   25 1
    22   25   26 1
    23   27   25 1
    24   28   27 1
    25   29   27 1
    26   30   29 1
    27   31   30 1
    28   32   24 1
    29   33   32 1
    30   34   22 1
    31   35   17 1
    32   11   13 1
    33   22   35 1
    34   30   32 1
@<TRIPOS>SUBSTRUCTURE
     1 RES1 1
     2 SUP2 18

@<TRIPOS>CRYSIN
  11.0152   10.3482   13.5600  90.0000  92.3970  90.0000  15 1

