# MOL2 file generated by ConQuest
# Please check atom types

@<TRIPOS>MOLECULE
IQEMEX
    82    84     2
SMALL
NO_CHARGES
****
Generated from CSD

@<TRIPOS>ATOM
      1 C1        12.0566    7.2848    3.9646 C.ar      1 RES1    0.0000
      2 C2        13.2118    6.7390    3.4355 C.ar      1 RES1    0.0000
      3 H1        13.8911    7.2887    3.1170 H         1 RES1    0.0000
      4 C3        13.3425    5.3644    3.3883 C.ar      1 RES1    0.0000
      5 H2        14.1227    4.9796    3.0623 H         1 RES1    0.0000
      6 C4        12.3059    4.5640    3.8292 C.ar      1 RES1    0.0000
      7 H3        12.3835    3.6386    3.7820 H         1 RES1    0.0000
      8 C5        11.1497    5.1371    4.3424 C.ar      1 RES1    0.0000
      9 H4        10.4583    4.5841    4.6241 H         1 RES1    0.0000
     10 C6        10.9986    6.5184    4.4461 C.ar      1 RES1    0.0000
     11 C7         9.7475    7.0655    5.0660 C.2       1 RES1    0.0000
     12 C8         8.6792    7.3956    4.3207 C.2       1 RES1    0.0000
     13 H5         7.8856    7.6078    4.7576 H         1 RES1    0.0000
     14 C9         8.6969    7.4390    2.8480 C.2       1 RES1    0.0000
     15 C10        7.3845    7.6352    0.8997 C.3       1 RES1    0.0000
     16 H6         7.8123    6.8675    0.4900 H         1 RES1    0.0000
     17 H7         7.8409    8.4379    0.6015 H         1 RES1    0.0000
     18 C11        5.9404    7.6884    0.5118 C.3       1 RES1    0.0000
     19 H8         5.4917    6.9057    0.8400 H         1 RES1    0.0000
     20 H9         5.8663    7.7225   -0.4440 H         1 RES1    0.0000
     21 H10        5.5365    8.4720    0.8925 H         1 RES1    0.0000
     22 C12        9.7442    7.1538    6.5444 C.ar      1 RES1    0.0000
     23 C13        8.8412    7.9840    7.2289 C.ar      1 RES1    0.0000
     24 H11        8.2159    8.4728    6.7437 H         1 RES1    0.0000
     25 C14        8.8617    8.0902    8.5958 C.ar      1 RES1    0.0000
     26 H12        8.2441    8.6365    9.0273 H         1 RES1    0.0000
     27 C15        9.8073    7.3805    9.3467 C.ar      1 RES1    0.0000
     28 C16       10.6999    6.5483    8.6962 C.ar      1 RES1    0.0000
     29 H13       11.3229    6.0598    9.1848 H         1 RES1    0.0000
     30 C17       10.6633    6.4448    7.3131 C.ar      1 RES1    0.0000
     31 H14       11.2707    5.8853    6.8859 H         1 RES1    0.0000
     32 C18       10.8596    7.0777   11.4623 C.3       1 RES1    0.0000
     33 H15       10.8202    6.1180   11.4597 H         1 RES1    0.0000
     34 H16       10.7902    7.3984   12.3653 H         1 RES1    0.0000
     35 H17       11.6944    7.3635   11.0835 H         1 RES1    0.0000
     36 N1        11.9419    8.7481    3.9430 N.pl3     1 RES1    0.0000
     37 O1        11.2760    9.2931    4.8144 O.2       1 RES1    0.0000
     38 O2        12.5244    9.3562    3.0481 O.2       1 RES1    0.0000
     39 O3         9.6820    7.4466    2.1500 O.2       1 RES1    0.0000
     40 O4         7.4480    7.5294    2.3532 O.3       1 RES1    0.0000
     41 O5         9.7824    7.5990   10.6891 O.3       1 RES1    0.0000
     42 C19        3.0902    7.5648    4.1005 C.ar      2 RES2    0.0000
     43 C20        4.2901    8.1415    3.7102 C.ar      2 RES2    0.0000
     44 H18        5.0296    7.6103    3.5195 H         2 RES2    0.0000
     45 C21        4.3698    9.5181    3.6101 C.ar      2 RES2    0.0000
     46 H19        5.1710    9.9236    3.3686 H         2 RES2    0.0000
     47 C22        3.2537   10.2854    3.8708 C.ar      2 RES2    0.0000
     48 H20        3.3008   11.2106    3.7885 H         2 RES2    0.0000
     49 C23        2.0615    9.6892    4.2531 C.ar      2 RES2    0.0000
     50 H21        1.3193   10.2252    4.4185 H         2 RES2    0.0000
     51 C24        1.9468    8.3098    4.3971 C.ar      2 RES2    0.0000
     52 C25        0.6595    7.7523    4.9164 C.2       2 RES2    0.0000
     53 C26       -0.3695    7.4719    4.1029 C.2       2 RES2    0.0000
     54 H22       -1.1888    7.2580    4.4885 H         2 RES2    0.0000
     55 C27       -0.2758    7.4843    2.6354 C.2       2 RES2    0.0000
     56 C28       -1.4688    7.1998    0.6197 C.3       2 RES2    0.0000
     57 H23       -0.8395    6.5310    0.3062 H         2 RES2    0.0000
     58 H24       -1.2059    8.0615    0.2625 H         2 RES2    0.0000
     59 C29       -2.8529    6.8567    0.1739 C.3       2 RES2    0.0000
     60 H25       -3.0943    5.9925    0.5162 H         2 RES2    0.0000
     61 H26       -2.8861    6.8409   -0.7853 H         2 RES2    0.0000
     62 H27       -3.4681    7.5148    0.5053 H         2 RES2    0.0000
     63 C30        0.5693    7.6077    6.3826 C.ar      2 RES2    0.0000
     64 C31       -0.3745    6.7571    6.9727 C.ar      2 RES2    0.0000
     65 H28       -0.9574    6.2775    6.4309 H         2 RES2    0.0000
     66 C32       -0.4546    6.6179    8.3368 C.ar      2 RES2    0.0000
     67 H29       -1.0999    6.0598    8.7058 H         2 RES2    0.0000
     68 C33        0.4240    7.3054    9.1713 C.ar      2 RES2    0.0000
     69 C34        1.3659    8.1508    8.6137 C.ar      2 RES2    0.0000
     70 H30        1.9532    8.6199    9.1608 H         2 RES2    0.0000
     71 C35        1.4310    8.2966    7.2339 C.ar      2 RES2    0.0000
     72 H31        2.0664    8.8691    6.8684 H         2 RES2    0.0000
     73 C36        1.2372    7.6228   11.3930 C.3       2 RES2    0.0000
     74 H32        2.1204    7.3519   11.1316 H         2 RES2    0.0000
     75 H33        1.0601    7.3187   12.2865 H         2 RES2    0.0000
     76 H34        1.1733    8.5800   11.3613 H         2 RES2    0.0000
     77 N2         3.0370    6.0995    4.1247 N.pl3     2 RES2    0.0000
     78 O6         2.1174    5.5484    4.7112 O.2       2 RES2    0.0000
     79 O7         3.9238    5.4806    3.5394 O.2       2 RES2    0.0000
     80 O8         0.7320    7.6473    1.9945 O.2       2 RES2    0.0000
     81 O9        -1.4743    7.2401    2.0734 O.3       2 RES2    0.0000
     82 O10        0.2835    7.0549   10.5008 O.3       2 RES2    0.0000
@<TRIPOS>BOND
     1    1    2 ar
     2    2    3 1
     3    4    2 ar
     4    5    4 1
     5    6    4 ar
     6    7    6 1
     7    8    6 ar
     8    9    8 1
     9   10    1 ar
    10   11   10 1
    11   12   11 2
    12   13   12 1
    13   14   12 1
    14   15   16 1
    15   17   15 1
    16   18   15 1
    17   19   18 1
    18   20   18 1
    19   21   18 1
    20   22   11 1
    21   23   22 ar
    22   24   23 1
    23   25   23 ar
    24   26   25 1
    25   27   25 ar
    26   28   27 ar
    27   29   28 1
    28   30   22 ar
    29   31   30 1
    30   32   33 1
    31   34   32 1
    32   35   32 1
    33   36    1 1
    34   37   36 2
    35   38   36 2
    36   39   14 2
    37   40   14 1
    38   41   27 1
    39   42   43 ar
    40   43   44 1
    41   45   43 ar
    42   46   45 1
    43   47   45 ar
    44   48   47 1
    45   49   47 ar
    46   50   49 1
    47   51   42 ar
    48   52   51 1
    49   53   52 2
    50   54   53 1
    51   55   53 1
    52   56   57 1
    53   58   56 1
    54   59   56 1
    55   60   59 1
    56   61   59 1
    57   62   59 1
    58   63   52 1
    59   64   63 ar
    60   65   64 1
    61   66   64 ar
    62   67   66 1
    63   68   66 ar
    64   69   68 ar
    65   70   69 1
    66   71   63 ar
    67   72   71 1
    68   73   74 1
    69   75   73 1
    70   76   73 1
    71   77   42 1
    72   78   77 2
    73   79   77 2
    74   80   55 2
    75   81   55 1
    76   82   68 1
    77    8   10 ar
    78   15   40 1
    79   28   30 ar
    80   32   41 1
    81   49   51 ar
    82   56   81 1
    83   69   71 ar
    84   73   82 1
@<TRIPOS>SUBSTRUCTURE
     1 RES1 1
     2 RES2 42

@<TRIPOS>CRYSIN
  17.8330    8.3091   21.9167  90.0000  93.5840  90.0000 231 1

