# MOL2 file generated by ConQuest
# Please check atom types

@<TRIPOS>MOLECULE
IQEPIE
    67    60     2
SMALL
NO_CHARGES
****
Generated from CSD

@<TRIPOS>ATOM
      1 N1        -1.2122    8.8711    2.6754 N.2       1 RES1    0.0000
      2 N2        -5.1789    2.6747    5.6471 N.pl3     1 RES1    0.0000
      3 N3        -4.4216    7.3015    4.6486 N.1       1 RES1    0.0000
      4 N4        -4.1680    7.4921    0.3773 N.1       1 RES1    0.0000
      5 O1        -4.5085    3.1674    6.5504 O.2       1 RES1    0.0000
      6 O2        -6.0483    1.8690    5.8708 O.2       1 RES1    0.0000
      7 O3         1.6254    8.6494    1.2508 O.2       1 RES1    0.0000
      8 O4         1.8447    8.6273    3.4692 O.3       1 RES1    0.0000
      9 C1        -1.4764    7.6381    2.6242 C.2       1 RES1    0.0000
     10 C2        -2.8960    6.9257    2.5635 C.3       1 RES1    0.0000
     11 C3        -2.5339    5.3933    2.2315 C.3       1 RES1    0.0000
     12 H1        -2.4877    5.3015    1.2568 H         1 RES1    0.0000
     13 C4        -2.4829    5.4945    3.1705 Du        2 SUP2    0.0000
     14 C5        -1.1762    5.2256    2.7634 C.3       1 RES1    0.0000
     15 H2        -0.7042    4.5389    2.2660 H         1 RES1    0.0000
     16 H3        -1.2120    4.9608    3.6953 H         1 RES1    0.0000
     17 H4        -1.1939    4.7756    1.9149 Du        2 SUP2    0.0000
     18 H5        -0.7289    4.6862    3.4192 Du        2 SUP2    0.0000
     19 C6        -0.4591    6.5669    2.6218 C.2       1 RES1    0.0000
     20 C7         0.8589    6.7509    2.5004 C.2       1 RES1    0.0000
     21 C8         1.8858    5.6446    2.5290 C.3       1 RES1    0.0000
     22 H6         1.4439    4.7961    2.4457 H         1 RES1    0.0000
     23 H7         2.3656    5.6754    3.3597 H         1 RES1    0.0000
     24 H8         2.4995    5.7593    1.7995 H         1 RES1    0.0000
     25 C9        -2.1838    9.9231    2.6944 C.ar      1 RES1    0.0000
     26 C10       -2.6797   10.3710    3.9524 C.ar      1 RES1    0.0000
     27 C11       -3.6010   11.4413    3.9036 C.ar      1 RES1    0.0000
     28 H9        -3.9856   11.7293    4.6986 H         1 RES1    0.0000
     29 C12       -3.9515   12.0701    2.7492 C.ar      1 RES1    0.0000
     30 H10       -4.5623   12.7709    2.7658 H         1 RES1    0.0000
     31 C13       -3.3857   11.6564    1.5317 C.ar      1 RES1    0.0000
     32 H11       -3.6171   12.0949    0.7450 H         1 RES1    0.0000
     33 C14       -2.4765   10.5872    1.4900 C.ar      1 RES1    0.0000
     34 C15       -1.8144   10.1870    0.1976 C.3       1 RES1    0.0000
     35 H12       -2.3643    9.5463   -0.2583 H         1 RES1    0.0000
     36 H13       -0.9569    9.7979    0.3844 H         1 RES1    0.0000
     37 H14       -1.7012   10.9630   -0.3570 H         1 RES1    0.0000
     38 C16       -2.2327    9.7962    5.2436 C.3       1 RES1    0.0000
     39 H15       -1.4486    9.2603    5.1008 H         1 RES1    0.0000
     40 H16       -2.9316    9.2498    5.6102 H         1 RES1    0.0000
     41 H17       -2.0272   10.5068    5.8566 H         1 RES1    0.0000
     42 C17       -3.6169    4.4023    2.7527 C.ar      1 RES1    0.0000
     43 C18       -3.8983    4.0014    4.0452 C.ar      1 RES1    0.0000
     44 H18       -3.4117    4.3465    4.7593 H         1 RES1    0.0000
     45 C19       -4.9143    3.0758    4.2689 C.ar      1 RES1    0.0000
     46 C20       -5.6184    2.5015    3.2312 C.ar      1 RES1    0.0000
     47 H19       -6.2879    1.8763    3.3954 H         1 RES1    0.0000
     48 C21       -5.3090    2.8754    1.9661 C.ar      1 RES1    0.0000
     49 H20       -5.7682    2.4904    1.2544 H         1 RES1    0.0000
     50 C22       -4.3401    3.8033    1.7102 C.ar      1 RES1    0.0000
     51 H21       -4.1571    4.0423    0.8295 H         1 RES1    0.0000
     52 C23       -3.7543    7.2007    3.7274 C.1       1 RES1    0.0000
     53 C24       -3.6313    7.2737    1.3603 C.1       1 RES1    0.0000
     54 C25        1.4522    8.1211    2.3136 C.2       1 RES1    0.0000
     55 C26        2.5320    9.8925    3.4513 C.3       1 RES1    0.0000
     56 H22        3.1829    9.9085    4.1714 Du        2 SUP2    0.0000
     57 H23        3.0133    9.9797    2.6147 Du        2 SUP2    0.0000
     58 H24        2.4842   10.2788    2.5742 H         1 RES1    0.0000
     59 H25        3.4490    9.7267    3.6834 H         1 RES1    0.0000
     60 C27        1.6786   10.9622    3.5930 C.3       1 RES1    0.0000
     61 H26        1.6057   11.4261    2.7563 H         1 RES1    0.0000
     62 H27        2.0225   11.5595    4.2618 H         1 RES1    0.0000
     63 H28        0.8131   10.6470    3.8607 H         1 RES1    0.0000
     64 C28        1.9665   10.8334    4.5558 Du        2 SUP2    0.0000
     65 H29        2.0421   11.7464    4.2666 Du        2 SUP2    0.0000
     66 H30        2.4646   10.7127    5.3662 Du        2 SUP2    0.0000
     67 H31        1.0427   10.6234    4.7129 Du        2 SUP2    0.0000
@<TRIPOS>BOND
     1    1    9 2
     2    2    5 2
     3    3   52 3
     4    4   53 3
     5    6    2 2
     6    7   54 2
     7    8   54 1
     8    9   10 1
     9   10   11 1
    10   11   12 1
    11   14   11 1
    12   15   14 1
    13   16   14 1
    14   19    9 1
    15   20   19 2
    16   21   20 1
    17   22   21 1
    18   23   21 1
    19   24   21 1
    20   25    1 1
    21   26   25 ar
    22   27   26 ar
    23   28   27 1
    24   29   27 ar
    25   30   29 1
    26   31   29 ar
    27   32   31 1
    28   33   25 ar
    29   34   33 1
    30   35   34 1
    31   36   34 1
    32   37   34 1
    33   38   26 1
    34   39   38 1
    35   40   38 1
    36   41   38 1
    37   42   11 1
    38   43   42 ar
    39   44   43 1
    40   45    2 1
    41   46   45 ar
    42   47   46 1
    43   48   46 ar
    44   49   48 1
    45   50   42 ar
    46   51   50 1
    47   52   10 1
    48   53   10 1
    49   54   20 1
    50   55    8 1
    51   58   55 1
    52   59   55 1
    53   60   55 1
    54   61   60 1
    55   62   60 1
    56   63   60 1
    57   14   19 1
    58   31   33 ar
    59   43   45 ar
    60   48   50 ar
@<TRIPOS>SUBSTRUCTURE
     1 RES1 1
     2 SUP2 13

@<TRIPOS>CRYSIN
   9.3780   11.9490   12.9420 109.0600  94.7610 111.5910   2 1

