# MOL2 file generated by ConQuest
# Please check atom types

@<TRIPOS>MOLECULE
IQEXOR
    66    71     1
SMALL
NO_CHARGES
****
Generated from CSD

@<TRIPOS>ATOM
      1 O1        27.8567   -3.0433    7.9918 O.2       1 RES1    0.0000
      2 O2        32.2948   -3.2032    9.2949 O.2       1 RES1    0.0000
      3 N1        29.3412   -1.5563    3.6711 N.pl3     1 RES1    0.0000
      4 N2        31.6438    0.0031    3.6868 N.pl3     1 RES1    0.0000
      5 N3        28.9437   -3.3319    8.6147 N.pl3     1 RES1    0.0000
      6 N4        31.0283   -3.3748    9.2486 N.3       1 RES1    0.0000
      7 C1        30.1059   -1.4613    4.8474 C.ar      1 RES1    0.0000
      8 C2        29.7635   -2.1745    5.9824 C.ar      1 RES1    0.0000
      9 C3        30.5636   -2.1383    7.1309 C.ar      1 RES1    0.0000
     10 C4        31.7101   -1.3486    7.1287 C.ar      1 RES1    0.0000
     11 C5        32.0443   -0.6176    6.0071 C.ar      1 RES1    0.0000
     12 C6        31.2711   -0.6709    4.8496 C.ar      1 RES1    0.0000
     13 C7        30.7696    0.0803    2.5841 C.ar      1 RES1    0.0000
     14 C8        31.0278    0.9105    1.5141 C.ar      1 RES1    0.0000
     15 C9        30.1616    0.9619    0.4195 C.ar      1 RES1    0.0000
     16 C10       29.0314    0.1820    0.4150 C.ar      1 RES1    0.0000
     17 C11       28.7581   -0.6458    1.4894 C.ar      1 RES1    0.0000
     18 C12       29.6106   -0.7101    2.5774 C.ar      1 RES1    0.0000
     19 C13       28.0970   -2.2768    3.7101 C.ar      1 RES1    0.0000
     20 C14       26.9715   -1.6984    4.2619 C.ar      1 RES1    0.0000
     21 C15       25.7789   -2.3901    4.2956 C.ar      1 RES1    0.0000
     22 C16       25.7117   -3.6658    3.7595 C.ar      1 RES1    0.0000
     23 C17       26.8349   -4.2429    3.2077 C.ar      1 RES1    0.0000
     24 C18       28.0316   -3.5555    3.1740 C.ar      1 RES1    0.0000
     25 C19       32.8211    0.8327    3.6989 C.ar      1 RES1    0.0000
     26 C20       33.9941    0.3321    3.1785 C.ar      1 RES1    0.0000
     27 C21       35.1373    1.1206    3.1875 C.ar      1 RES1    0.0000
     28 C22       35.0943    2.3895    3.7214 C.ar      1 RES1    0.0000
     29 C23       33.9125    2.8840    4.2462 C.ar      1 RES1    0.0000
     30 C24       32.7658    2.1034    4.2328 C.ar      1 RES1    0.0000
     31 C25       30.1848   -2.9158    8.3018 C.2       1 RES1    0.0000
     32 C26       28.9479   -4.3373    9.7262 C.3       1 RES1    0.0000
     33 C27       30.3064   -4.0120   10.3924 C.3       1 RES1    0.0000
     34 C28       27.7272   -4.1339   10.6055 C.3       1 RES1    0.0000
     35 C29       28.8983   -5.7085    9.0533 C.3       1 RES1    0.0000
     36 C30       30.2248   -2.9538   11.4848 C.3       1 RES1    0.0000
     37 C31       31.0952   -5.2104   10.8859 C.3       1 RES1    0.0000
     38 H1        28.9675   -2.6928    5.9853 H         1 RES1    0.0000
     39 H2        32.2622   -1.3130    7.9003 H         1 RES1    0.0000
     40 H3        32.8246   -0.0766    6.0206 H         1 RES1    0.0000
     41 H4        31.8042    1.4576    1.5298 H         1 RES1    0.0000
     42 H5        30.3541    1.5305   -0.3185 H         1 RES1    0.0000
     43 H6        28.4339    0.2157   -0.3230 H         1 RES1    0.0000
     44 H7        27.9747   -1.1819    1.4782 H         1 RES1    0.0000
     45 H8        27.0258   -0.8235    4.6298 H         1 RES1    0.0000
     46 H9        25.0051   -1.9931    4.6792 H         1 RES1    0.0000
     47 H10       24.8900   -4.1425    3.7729 H         1 RES1    0.0000
     48 H11       26.7829   -5.1197    2.8443 H         1 RES1    0.0000
     49 H12       28.8053   -3.9507    2.7927 H         1 RES1    0.0000
     50 H13       34.0188   -0.5435    2.8129 H         1 RES1    0.0000
     51 H14       35.9509    0.7910    2.8219 H         1 RES1    0.0000
     52 H15       35.8802    2.9214    3.7393 H         1 RES1    0.0000
     53 H16       33.8860    3.7589    4.6164 H         1 RES1    0.0000
     54 H17       31.9507    2.4410    4.5805 H         1 RES1    0.0000
     55 H18       27.3918   -3.2522   10.4866 H         1 RES1    0.0000
     56 H19       27.0544   -4.7619   10.3700 H         1 RES1    0.0000
     57 H20       27.9730   -4.2589   11.5140 H         1 RES1    0.0000
     58 H21       28.3785   -5.6601    8.2592 H         1 RES1    0.0000
     59 H22       28.5085   -6.3378    9.6499 H         1 RES1    0.0000
     60 H23       29.7817   -5.9830    8.8357 H         1 RES1    0.0000
     61 H24       29.8194   -3.3300   12.2587 H         1 RES1    0.0000
     62 H25       31.0968   -2.6475   11.7024 H         1 RES1    0.0000
     63 H26       29.6993   -2.2247   11.1775 H         1 RES1    0.0000
     64 H27       30.8817   -5.9628   10.3476 H         1 RES1    0.0000
     65 H28       30.8685   -5.3936   11.7899 H         1 RES1    0.0000
     66 H29       32.0265   -5.0297   10.8231 H         1 RES1    0.0000
@<TRIPOS>BOND
     1    1    5 1
     2    2    6 1
     3    3    7 1
     4    4   12 1
     5    5   31 2
     6    6   31 1
     7    7    8 ar
     8    8    9 ar
     9    9   10 ar
    10   10   11 ar
    11   11   12 ar
    12   12    7 ar
    13   13    4 1
    14   14   13 ar
    15   15   14 ar
    16   16   15 ar
    17   17   16 ar
    18   18    3 1
    19   19    3 1
    20   20   19 ar
    21   21   20 ar
    22   22   21 ar
    23   23   22 ar
    24   24   19 ar
    25   25    4 1
    26   26   25 ar
    27   27   26 ar
    28   28   27 ar
    29   29   28 ar
    30   30   25 ar
    31   31    9 1
    32   32    5 1
    33   33    6 1
    34   34   32 1
    35   35   32 1
    36   36   33 1
    37   37   33 1
    38   38    8 1
    39   39   10 1
    40   40   11 1
    41   41   14 1
    42   42   15 1
    43   43   16 1
    44   44   17 1
    45   45   20 1
    46   46   21 1
    47   47   22 1
    48   48   23 1
    49   49   24 1
    50   50   26 1
    51   51   27 1
    52   52   28 1
    53   53   29 1
    54   54   30 1
    55   55   34 1
    56   56   34 1
    57   57   34 1
    58   58   35 1
    59   59   35 1
    60   60   35 1
    61   61   36 1
    62   62   36 1
    63   63   36 1
    64   64   37 1
    65   65   37 1
    66   66   37 1
    67   13   18 ar
    68   17   18 ar
    69   23   24 ar
    70   29   30 ar
    71   32   33 1
@<TRIPOS>SUBSTRUCTURE
     1 RES1 1

@<TRIPOS>CRYSIN
  37.1600    6.1270   24.0910  90.0000 111.3920  90.0000  15 1

