# MOL2 file generated by ConQuest
# Please check atom types

@<TRIPOS>MOLECULE
IQEZIO
    44    47     1
SMALL
NO_CHARGES
****
Generated from CSD

@<TRIPOS>ATOM
      1 O1         9.5432   -1.8949    8.8719 O.2       1 RES1    0.0000
      2 O2        10.6090   -3.3785    7.7133 O.2       1 RES1    0.0000
      3 N1        10.0316   -2.2973    7.8214 N.pl3     1 RES1    0.0000
      4 N2         7.7134   -2.2138    0.0859 N.1       1 RES1    0.0000
      5 N3        10.8128   -0.1897   -2.0644 N.1       1 RES1    0.0000
      6 C1         9.9179   -1.4504    6.6336 C.ar      1 RES1    0.0000
      7 C2         9.4145   -0.1671    6.7717 C.ar      1 RES1    0.0000
      8 H1         9.1534    0.1632    7.6230 H         1 RES1    0.0000
      9 C3        10.3266   -1.9645    5.4093 C.ar      1 RES1    0.0000
     10 H2        10.6840   -2.8422    5.3433 H         1 RES1    0.0000
     11 C4         9.3007    0.6267    5.6378 C.ar      1 RES1    0.0000
     12 H3         8.9744    1.5154    5.7183 H         1 RES1    0.0000
     13 C5        10.1985   -1.1580    4.2820 C.ar      1 RES1    0.0000
     14 H4        10.4797   -1.4876    3.4359 H         1 RES1    0.0000
     15 C6         9.6607    0.1336    4.3775 C.ar      1 RES1    0.0000
     16 C7         9.4644    0.9516    3.1556 C.2       1 RES1    0.0000
     17 C8         9.6718    2.3888    3.2836 C.2       1 RES1    0.0000
     18 H5        10.3194    2.6708    3.9199 H         1 RES1    0.0000
     19 C9         9.0370    3.3645    2.5892 C.2       1 RES1    0.0000
     20 H6         9.2446    4.2592    2.8332 H         1 RES1    0.0000
     21 C10        8.0817    3.1977    1.5221 C.2       1 RES1    0.0000
     22 H7         7.4223    3.8725    1.4098 H         1 RES1    0.0000
     23 C11        8.0576    2.1452    0.6663 C.2       1 RES1    0.0000
     24 C12        7.2183    1.9937   -0.4921 C.2       1 RES1    0.0000
     25 H8         6.5001    2.5817   -0.6967 H         1 RES1    0.0000
     26 C13        7.5514    0.9333   -1.2619 C.2       1 RES1    0.0000
     27 C14        8.6858    0.1464   -0.5621 C.3       1 RES1    0.0000
     28 C15        9.0929    1.0416    0.6820 C.3       1 RES1    0.0000
     29 H9         9.9941    1.4413    0.5113 H         1 RES1    0.0000
     30 C16        9.1207    0.3297    2.0040 C.2       1 RES1    0.0000
     31 H10        8.8887   -0.5916    2.0329 H         1 RES1    0.0000
     32 C17        8.1565   -1.1900   -0.1876 C.1       1 RES1    0.0000
     33 C18        9.8763   -0.0585   -1.4161 C.1       1 RES1    0.0000
     34 C19        6.9520    0.5224   -2.5376 C.ar      1 RES1    0.0000
     35 C20        5.8527    1.2363   -3.0484 C.ar      1 RES1    0.0000
     36 H11        5.4942    1.9611   -2.5496 H         1 RES1    0.0000
     37 C21        7.4626   -0.5354   -3.3035 C.ar      1 RES1    0.0000
     38 H12        8.1981   -1.0396   -2.9764 H         1 RES1    0.0000
     39 C22        5.2838    0.9016   -4.2670 C.ar      1 RES1    0.0000
     40 H13        4.5346    1.3892   -4.5907 H         1 RES1    0.0000
     41 C23        6.9027   -0.8557   -4.5424 C.ar      1 RES1    0.0000
     42 H14        7.2723   -1.5606   -5.0611 H         1 RES1    0.0000
     43 C24        5.8075   -0.1467   -5.0176 C.ar      1 RES1    0.0000
     44 H15        5.4164   -0.3763   -5.8519 H         1 RES1    0.0000
@<TRIPOS>BOND
     1    1    3 2
     2    2    3 2
     3    3    6 1
     4    4   32 3
     5    5   33 3
     6    6    7 ar
     7    7    8 1
     8    9    6 ar
     9   10    9 1
    10   11    7 ar
    11   12   11 1
    12   13    9 ar
    13   14   13 1
    14   15   11 ar
    15   16   15 1
    16   17   16 1
    17   18   17 1
    18   19   17 2
    19   20   19 1
    20   21   19 1
    21   22   21 1
    22   23   21 2
    23   24   23 1
    24   25   24 1
    25   26   24 2
    26   27   26 1
    27   28   23 1
    28   29   28 1
    29   30   16 2
    30   31   30 1
    31   32   27 1
    32   33   27 1
    33   34   26 1
    34   35   34 ar
    35   36   35 1
    36   37   34 ar
    37   38   37 1
    38   39   35 ar
    39   40   39 1
    40   41   37 ar
    41   42   41 1
    42   43   39 ar
    43   44   43 1
    44   13   15 ar
    45   27   28 1
    46   28   30 1
    47   41   43 ar
@<TRIPOS>SUBSTRUCTURE
     1 RES1 1

@<TRIPOS>CRYSIN
  11.6240   11.5770   13.6550  90.0000  93.1460  90.0000  14 1

