# MOL2 file generated by ConQuest
# Please check atom types

@<TRIPOS>MOLECULE
IQIKUO
    37    37     1
SMALL
NO_CHARGES
****
Generated from CSD

@<TRIPOS>ATOM
      1 O1         4.2318    1.1774    4.5176 O.2       1 RES1    0.0000
      2 O2         4.8920    0.3949    2.6595 O.2       1 RES1    0.0000
      3 N1         5.1220    0.7158    3.8250 N.pl3     1 RES1    0.0000
      4 N2        12.1753    1.2933    6.9998 N.3       1 RES1    0.0000
      5 N3         5.7672    2.2537    8.9410 N.3       1 RES1    0.0000
      6 N4         8.1793    0.9408    5.9483 N.ar      1 RES1    0.0000
      7 C1         6.4586    0.5932    4.3251 C.ar      1 RES1    0.0000
      8 C2         7.4092    0.0733    3.4398 C.ar      1 RES1    0.0000
      9 H1         7.1387   -0.2424    2.5858 H         1 RES1    0.0000
     10 C3         8.7141    0.0194    3.7969 C.ar      1 RES1    0.0000
     11 H2         9.3616   -0.3388    3.2026 H         1 RES1    0.0000
     12 C4         9.0978    0.5049    5.0678 C.ar      1 RES1    0.0000
     13 C5         6.8657    1.0001    5.6328 C.ar      1 RES1    0.0000
     14 C6         5.9827    1.4579    6.6778 C.2       1 RES1    0.0000
     15 H3         5.0447    1.4736    6.5269 H         1 RES1    0.0000
     16 C7         6.4751    1.8655    7.8743 C.2       1 RES1    0.0000
     17 H4         7.4205    1.8775    7.9635 H         1 RES1    0.0000
     18 C8         4.3202    2.2193    8.9246 C.3       1 RES1    0.0000
     19 H5         4.0178    1.3299    8.6459 H         1 RES1    0.0000
     20 H6         3.9841    2.8903    8.2945 H         1 RES1    0.0000
     21 H7         3.9787    2.4138    9.8216 H         1 RES1    0.0000
     22 C9         6.4107    2.6517   10.1775 C.3       1 RES1    0.0000
     23 H8         7.3815    2.6748   10.0481 H         1 RES1    0.0000
     24 H9         6.1899    2.0076   10.8819 H         1 RES1    0.0000
     25 H10        6.0938    3.5425   10.4384 H         1 RES1    0.0000
     26 C10       10.4874    0.5543    5.4208 C.2       1 RES1    0.0000
     27 H11       11.1254    0.1548    4.8406 H         1 RES1    0.0000
     28 C11       10.9163    1.1557    6.5604 C.2       1 RES1    0.0000
     29 H12       10.2398    1.5259    7.1156 H         1 RES1    0.0000
     30 C12       13.2955    0.8153    6.2236 C.3       1 RES1    0.0000
     31 H13       13.0577   -0.0329    5.7946 H         1 RES1    0.0000
     32 H14       14.0663    0.6784    6.8127 H         1 RES1    0.0000
     33 H15       13.5224    1.4766    5.5370 H         1 RES1    0.0000
     34 C13       12.4694    2.1782    8.1045 C.3       1 RES1    0.0000
     35 H16       11.6427    2.3779    8.5912 H         1 RES1    0.0000
     36 H17       12.8562    3.0107    7.7621 H         1 RES1    0.0000
     37 H18       13.1089    1.7458    8.7083 H         1 RES1    0.0000
@<TRIPOS>BOND
     1    1    3 2
     2    2    3 2
     3    3    7 1
     4    4   28 1
     5    5   16 1
     6    6   12 ar
     7    7    8 ar
     8    8    9 1
     9   10    8 ar
    10   11   10 1
    11   12   10 ar
    12   13    6 ar
    13   14   13 1
    14   15   14 1
    15   16   14 2
    16   17   16 1
    17   18    5 1
    18   19   18 1
    19   20   18 1
    20   21   18 1
    21   22    5 1
    22   23   22 1
    23   24   22 1
    24   25   22 1
    25   26   12 1
    26   27   26 1
    27   28   26 2
    28   29   28 1
    29   30    4 1
    30   31   30 1
    31   32   30 1
    32   33   30 1
    33   34    4 1
    34   35   34 1
    35   36   34 1
    36   37   34 1
    37    7   13 ar
@<TRIPOS>SUBSTRUCTURE
     1 RES1 1

@<TRIPOS>CRYSIN
  11.8517    7.4800   15.7266  90.0000  96.8390  90.0000 231 1

