# MOL2 file generated by ConQuest
# Please check atom types

@<TRIPOS>MOLECULE
IQILAW02
    39    39     1
SMALL
NO_CHARGES
****
Generated from CSD

@<TRIPOS>ATOM
      1 O1         7.0083    0.5978    9.9968 O.2       1 RES1    0.0000
      2 O2         9.4804   -0.9005    0.7898 O.2       1 RES1    0.0000
      3 O3        10.3682    1.1670   -0.6657 O.3       1 RES1    0.0000
      4 H1        11.0369    0.7272   -0.4869 H         1 RES1    0.0000
      5 N1         6.8114   -1.5762   10.6152 N.am      1 RES1    0.0000
      6 H2         6.8392   -2.3819   10.3161 H         1 RES1    0.0000
      7 N2         9.5912    1.3092    0.4746 N.am      1 RES1    0.0000
      8 H3         9.4068    2.0929    0.7754 H         1 RES1    0.0000
      9 C1         7.0290   -0.4148   12.7800 C.ar      1 RES1    0.0000
     10 H4         7.5849    0.2237   12.3946 H         1 RES1    0.0000
     11 C2         6.7401   -0.3552   14.1262 C.ar      1 RES1    0.0000
     12 H5         7.1003    0.3272   14.6448 H         1 RES1    0.0000
     13 C3         5.9159   -1.3051   14.7126 C.ar      1 RES1    0.0000
     14 H6         5.7128   -1.2506   15.6185 H         1 RES1    0.0000
     15 C4         5.3986   -2.3284   13.9506 C.ar      1 RES1    0.0000
     16 H7         4.8571   -2.9735   14.3456 H         1 RES1    0.0000
     17 C5         5.6868   -2.3992   12.5846 C.ar      1 RES1    0.0000
     18 H8         5.3428   -3.0917   12.0671 H         1 RES1    0.0000
     19 C6         6.4942   -1.4223   12.0032 C.ar      1 RES1    0.0000
     20 C7         7.0716   -0.5911    9.7225 C.2       1 RES1    0.0000
     21 C8         7.5171   -1.0992    8.3669 C.3       1 RES1    0.0000
     22 H9         8.4577   -1.3306    8.4200 H         1 RES1    0.0000
     23 H10        7.0274   -1.9130    8.1686 H         1 RES1    0.0000
     24 C9         7.3274   -0.1381    7.2201 C.3       1 RES1    0.0000
     25 H11        7.6919    0.7272    7.4640 H         1 RES1    0.0000
     26 H12        6.3789   -0.0255    7.0515 H         1 RES1    0.0000
     27 C10        8.0099   -0.6299    5.9477 C.3       1 RES1    0.0000
     28 H13        8.9686   -0.6390    6.0955 H         1 RES1    0.0000
     29 H14        7.7317   -1.5441    5.7804 H         1 RES1    0.0000
     30 C11        7.7192    0.1972    4.7096 C.3       1 RES1    0.0000
     31 H15        7.9253    1.1267    4.8934 H         1 RES1    0.0000
     32 H16        6.7737    0.1381    4.5021 H         1 RES1    0.0000
     33 C12        8.5239   -0.2640    3.5011 C.3       1 RES1    0.0000
     34 H17        8.3514   -1.2057    3.3461 H         1 RES1    0.0000
     35 H18        9.4696   -0.1615    3.6913 H         1 RES1    0.0000
     36 C13        8.1755    0.5320    2.2229 C.3       1 RES1    0.0000
     37 H19        7.2753    0.3042    1.9404 H         1 RES1    0.0000
     38 H20        8.1933    1.4809    2.4237 H         1 RES1    0.0000
     39 C14        9.1390    0.2441    1.0920 C.2       1 RES1    0.0000
@<TRIPOS>BOND
     1    1   20 2
     2    2   39 2
     3    3    4 1
     4    5    6 1
     5    7    3 1
     6    8    7 1
     7    9   10 1
     8   11    9 ar
     9   12   11 1
    10   13   11 ar
    11   14   13 1
    12   15   13 ar
    13   16   15 1
    14   17   15 ar
    15   18   17 1
    16   19    5 1
    17   20    5 1
    18   21   20 1
    19   22   21 1
    20   23   21 1
    21   24   21 1
    22   25   24 1
    23   26   24 1
    24   27   24 1
    25   28   27 1
    26   29   27 1
    27   30   27 1
    28   31   30 1
    29   32   30 1
    30   33   30 1
    31   34   33 1
    32   35   33 1
    33   36   33 1
    34   37   36 1
    35   38   36 1
    36   39    7 1
    37    9   19 ar
    38   17   19 ar
    39   36   39 1
@<TRIPOS>SUBSTRUCTURE
     1 RES1 1

@<TRIPOS>CRYSIN
  15.0270    5.0960   18.2580  90.0000 104.1500  90.0000   5 1

