# MOL2 file generated by ConQuest
# Please check atom types

@<TRIPOS>MOLECULE
IQILAV
    62    64     2
SMALL
NO_CHARGES
****
Generated from CSD

@<TRIPOS>ATOM
      1 O1         3.2348    5.9560   -2.7114 O.2       1 RES1    0.0000
      2 O2         4.2681    4.6184   -4.0319 O.2       1 RES1    0.0000
      3 N1         3.4196    5.4564   -3.8076 N.pl3     1 RES1    0.0000
      4 N2        -0.2745    4.5638   -6.9109 N.ar      1 RES1    0.0000
      5 N3         5.1822   10.0032   -5.2670 N.3       1 RES1    0.0000
      6 C1         2.5498    5.8805   -4.9297 C.ar      1 RES1    0.0000
      7 C2         1.5430    4.9810   -5.3186 C.ar      1 RES1    0.0000
      8 C3         1.2755    3.7352   -4.7204 C.ar      1 RES1    0.0000
      9 H1         1.7846    3.4461   -3.9713 H         1 RES1    0.0000
     10 C4         0.2890    2.9508   -5.2164 C.ar      1 RES1    0.0000
     11 H2         0.1029    2.1077   -4.8196 H         1 RES1    0.0000
     12 C5        -0.4571    3.3919   -6.3206 C.ar      1 RES1    0.0000
     13 H3        -1.1305    2.8167   -6.6649 H         1 RES1    0.0000
     14 C6         0.7304    5.3739   -6.4228 C.ar      1 RES1    0.0000
     15 C7         0.9692    6.6048   -7.0359 C.ar      1 RES1    0.0000
     16 H4         0.4287    6.8690   -7.7711 H         1 RES1    0.0000
     17 C8         1.9592    7.4378   -6.6063 C.ar      1 RES1    0.0000
     18 H5         2.0779    8.2711   -7.0458 H         1 RES1    0.0000
     19 C9         2.8201    7.1075   -5.5260 C.ar      1 RES1    0.0000
     20 C10        3.8889    7.9811   -5.0686 C.2       1 RES1    0.0000
     21 H6         4.4039    7.6996   -4.3216 H         1 RES1    0.0000
     22 C11        4.1979    9.1680   -5.6390 C.2       1 RES1    0.0000
     23 H7         3.6646    9.4387   -6.3762 H         1 RES1    0.0000
     24 C12        5.2737   11.3353   -5.8553 C.3       1 RES1    0.0000
     25 H8         4.7071   11.3791   -6.6530 H         1 RES1    0.0000
     26 H9         6.2040   11.5179   -6.1043 H         1 RES1    0.0000
     27 H10        4.9733   12.0016   -5.2035 H         1 RES1    0.0000
     28 C13        5.9616    9.7224   -4.0904 C.3       1 RES1    0.0000
     29 H11        6.3853    8.8432   -4.1817 H         1 RES1    0.0000
     30 H12        5.3769    9.7236   -3.3037 H         1 RES1    0.0000
     31 H13        6.6529   10.4089   -3.9852 H         1 RES1    0.0000
     32 O3         8.0049    1.6084   -9.0380 O.2       2 RES2    0.0000
     33 O4         7.0568    2.9400   -7.6381 O.2       2 RES2    0.0000
     34 N4         7.2982    2.5540   -8.7751 N.pl3     2 RES2    0.0000
     35 N5         7.0597    6.5102  -11.6670 N.ar      2 RES2    0.0000
     36 N6         3.6209   -0.4826  -10.5320 N.3       2 RES2    0.0000
     37 C14        6.6766    3.2978   -9.8941 C.ar      2 RES2    0.0000
     38 C15        7.2071    4.5655  -10.1828 C.ar      2 RES2    0.0000
     39 C16        8.3092    5.1678   -9.5201 C.ar      2 RES2    0.0000
     40 H14        8.7454    4.7234   -8.8028 H         2 RES2    0.0000
     41 C17        8.7271    6.3910   -9.9348 C.ar      2 RES2    0.0000
     42 H15        9.4481    6.8209   -9.4913 H         2 RES2    0.0000
     43 C18        8.0919    7.0221  -11.0152 C.ar      2 RES2    0.0000
     44 H16        8.4222    7.8681  -11.2960 H         2 RES2    0.0000
     45 C19        6.6118    5.2839  -11.2632 C.ar      2 RES2    0.0000
     46 C20        5.5275    4.6975  -11.9527 C.ar      2 RES2    0.0000
     47 H17        5.1280    5.1650  -12.6769 H         2 RES2    0.0000
     48 C21        5.0455    3.4774  -11.5976 C.ar      2 RES2    0.0000
     49 H18        4.3068    3.1244  -12.0797 H         2 RES2    0.0000
     50 C22        5.5988    2.7027  -10.5370 C.ar      2 RES2    0.0000
     51 C23        5.0629    1.4153  -10.1501 C.2       2 RES2    0.0000
     52 H19        5.3849    1.0271   -9.3445 H         2 RES2    0.0000
     53 C24        4.1360    0.7257  -10.8545 C.2       2 RES2    0.0000
     54 H20        3.8155    1.1300  -11.6531 H         2 RES2    0.0000
     55 C25        2.4166   -0.9359  -11.2136 C.3       2 RES2    0.0000
     56 H21        2.3385   -0.4794  -12.0767 H         2 RES2    0.0000
     57 H22        1.6332   -0.7308  -10.6630 H         2 RES2    0.0000
     58 H23        2.4690   -1.9037  -11.3594 H         2 RES2    0.0000
     59 C26        3.8965   -1.0815   -9.2473 C.3       2 RES2    0.0000
     60 H24        4.8648   -1.1849   -9.1362 H         2 RES2    0.0000
     61 H25        3.4667   -1.9606   -9.1977 H         2 RES2    0.0000
     62 H26        3.5458   -0.5056   -8.5360 H         2 RES2    0.0000
@<TRIPOS>BOND
     1    1    3 2
     2    2    3 2
     3    3    6 1
     4    4   12 ar
     5    5   22 1
     6    6    7 ar
     7    7    8 ar
     8    8    9 1
     9   10    8 ar
    10   11   10 1
    11   12   10 ar
    12   13   12 1
    13   14    4 ar
    14   15   14 ar
    15   16   15 1
    16   17   15 ar
    17   18   17 1
    18   19    6 ar
    19   20   19 1
    20   21   20 1
    21   22   20 2
    22   23   22 1
    23   24    5 1
    24   25   24 1
    25   26   24 1
    26   27   24 1
    27   28    5 1
    28   29   28 1
    29   30   28 1
    30   31   28 1
    31   32   34 2
    32   33   34 2
    33   34   37 1
    34   35   43 ar
    35   36   53 1
    36   37   38 ar
    37   38   39 ar
    38   39   40 1
    39   41   39 ar
    40   42   41 1
    41   43   41 ar
    42   44   43 1
    43   45   35 ar
    44   46   45 ar
    45   47   46 1
    46   48   46 ar
    47   49   48 1
    48   50   37 ar
    49   51   50 1
    50   52   51 1
    51   53   51 2
    52   54   53 1
    53   55   36 1
    54   56   55 1
    55   57   55 1
    56   58   55 1
    57   59   36 1
    58   60   59 1
    59   61   59 1
    60   62   59 1
    61    7   14 ar
    62   17   19 ar
    63   38   45 ar
    64   48   50 ar
@<TRIPOS>SUBSTRUCTURE
     1 RES1 1
     2 RES2 32

@<TRIPOS>CRYSIN
  10.7972   11.4319   11.7065 105.9340 112.8140 101.9360   2 1

