# MOL2 file generated by ConQuest
# Please check atom types

@<TRIPOS>MOLECULE
IQILAW01
    39    39     1
SMALL
NO_CHARGES
****
Generated from CSD

@<TRIPOS>ATOM
      1 O1         5.4266    5.2114    1.7832 O.2       1 RES1    0.0000
      2 O2        -3.5632    2.0433    2.6792 O.2       1 RES1    0.0000
      3 O3        -5.5018    3.5517    3.8856 O.3       1 RES1    0.0000
      4 H1        -5.6914    3.6385    3.0925 H         1 RES1    0.0000
      5 N1         5.4118    6.0332   -0.3145 N.am      1 RES1    0.0000
      6 H2         4.9145    6.1445   -1.0075 H         1 RES1    0.0000
      7 N2        -4.1366    3.7315    4.0570 N.am      1 RES1    0.0000
      8 H3        -3.8572    4.3535    4.5818 H         1 RES1    0.0000
      9 C1         7.5695    6.7115    0.6442 C.ar      1 RES1    0.0000
     10 H4         7.2778    6.5326    1.5088 H         1 RES1    0.0000
     11 C2         8.8475    7.1863    0.4211 C.ar      1 RES1    0.0000
     12 H5         9.4089    7.3382    1.1475 H         1 RES1    0.0000
     13 C3         9.3080    7.4384   -0.8454 C.ar      1 RES1    0.0000
     14 H6        10.1762    7.7438   -0.9798 H         1 RES1    0.0000
     15 C4         8.4708    7.2348   -1.9061 C.ar      1 RES1    0.0000
     16 H7         8.7686    7.4154   -2.7686 H         1 RES1    0.0000
     17 C5         7.1863    6.7624   -1.7103 C.ar      1 RES1    0.0000
     18 H8         6.6302    6.6185   -2.4414 H         1 RES1    0.0000
     19 C6         6.7263    6.5047   -0.4378 C.ar      1 RES1    0.0000
     20 C7         4.8141    5.4287    0.7383 C.2       1 RES1    0.0000
     21 C8         3.3953    5.0342    0.5251 C.3       1 RES1    0.0000
     22 H9         3.3758    4.2366   -0.0260 H         1 RES1    0.0000
     23 H10        2.9500    5.7413    0.0326 H         1 RES1    0.0000
     24 C9         2.6136    4.7638    1.7896 C.3       1 RES1    0.0000
     25 H11        3.0438    4.0473    2.2819 H         1 RES1    0.0000
     26 H12        2.6258    5.5568    2.3470 H         1 RES1    0.0000
     27 C10        1.1823    4.3797    1.5047 C.3       1 RES1    0.0000
     28 H13        1.1766    3.5995    0.9277 H         1 RES1    0.0000
     29 H14        0.7543    5.1050    1.0238 H         1 RES1    0.0000
     30 C11        0.3697    4.0727    2.7478 C.3       1 RES1    0.0000
     31 H15        0.8119    3.3649    3.2422 H         1 RES1    0.0000
     32 H16        0.3549    4.8609    3.3122 H         1 RES1    0.0000
     33 C12       -1.0562    3.6496    2.4662 C.3       1 RES1    0.0000
     34 H17       -1.5103    4.3622    1.9906 H         1 RES1    0.0000
     35 H18       -1.0483    2.8671    1.8929 H         1 RES1    0.0000
     36 C13       -1.8256    3.3299    3.7282 C.3       1 RES1    0.0000
     37 H19       -1.3978    2.5879    4.1846 H         1 RES1    0.0000
     38 H20       -1.8025    4.0982    4.3197 H         1 RES1    0.0000
     39 C14       -3.2585    2.9720    3.4349 C.2       1 RES1    0.0000
@<TRIPOS>BOND
     1    1   20 2
     2    2   39 2
     3    3    4 1
     4    5    6 1
     5    7    3 1
     6    8    7 1
     7    9   10 1
     8   11    9 ar
     9   12   11 1
    10   13   11 ar
    11   14   13 1
    12   15   13 ar
    13   16   15 1
    14   17   15 ar
    15   18   17 1
    16   19    5 1
    17   20    5 1
    18   21   20 1
    19   22   21 1
    20   23   21 1
    21   24   21 1
    22   25   24 1
    23   26   24 1
    24   27   24 1
    25   28   27 1
    26   29   27 1
    27   30   27 1
    28   31   30 1
    29   32   30 1
    30   33   30 1
    31   34   33 1
    32   35   33 1
    33   36   33 1
    34   37   36 1
    35   38   36 1
    36   39    7 1
    37    9   19 ar
    38   17   19 ar
    39   36   39 1
@<TRIPOS>SUBSTRUCTURE
     1 RES1 1

@<TRIPOS>CRYSIN
  10.9630    7.9530   16.4330  90.0000  97.9200  90.0000 231 1

