# MOL2 file generated by ConQuest
# Please check atom types

@<TRIPOS>MOLECULE
IQOGIG
    32    32     2
SMALL
NO_CHARGES
****
Generated from CSD

@<TRIPOS>ATOM
      1 N1         1.3638    3.1513    5.4065 N.ar      1 RES1    0.0000
      2 C1         1.5225    4.4702    5.2552 C.ar      1 RES1    0.0000
      3 C2         2.1361    5.2386    6.2424 C.ar      1 RES1    0.0000
      4 H1         2.2649    6.1467    6.0859 H         1 RES1    0.0000
      5 N2         2.5437    4.7271    7.3960 N.ar      1 RES1    0.0000
      6 C3         2.3572    3.4149    7.5511 C.ar      1 RES1    0.0000
      7 H2         2.6077    3.0131    8.3519 H         1 RES1    0.0000
      8 C4         1.8034    2.6388    6.5578 C.ar      1 RES1    0.0000
      9 H3         1.7327    1.7222    6.6947 H         1 RES1    0.0000
     10 C5         0.9738    5.0706    4.0110 C.2       1 RES1    0.0000
     11 N3         0.5379    4.2305    3.0539 N.3       1 RES1    0.0000
     12 H4         0.1575    4.5990    2.3066 H         1 RES1    0.0000
     13 H5         0.6705    3.2880    3.1869 H         1 RES1    0.0000
     14 N4         0.9142    6.3547    3.9627 N.2       1 RES1    0.0000
     15 O1         0.3539    6.7348    2.7067 O.3       1 RES1    0.0000
     16 H6        -0.0239    7.5592    2.8660 H         1 RES1    0.0000
     17 N5         0.7744   11.8937    2.1557 N.ar      2 RES2    0.0000
     18 C6         0.2611   10.6635    2.1798 C.ar      2 RES2    0.0000
     19 C7         0.2782    9.8597    1.0443 C.ar      2 RES2    0.0000
     20 H7        -0.0934    9.0087    1.0948 H         2 RES2    0.0000
     21 N6         0.8062   10.2611   -0.1149 N.ar      2 RES2    0.0000
     22 C8         1.3203   11.4942   -0.1239 C.ar      2 RES2    0.0000
     23 H8         1.7010   11.8209   -0.9073 H         2 RES2    0.0000
     24 C9         1.3012   12.2882    0.9877 C.ar      2 RES2    0.0000
     25 H9         1.6695   13.1403    0.9313 H         2 RES2    0.0000
     26 C10       -0.3375   10.2047    3.4589 C.2       2 RES2    0.0000
     27 N7        -0.2760   11.0302    4.5234 N.3       2 RES2    0.0000
     28 H10       -0.4714   10.7097    5.3270 H         2 RES2    0.0000
     29 H11        0.2336   11.7353    4.4377 H         2 RES2    0.0000
     30 N8        -0.9086    9.0512    3.4260 N.2       2 RES2    0.0000
     31 O2        -1.4605    8.7227    4.6925 O.3       2 RES2    0.0000
     32 H12       -1.9789    7.8975    4.5006 H         2 RES2    0.0000
@<TRIPOS>BOND
     1    1    2 ar
     2    2    3 ar
     3    3    4 1
     4    5    3 ar
     5    6    5 ar
     6    7    6 1
     7    8    1 ar
     8    9    8 1
     9   10    2 1
    10   11   10 1
    11   12   11 1
    12   13   11 1
    13   14   10 2
    14   15   14 1
    15   16   15 1
    16   17   18 ar
    17   18   19 ar
    18   19   20 1
    19   21   19 ar
    20   22   21 ar
    21   23   22 1
    22   24   17 ar
    23   25   24 1
    24   26   18 1
    25   27   26 1
    26   28   27 1
    27   29   27 1
    28   30   26 2
    29   31   30 1
    30   32   31 1
    31    6    8 ar
    32   22   24 ar
@<TRIPOS>SUBSTRUCTURE
     1 RES1 1
     2 RES2 17

@<TRIPOS>CRYSIN
   3.7805   10.5723   15.0385  90.0000  94.2490  90.0000   4 1

