# MOL2 file generated by ConQuest
# Please check atom types

@<TRIPOS>MOLECULE
IQONAE
    88    88     3
SMALL
NO_CHARGES
****
Generated from CSD

@<TRIPOS>ATOM
      1 O1         5.7741    2.7902    0.4067 O.3       1 RES1    0.0000
      2 O2         6.5456    4.8970    0.7525 O.3       1 RES1    0.0000
      3 H1         6.6429    5.4926    1.3069 H         1 RES1    0.0000
      4 O3         3.6532    2.9852   -0.2224 O.3       1 RES1    0.0000
      5 O4         4.1295   -1.8507    0.8438 O.2       1 RES1    0.0000
      6 O5         5.9622   -0.2993   -1.5399 O.2       1 RES1    0.0000
      7 O6         5.5507    1.5782   -2.5224 O.2       1 RES1    0.0000
      8 O7         0.9907    0.4958   -4.4310 O.2       1 RES1    0.0000
      9 O8         2.8148    0.4258   -3.4713 O.2       1 RES1    0.0000
     10 N1         5.2851    0.6938   -1.7136 N.pl3     1 RES1    0.0000
     11 N2         1.6765    0.6670   -3.4257 N.pl3     1 RES1    0.0000
     12 C1         4.4989    2.4537    0.7997 C.3       1 RES1    0.0000
     13 C2         4.2632    3.1178    2.1660 C.2       1 RES1    0.0000
     14 H2         3.4864    3.0359    2.6702 H         1 RES1    0.0000
     15 C3         5.2893    3.7967    2.5072 C.2       1 RES1    0.0000
     16 H3         5.3915    4.2806    3.2947 H         1 RES1    0.0000
     17 C4         6.2938    3.6731    1.4120 C.3       1 RES1    0.0000
     18 H4         7.1310    3.3113    1.7699 H         1 RES1    0.0000
     19 C5         4.3120    0.9425    0.7113 C.3       1 RES1    0.0000
     20 H5         3.4532    0.7564    1.1439 H         1 RES1    0.0000
     21 C6         4.0640    0.7310   -0.8317 C.3       1 RES1    0.0000
     22 H6         3.5170   -0.0685   -0.9809 H         1 RES1    0.0000
     23 C7         3.2763    1.9802   -1.1927 C.3       1 RES1    0.0000
     24 H7         3.4993    2.2765   -2.0990 H         1 RES1    0.0000
     25 C8         5.3171    0.0893    1.4211 C.3       1 RES1    0.0000
     26 H8         6.1858    0.2427    1.0205 H         1 RES1    0.0000
     27 H9         5.3667    0.3812    2.3442 H         1 RES1    0.0000
     28 C9         5.0472   -1.3683    1.4059 C.2       1 RES1    0.0000
     29 C10        6.0181   -2.2244    2.1309 C.3       1 RES1    0.0000
     30 H10        5.7527   -3.1431    2.0563 H         1 RES1    0.0000
     31 H11        6.0389   -1.9713    3.0570 H         1 RES1    0.0000
     32 H12        6.8920   -2.1113    1.7486 H         1 RES1    0.0000
     33 C11        1.8348    1.7390   -1.0708 C.ar      1 RES1    0.0000
     34 C12        1.0937    1.1599   -2.1035 C.ar      1 RES1    0.0000
     35 C13       -0.2215    1.0259   -1.9756 C.ar      1 RES1    0.0000
     36 H13       -0.7315    0.6596   -2.6610 H         1 RES1    0.0000
     37 C14       -0.8233    1.4487   -0.7799 C.ar      1 RES1    0.0000
     38 H14       -1.7435    1.3519   -0.6976 H         1 RES1    0.0000
     39 C15       -0.1317    2.0026    0.2848 C.ar      1 RES1    0.0000
     40 H15       -0.5627    2.2572    1.0678 H         1 RES1    0.0000
     41 C16        1.1935    2.1515    0.1295 C.ar      1 RES1    0.0000
     42 H16        1.6964    2.5296    0.8134 H         1 RES1    0.0000
     43 O9         7.6459    0.2516    7.2687 O.3       2 RES2    0.0000
     44 O10        6.5314    1.9862    6.1674 O.3       2 RES2    0.0000
     45 H17        6.1211    1.9534    6.8772 H         2 RES2    0.0000
     46 O11        9.4500   -1.0854    7.3357 O.3       2 RES2    0.0000
     47 O12       10.8276    3.1594    9.6844 O.2       2 RES2    0.0000
     48 O13        8.6295    1.0050   11.3569 O.2       2 RES2    0.0000
     49 O14        7.7079   -0.5926   10.2922 O.2       2 RES2    0.0000
     50 O15       11.2061   -3.7342   11.7864 O.2       2 RES2    0.0000
     51 O16       10.2009   -1.8879   11.5397 O.2       2 RES2    0.0000
     52 N3         8.6010    0.1608   10.4323 N.pl3     2 RES2    0.0000
     53 N4        11.0245   -2.7009   11.1497 N.pl3     2 RES2    0.0000
     54 C17        8.9934    0.2382    7.0981 C.3       2 RES2    0.0000
     55 C18        9.2355    0.6030    5.6267 C.2       2 RES2    0.0000
     56 H18       10.0774    0.6417    5.2337 H         2 RES2    0.0000
     57 C19        8.1470    0.8502    4.9991 C.2       2 RES2    0.0000
     58 H19        8.0720    1.0705    4.0989 H         2 RES2    0.0000
     59 C20        7.1006    0.7281    5.8978 C.3       2 RES2    0.0000
     60 H20        6.4241    0.1057    5.5596 H         2 RES2    0.0000
     61 C21        9.6074    1.0750    8.2465 C.3       2 RES2    0.0000
     62 H21       10.5271    1.2715    7.9678 H         2 RES2    0.0000
     63 C22        9.7360    0.1117    9.4544 C.3       2 RES2    0.0000
     64 H22       10.5722    0.3037    9.9282 H         2 RES2    0.0000
     65 C23        9.8581   -1.2656    8.7538 C.3       2 RES2    0.0000
     66 H23        9.2740   -1.9192    9.1925 H         2 RES2    0.0000
     67 C24        8.9777    2.4210    8.5436 C.3       2 RES2    0.0000
     68 H24        8.8969    2.9063    7.7089 H         2 RES2    0.0000
     69 H25        8.0783    2.2661    8.8756 H         2 RES2    0.0000
     70 C25        9.6913    3.3009    9.5291 C.2       2 RES2    0.0000
     71 C26        8.9755    4.3506   10.2968 C.3       2 RES2    0.0000
     72 H26        9.5946    4.8032   10.8756 H         2 RES2    0.0000
     73 H27        8.2828    3.9456   10.8253 H         2 RES2    0.0000
     74 H28        8.5863    4.9833    9.6890 H         2 RES2    0.0000
     75 C27       11.2403   -1.7465    8.7568 C.ar      2 RES2    0.0000
     76 C28       11.7716   -2.4016    9.8885 C.ar      2 RES2    0.0000
     77 C29       13.0331   -2.8006    9.9236 C.ar      2 RES2    0.0000
     78 H29       13.3884   -3.2264   10.6699 H         2 RES2    0.0000
     79 C30       13.8103   -2.5475    8.7705 C.ar      2 RES2    0.0000
     80 H30       14.7049   -2.8006    8.7858 H         2 RES2    0.0000
     81 C31       13.3225   -1.9430    7.6144 C.ar      2 RES2    0.0000
     82 H31       13.8722   -1.8075    6.8757 H         2 RES2    0.0000
     83 C32       12.0330   -1.5604    7.6007 C.ar      2 RES2    0.0000
     84 H32       11.6647   -1.1777    6.8376 H         2 RES2    0.0000
     85 C33        7.0514    0.5956    6.2298 Du        3 SUP3    0.0000
     86 H33        6.4705   -1.1390    5.9694 Du        3 SUP3    0.0000
     87 H34        6.4741    1.3847    6.3852 Du        3 SUP3    0.0000
     88 O17        6.3608   -0.4348    5.5642 Du        3 SUP3    0.0000
@<TRIPOS>BOND
     1    1   12 1
     2    2    3 1
     3    4   12 1
     4    5   28 2
     5    6   10 2
     6    7   10 2
     7    8   11 2
     8    9   11 2
     9   10   21 1
    10   11   34 1
    11   12   13 1
    12   13   14 1
    13   15   13 2
    14   16   15 1
    15   17    1 1
    16   18   17 1
    17   19   12 1
    18   20   19 1
    19   21   19 1
    20   22   21 1
    21   23    4 1
    22   24   23 1
    23   25   19 1
    24   26   25 1
    25   27   25 1
    26   28   25 1
    27   29   28 1
    28   30   29 1
    29   31   29 1
    30   32   29 1
    31   33   23 1
    32   34   33 ar
    33   35   34 ar
    34   36   35 1
    35   37   35 ar
    36   38   37 1
    37   39   37 ar
    38   40   39 1
    39   41   33 ar
    40   42   41 1
    41   43   54 1
    42   44   45 1
    43   46   54 1
    44   47   70 2
    45   48   52 2
    46   49   52 2
    47   50   53 2
    48   51   53 2
    49   52   63 1
    50   53   76 1
    51   54   55 1
    52   55   56 1
    53   57   55 2
    54   58   57 1
    55   59   43 1
    56   60   59 1
    57   61   54 1
    58   62   61 1
    59   63   61 1
    60   64   63 1
    61   65   46 1
    62   66   65 1
    63   67   61 1
    64   68   67 1
    65   69   67 1
    66   70   67 1
    67   71   70 1
    68   72   71 1
    69   73   71 1
    70   74   71 1
    71   75   65 1
    72   76   75 ar
    73   77   76 ar
    74   78   77 1
    75   79   77 ar
    76   80   79 1
    77   81   79 ar
    78   82   81 1
    79   83   75 ar
    80   84   83 1
    81    2   17 1
    82   15   17 1
    83   21   23 1
    84   39   41 ar
    85   44   59 1
    86   57   59 1
    87   63   65 1
    88   81   83 ar
@<TRIPOS>SUBSTRUCTURE
     1 RES1 1
     2 RES2 43
     3 SUP3 85

@<TRIPOS>CRYSIN
  14.8370   14.8890   15.5390  90.0000 101.4100  90.0000  14 1

