# MOL2 file generated by ConQuest
# Please check atom types

@<TRIPOS>MOLECULE
IQONOS
    47    50     1
SMALL
NO_CHARGES
****
Generated from CSD

@<TRIPOS>ATOM
      1 O1         1.8131    5.2386    4.1127 O.3       1 RES1    0.0000
      2 O2         2.6512    4.4123    6.1374 O.3       1 RES1    0.0000
      3 O3         1.2125    2.5595    3.3503 O.3       1 RES1    0.0000
      4 O4         4.3962    3.8588    1.9376 O.3       1 RES1    0.0000
      5 H1         4.9018    3.6990    2.5631 H         1 RES1    0.0000
      6 O5         2.3472    2.0963    0.4240 O.2       1 RES1    0.0000
      7 O6        -2.6403    5.0733   -3.8479 O.2       1 RES1    0.0000
      8 O7        -2.5201    2.9999   -4.3514 O.2       1 RES1    0.0000
      9 N1        -2.1511    3.9741   -3.7074 N.pl3     1 RES1    0.0000
     10 C1         1.7310    4.2198    5.0890 C.3       1 RES1    0.0000
     11 H2         0.8256    4.2165    5.4635 H         1 RES1    0.0000
     12 C2         2.0135    2.8759    4.5128 C.3       1 RES1    0.0000
     13 H3         2.1854    2.1474    5.1455 H         1 RES1    0.0000
     14 C3         2.6342    2.7628    3.1748 C.3       1 RES1    0.0000
     15 H4         3.1696    1.9582    3.0134 H         1 RES1    0.0000
     16 C4         3.0731    4.0317    2.4307 C.3       1 RES1    0.0000
     17 C5         3.0527    5.1908    3.4105 C.3       1 RES1    0.0000
     18 H5         3.7801    5.0907    4.0448 H         1 RES1    0.0000
     19 H6         3.1845    6.0226    2.9295 H         1 RES1    0.0000
     20 C6         2.1924    4.3416    1.2251 C.3       1 RES1    0.0000
     21 H7         1.3571    4.7113    1.5511 H         1 RES1    0.0000
     22 H8         2.6292    5.0342    0.7053 H         1 RES1    0.0000
     23 C7         1.8651    3.1967    0.2954 C.2       1 RES1    0.0000
     24 C8         0.8731    3.4674   -0.8006 C.ar      1 RES1    0.0000
     25 C9         0.4234    4.7374   -1.1234 C.ar      1 RES1    0.0000
     26 H9         0.7786    5.4789   -0.6876 H         1 RES1    0.0000
     27 C10       -0.5616    4.9124   -2.1015 C.ar      1 RES1    0.0000
     28 H10       -0.8668    5.7616   -2.3226 H         1 RES1    0.0000
     29 C11       -1.0682    3.7925   -2.7277 C.ar      1 RES1    0.0000
     30 C12       -0.6270    2.5247   -2.4469 C.ar      1 RES1    0.0000
     31 H11       -0.9676    1.7897   -2.9036 H         1 RES1    0.0000
     32 C13        0.3370    2.3660   -1.4655 C.ar      1 RES1    0.0000
     33 H12        0.6324    1.5113   -1.2493 H         1 RES1    0.0000
     34 C14        2.3202    5.5615    6.9500 C.3       1 RES1    0.0000
     35 H13        1.4699    5.4158    7.3939 H         1 RES1    0.0000
     36 H14        2.2411    6.3487    6.3900 H         1 RES1    0.0000
     37 C15        3.3975    5.7703    7.9733 C.ar      1 RES1    0.0000
     38 C16        4.0903    6.9663    8.0411 C.ar      1 RES1    0.0000
     39 H15        3.9132    7.6470    7.4326 H         1 RES1    0.0000
     40 C17        5.0614    7.1414    9.0354 C.ar      1 RES1    0.0000
     41 H16        5.5130    7.9514    9.0983 H         1 RES1    0.0000
     42 C18        5.3493    6.1509    9.9005 C.ar      1 RES1    0.0000
     43 H17        6.0100    6.2759   10.5429 H         1 RES1    0.0000
     44 C19        4.6866    4.9766    9.8408 C.ar      1 RES1    0.0000
     45 H18        4.8847    4.2992   10.4476 H         1 RES1    0.0000
     46 C20        3.7076    4.7798    8.8756 C.ar      1 RES1    0.0000
     47 H19        3.2560    3.9676    8.8385 H         1 RES1    0.0000
@<TRIPOS>BOND
     1    1   10 1
     2    2   10 1
     3    3   12 1
     4    4    5 1
     5    6   23 2
     6    7    9 2
     7    8    9 2
     8    9   29 1
     9   10   11 1
    10   12   10 1
    11   13   12 1
    12   14    3 1
    13   15   14 1
    14   16    4 1
    15   17    1 1
    16   18   17 1
    17   19   17 1
    18   20   16 1
    19   21   20 1
    20   22   20 1
    21   23   20 1
    22   24   23 1
    23   25   24 ar
    24   26   25 1
    25   27   25 ar
    26   28   27 1
    27   29   27 ar
    28   30   29 ar
    29   31   30 1
    30   32   24 ar
    31   33   32 1
    32   34    2 1
    33   35   34 1
    34   36   34 1
    35   37   34 1
    36   38   37 ar
    37   39   38 1
    38   40   38 ar
    39   41   40 1
    40   42   40 ar
    41   43   42 1
    42   44   42 ar
    43   45   44 1
    44   46   37 ar
    45   47   46 1
    46   12   14 1
    47   14   16 1
    48   16   17 1
    49   30   32 ar
    50   44   46 ar
@<TRIPOS>SUBSTRUCTURE
     1 RES1 1

@<TRIPOS>CRYSIN
   5.2360   10.8730   16.1440  90.0000  91.2200  90.0000   4 1

