# MOL2 file generated by ConQuest
# Please check atom types

@<TRIPOS>MOLECULE
IQOROW
    39    41     1
SMALL
NO_CHARGES
****
Generated from CSD

@<TRIPOS>ATOM
      1 O1         2.6465    4.7391   14.9635 O.3       1 RES1    0.0000
      2 O2         0.5682    6.9092   12.8791 O.3       1 RES1    0.0000
      3 O3         0.5539    4.7449   11.9979 O.3       1 RES1    0.0000
      4 O4         1.7908    5.5911   16.9614 O.3       1 RES1    0.0000
      5 O5         0.3443   10.1752   13.5466 O.2       1 RES1    0.0000
      6 O6         0.7053    9.5987   15.5772 O.2       1 RES1    0.0000
      7 N1         0.9884    9.6133   14.4119 N.pl3     1 RES1    0.0000
      8 C1         2.8808    5.6188   16.0596 C.3       1 RES1    0.0000
      9 H1         3.6817    5.3122   16.5339 H         1 RES1    0.0000
     10 C2         3.1027    7.0523   15.6226 C.3       1 RES1    0.0000
     11 H2         2.9286    7.6425   16.3714 H         1 RES1    0.0000
     12 H3         4.0314    7.1642   15.3652 H         1 RES1    0.0000
     13 C3         2.2219    7.4493   14.4692 C.2       1 RES1    0.0000
     14 C4         1.4757    6.5448   13.8624 C.2       1 RES1    0.0000
     15 C5         1.5082    5.0776   14.1758 C.3       1 RES1    0.0000
     16 H4         0.6880    4.8185   14.6468 H         1 RES1    0.0000
     17 C6         1.6133    4.3157   12.8581 C.3       1 RES1    0.0000
     18 H5         2.4709    4.4920   12.4405 H         1 RES1    0.0000
     19 H6         1.5427    3.3621   13.0200 H         1 RES1    0.0000
     20 C7         2.2337    8.8690   13.9851 C.3       1 RES1    0.0000
     21 H7         2.2958    8.8766   13.0180 H         1 RES1    0.0000
     22 H8         3.0154    9.3212   14.3394 H         1 RES1    0.0000
     23 C8         1.7149    4.3908   17.7182 C.3       1 RES1    0.0000
     24 H9         0.9588    4.4322   18.3094 H         1 RES1    0.0000
     25 H10        2.5183    4.2865   18.2350 H         1 RES1    0.0000
     26 H11        1.6157    3.6426   17.1251 H         1 RES1    0.0000
     27 C9         0.6875    6.1040   11.6861 C.3       1 RES1    0.0000
     28 H12        1.5644    6.2581   11.2777 H         1 RES1    0.0000
     29 C10       -0.3881    6.5371   10.7339 C.ar      1 RES1    0.0000
     30 C11       -0.9519    5.6403    9.8426 C.ar      1 RES1    0.0000
     31 H13       -0.6796    4.7511    9.8467 H         1 RES1    0.0000
     32 C12       -1.9245    6.0619    8.9398 C.ar      1 RES1    0.0000
     33 H14       -2.3067    5.4517    8.3511 H         1 RES1    0.0000
     34 C13       -2.3269    7.3911    8.9130 C.ar      1 RES1    0.0000
     35 H15       -2.9720    7.6778    8.3081 H         1 RES1    0.0000
     36 C14       -1.7558    8.2741    9.7962 C.ar      1 RES1    0.0000
     37 H16       -2.0206    9.1649    9.7841 H         1 RES1    0.0000
     38 C15       -0.7965    7.8663   10.7032 C.ar      1 RES1    0.0000
     39 H17       -0.4237    8.4811   11.2934 H         1 RES1    0.0000
@<TRIPOS>BOND
     1    1    8 1
     2    2   14 1
     3    3   17 1
     4    4    8 1
     5    5    7 2
     6    6    7 2
     7    7   20 1
     8    8    9 1
     9   10    8 1
    10   11   10 1
    11   12   10 1
    12   13   10 1
    13   14   13 2
    14   15    1 1
    15   16   15 1
    16   17   15 1
    17   18   17 1
    18   19   17 1
    19   20   13 1
    20   21   20 1
    21   22   20 1
    22   23    4 1
    23   24   23 1
    24   25   23 1
    25   26   23 1
    26   27    2 1
    27   28   27 1
    28   29   27 1
    29   30   29 ar
    30   31   30 1
    31   32   30 ar
    32   33   32 1
    33   34   32 ar
    34   35   34 1
    35   36   34 ar
    36   37   36 1
    37   38   29 ar
    38   39   38 1
    39    3   27 1
    40   14   15 1
    41   36   38 ar
@<TRIPOS>SUBSTRUCTURE
     1 RES1 1

@<TRIPOS>CRYSIN
   4.9320   15.3310   19.5760  90.0000  90.0000  90.0000  19 1

