# MOL2 file generated by ConQuest
# Please check atom types

@<TRIPOS>MOLECULE
IQORIQ
    43    43     2
SMALL
NO_CHARGES
****
Generated from CSD

@<TRIPOS>ATOM
      1 O1         3.5387    4.0627   32.0323 O.3       1 RES1    0.0000
      2 O2         5.5023    5.7844   34.5734 O.3       1 RES1    0.0000
      3 O3         5.6552    6.9703   32.5840 O.3       1 RES1    0.0000
      4 O4         4.7682    3.0858   30.2948 O.3       1 RES1    0.0000
      5 O5         1.9765    3.9723   28.1262 O.2       1 RES1    0.0000
      6 O6         3.2427    4.0014   26.4916 O.2       1 RES1    0.0000
      7 N1         3.0505    4.2560   27.6726 N.pl3     1 RES1    0.0000
      8 C1         3.6637    3.8662   30.6356 C.3       1 RES1    0.0000
      9 H1         2.8589    3.4034   30.3236 H         1 RES1    0.0000
     10 C2         3.7727    5.1864   29.8784 C.3       1 RES1    0.0000
     11 H2         2.9090    5.6442   29.9511 H         1 RES1    0.0000
     12 C3         4.8328    6.0945   30.4914 C.3       1 RES1    0.0000
     13 H3         5.7151    5.7363   30.3088 H         1 RES1    0.0000
     14 H4         4.7765    6.9769   30.0912 H         1 RES1    0.0000
     15 C4         4.6287    6.1982   31.9773 C.3       1 RES1    0.0000
     16 H5         3.7619    6.6203   32.1529 H         1 RES1    0.0000
     17 C5         4.6349    4.8166   32.5729 C.3       1 RES1    0.0000
     18 H6         5.4832    4.3679   32.3741 H         1 RES1    0.0000
     19 C6         4.4474    4.9377   34.0666 C.3       1 RES1    0.0000
     20 H7         3.5811    5.3266   34.2661 H         1 RES1    0.0000
     21 H8         4.4929    4.0619   34.4800 H         1 RES1    0.0000
     22 C7         5.4553    7.0499   33.9814 C.3       1 RES1    0.0000
     23 H9         4.5791    7.4521   34.1555 H         1 RES1    0.0000
     24 C8         4.6494    1.7125   30.7189 C.3       1 RES1    0.0000
     25 H10        5.4341    1.2265   30.4526 H         1 RES1    0.0000
     26 H11        3.8760    1.3169   30.3088 H         1 RES1    0.0000
     27 H12        4.5600    1.6785   31.6734 H         1 RES1    0.0000
     28 C9         4.0791    5.0015   28.4035 C.3       1 RES1    0.0000
     29 H13        4.1814    5.8748   27.9927 H         1 RES1    0.0000
     30 H14        4.9247    4.5346   28.3172 H         1 RES1    0.0000
     31 C10        6.5179    7.9182   34.5782 C.ar      1 RES1    0.0000
     32 C11        7.1513    7.6229   35.7565 C.ar      1 RES1    0.0000
     33 H15        6.9405    6.8351   36.2061 H         1 RES1    0.0000
     34 C12        8.0915    8.4705   36.2868 C.ar      1 RES1    0.0000
     35 H16        8.5218    8.2474   37.0802 H         1 RES1    0.0000
     36 C13        8.3973    9.6365   35.6547 C.ar      1 RES1    0.0000
     37 H17        9.0333   10.2103   36.0143 H         1 RES1    0.0000
     38 C14        7.7691    9.9574   34.4944 C.ar      1 RES1    0.0000
     39 H18        7.9680   10.7602   34.0670 H         1 RES1    0.0000
     40 C15        6.8419    9.1057   33.9453 C.ar      1 RES1    0.0000
     41 H19        6.4291    9.3280   33.1413 H         1 RES1    0.0000
     42 O7         1.9889    4.7287   27.6202 Du        2 SUP2    0.0000
     43 O8         3.4922    3.1862   27.1739 Du        2 SUP2    0.0000
@<TRIPOS>BOND
     1    1    8 1
     2    2   19 1
     3    3   15 1
     4    4    8 1
     5    5    7 2
     6    6    7 2
     7    7   28 1
     8    8    9 1
     9   10    8 1
    10   11   10 1
    11   12   10 1
    12   13   12 1
    13   14   12 1
    14   15   12 1
    15   16   15 1
    16   17    1 1
    17   18   17 1
    18   19   17 1
    19   20   19 1
    20   21   19 1
    21   22    2 1
    22   23   22 1
    23   24    4 1
    24   25   24 1
    25   26   24 1
    26   27   24 1
    27   28   10 1
    28   29   28 1
    29   30   28 1
    30   31   22 1
    31   32   31 ar
    32   33   32 1
    33   34   32 ar
    34   35   34 1
    35   36   34 ar
    36   37   36 1
    37   38   36 ar
    38   39   38 1
    39   40   31 ar
    40   41   40 1
    41    3   22 1
    42   15   17 1
    43   38   40 ar
@<TRIPOS>SUBSTRUCTURE
     1 RES1 1
     2 SUP2 42

@<TRIPOS>CRYSIN
   5.1660    8.2930   36.8810  90.0000  90.0000  90.0000  19 1

