# MOL2 file generated by ConQuest
# Please check atom types

@<TRIPOS>MOLECULE
IQUTOE
   256   272     4
SMALL
NO_CHARGES
****
Generated from CSD

@<TRIPOS>ATOM
      1 C1         3.4701   17.7327    5.2296 C.ar      1 RES1    0.0000
      2 C2         2.1325   17.5284    4.9627 C.ar      1 RES1    0.0000
      3 H1         1.8539   16.7921    4.4653 H         1 RES1    0.0000
      4 C3         1.2196   18.4375    5.4485 C.ar      1 RES1    0.0000
      5 H2         0.3133   18.3208    5.2775 H         1 RES1    0.0000
      6 C4         1.6439   19.5271    6.1921 C.ar      1 RES1    0.0000
      7 C5         0.6054   20.4634    6.7271 C.2       1 RES1    0.0000
      8 C6         0.2321   22.3279    8.1663 C.3       1 RES1    0.0000
      9 H3        -0.6793   21.9974    8.3049 H         1 RES1    0.0000
     10 C7         0.2734   23.5594    7.2893 C.3       1 RES1    0.0000
     11 H4        -0.4397   24.1738    7.5264 H         1 RES1    0.0000
     12 H5         0.1820   23.3213    6.3540 H         1 RES1    0.0000
     13 C8         1.6518   24.1924    7.5588 C.3       1 RES1    0.0000
     14 H6         2.2739   23.7309    6.9603 H         1 RES1    0.0000
     15 C9         1.7641   25.6754    7.1986 C.3       1 RES1    0.0000
     16 C10        3.1199   26.3445    7.5873 C.3       1 RES1    0.0000
     17 C11        3.3076   27.5141    6.5535 C.3       1 RES1    0.0000
     18 H7         4.1288   27.3122    6.0561 H         1 RES1    0.0000
     19 C12        3.4795   28.9095    7.1054 C.3       1 RES1    0.0000
     20 H8         2.7284   29.1028    7.7039 H         1 RES1    0.0000
     21 C13        4.7844   29.0438    7.8956 C.3       1 RES1    0.0000
     22 H9         4.8112   28.3790    8.5860 H         1 RES1    0.0000
     23 H10        4.8308   29.9172    8.2920 H         1 RES1    0.0000
     24 H11        5.5306   28.9219    7.3036 H         1 RES1    0.0000
     25 C14        3.9286   18.8095    5.9460 C.ar      1 RES1    0.0000
     26 H12        4.8377   18.9304    6.0988 H         1 RES1    0.0000
     27 C15        2.9995   19.7072    6.4330 C.ar      1 RES1    0.0000
     28 H13        3.2845   20.4401    6.9292 H         1 RES1    0.0000
     29 C16        0.8818   22.8008    9.4566 C.3       1 RES1    0.0000
     30 H14        1.2212   22.0498    9.9656 H         1 RES1    0.0000
     31 H15        0.2450   23.2880   10.0032 H         1 RES1    0.0000
     32 C17        2.0378   23.7252    9.0096 C.3       1 RES1    0.0000
     33 H16        2.8296   23.1546    8.9177 H         1 RES1    0.0000
     34 C18        3.4799   25.7659    9.7895 C.3       1 RES1    0.0000
     35 H17        3.7797   26.1502   10.6393 H         1 RES1    0.0000
     36 C19        2.3697   24.7596   10.0809 C.3       1 RES1    0.0000
     37 H18        2.6085   24.2833   10.8906 H         1 RES1    0.0000
     38 H19        1.5600   25.2596   10.2727 H         1 RES1    0.0000
     39 C20        4.6791   25.1758    9.0848 C.3       1 RES1    0.0000
     40 H20        4.7793   24.2357    9.2920 H         1 RES1    0.0000
     41 H21        5.4939   25.6406    9.3283 H         1 RES1    0.0000
     42 C21        4.3450   25.3834    7.6028 C.3       1 RES1    0.0000
     43 H22        4.1230   24.5405    7.1792 H         1 RES1    0.0000
     44 H23        5.0962   25.7787    7.1339 H         1 RES1    0.0000
     45 C22        2.1458   27.3631    5.5470 C.3       1 RES1    0.0000
     46 H24        1.4129   27.9599    5.7711 H         1 RES1    0.0000
     47 H25        2.4415   27.5551    4.6428 H         1 RES1    0.0000
     48 C23        1.7269   25.8963    5.6908 C.3       1 RES1    0.0000
     49 H26        0.8353   25.7501    5.3384 H         1 RES1    0.0000
     50 H27        2.3492   25.3072    5.2348 H         1 RES1    0.0000
     51 C24        3.4931   29.9553    5.9706 C.3       1 RES1    0.0000
     52 H28        4.1666   29.7220    5.3293 H         1 RES1    0.0000
     53 H29        3.6852   30.8221    6.3372 H         1 RES1    0.0000
     54 H30        2.6345   29.9744    5.5418 H         1 RES1    0.0000
     55 C25        0.6127   26.4873    7.8360 C.3       1 RES1    0.0000
     56 H31       -0.1735   26.4121    7.2906 H         1 RES1    0.0000
     57 H32        0.8689   27.4122    7.9008 H         1 RES1    0.0000
     58 H33        0.4277   26.1454    8.7143 H         1 RES1    0.0000
     59 C26       -3.4528    7.5946    7.6922 C.3       2 RES2    0.0000
     60 H34       -4.3380    7.8341    7.9746 H         2 RES2    0.0000
     61 H35       -2.8196    7.8627    8.3619 H         2 RES2    0.0000
     62 H36       -3.4038    6.6435    7.5652 H         2 RES2    0.0000
     63 C27       -3.1300    8.3041    6.3722 C.3       2 RES2    0.0000
     64 H37       -2.2289    8.0341    6.0975 H         2 RES2    0.0000
     65 C28       -3.1335    9.8191    6.5224 C.3       2 RES2    0.0000
     66 H38       -3.9704   10.0391    6.9823 H         2 RES2    0.0000
     67 C29       -1.9910   10.4372    7.3955 C.3       2 RES2    0.0000
     68 C30       -1.2528   11.4216    6.4525 C.3       2 RES2    0.0000
     69 C31       -0.5456   12.5993    7.1429 C.3       2 RES2    0.0000
     70 H39       -1.2644   13.1965    7.4370 H         2 RES2    0.0000
     71 C32        0.3626   13.4646    6.2258 C.3       2 RES2    0.0000
     72 H40        0.8904   12.9013    5.6351 H         2 RES2    0.0000
     73 H41       -0.1698   14.0728    5.6869 H         2 RES2    0.0000
     74 C33        1.2498   14.2276    7.1663 C.3       2 RES2    0.0000
     75 H42        2.0453   14.5824    6.7167 H         2 RES2    0.0000
     76 C34        1.0237   16.3302    8.2790 C.2       2 RES2    0.0000
     77 C35        0.0093   17.3122    8.7531 C.ar      2 RES2    0.0000
     78 C36       -1.3552   17.1522    8.5329 C.ar      2 RES2    0.0000
     79 H43       -1.6585   16.4064    8.0640 H         2 RES2    0.0000
     80 C37       -2.2640   18.0751    8.9967 C.ar      2 RES2    0.0000
     81 H44       -3.1765   17.9637    8.8581 H         2 RES2    0.0000
     82 C38       -1.7798   19.1719    9.6729 C.ar      2 RES2    0.0000
     83 C39       -4.1171    7.8441    5.2762 C.3       2 RES2    0.0000
     84 H45       -4.0972    6.8864    5.2089 H         2 RES2    0.0000
     85 H46       -3.8632    8.2294    4.4342 H         2 RES2    0.0000
     86 H47       -5.0045    8.1294    5.5055 H         2 RES2    0.0000
     87 C40       -0.4815    9.9519    9.0705 C.3       2 RES2    0.0000
     88 H48       -0.1368    9.1961    9.5874 H         2 RES2    0.0000
     89 C41        0.6719   10.9092    8.7998 C.3       2 RES2    0.0000
     90 H49        1.2129   10.5296    8.0886 H         2 RES2    0.0000
     91 H50        1.2256   10.9439    9.5952 H         2 RES2    0.0000
     92 C42        0.3235   12.3407    8.4124 C.3       2 RES2    0.0000
     93 H51       -0.1629   12.7251    9.1703 H         2 RES2    0.0000
     94 C43        1.6004   13.1999    8.2194 C.3       2 RES2    0.0000
     95 H52        1.8484   13.6347    9.0498 H         2 RES2    0.0000
     96 H53        2.3407   12.6489    7.9241 H         2 RES2    0.0000
     97 C44       -0.4401   19.3619    9.9164 C.ar      2 RES2    0.0000
     98 H54       -0.1450   20.1067   10.3880 H         2 RES2    0.0000
     99 C45        0.4593   18.4256    9.4488 C.ar      2 RES2    0.0000
    100 H55        1.3693   18.5399    9.5990 H         2 RES2    0.0000
    101 C46       -0.2459   10.6220    5.5781 C.3       2 RES2    0.0000
    102 H56       -0.0369   11.1249    4.7879 H         2 RES2    0.0000
    103 H57       -0.6368    9.7819    5.3268 H         2 RES2    0.0000
    104 H58        0.5577   10.4629    6.0781 H         2 RES2    0.0000
    105 C47       -2.3980   11.9135    5.5651 C.3       2 RES2    0.0000
    106 H59       -2.0597   12.3488    4.7658 H         2 RES2    0.0000
    107 H60       -2.9704   12.5346    6.0444 H         2 RES2    0.0000
    108 C48       -3.1505   10.6225    5.2166 C.3       2 RES2    0.0000
    109 H61       -4.0597   10.8153    4.9394 H         2 RES2    0.0000
    110 H62       -2.6996   10.1391    4.5068 H         2 RES2    0.0000
    111 C49       -1.6453   10.5453    9.8180 C.3       2 RES2    0.0000
    112 H63       -1.3552   11.2630   10.4022 H         2 RES2    0.0000
    113 H64       -2.1005    9.8724   10.3465 H         2 RES2    0.0000
    114 C50       -2.5450   11.0711    8.7143 C.3       2 RES2    0.0000
    115 H65       -2.5060   12.0393    8.6728 H         2 RES2    0.0000
    116 H66       -3.4650   10.8011    8.8645 H         2 RES2    0.0000
    117 C51        3.5142    9.1961   12.8000 C.3       3 RES3    0.0000
    118 H67        3.5421   10.0391   13.2586 H         3 RES3    0.0000
    119 H68        3.2720    9.3390   11.8829 H         3 RES3    0.0000
    120 H69        4.3778    8.7818   12.8428 H         3 RES3    0.0000
    121 C52        2.4675    8.2789   13.4723 C.3       3 RES3    0.0000
    122 H70        1.5867    8.7008   13.3791 H         3 RES3    0.0000
    123 C53        2.4167    6.9045   12.7974 C.3       3 RES3    0.0000
    124 H71        3.2257    6.4292   13.0824 H         3 RES3    0.0000
    125 C54       -0.2288    4.2828   11.8038 C.3       3 RES3    0.0000
    126 H72        0.4677    3.6004   11.9010 H         3 RES3    0.0000
    127 C55       -0.9399    3.9742   10.4773 C.3       3 RES3    0.0000
    128 H73       -1.2959    4.7862   10.0822 H         3 RES3    0.0000
    129 H74       -0.3270    3.5623    9.8478 H         3 RES3    0.0000
    130 C56       -2.0531    3.0232   10.8375 C.3       3 RES3    0.0000
    131 H75       -2.7565    3.0003   10.1548 H         3 RES3    0.0000
    132 C57       -1.1974    0.9049   10.0887 C.2       3 RES3    0.0000
    133 C58       -0.6237   -0.3919   10.5460 C.ar      3 RES3    0.0000
    134 C59       -0.1915   -1.3135    9.5861 C.ar      3 RES3    0.0000
    135 H76       -0.2420   -1.1001    8.6819 H         3 RES3    0.0000
    136 C60        0.3082   -2.5350    9.9747 C.ar      3 RES3    0.0000
    137 H77        0.5793   -3.1575    9.3374 H         3 RES3    0.0000
    138 C61        0.4019   -2.8274   11.3077 C.ar      3 RES3    0.0000
    139 C62       -2.5482    3.5880   12.1562 C.3       3 RES3    0.0000
    140 H78       -3.0518    2.9193   12.6485 H         3 RES3    0.0000
    141 H79       -3.1149    4.3623   12.0085 H         3 RES3    0.0000
    142 C63       -1.2816    3.9813   12.9166 C.3       3 RES3    0.0000
    143 H80       -0.9738    3.1765   13.3804 H         3 RES3    0.0000
    144 C64        1.6816    5.6772   10.8582 C.3       3 RES3    0.0000
    145 H81        2.2329    4.8862   10.9515 H         3 RES3    0.0000
    146 H82        1.3723    5.7387    9.9410 H         3 RES3    0.0000
    147 C65        2.4465    6.9207   11.2611 C.3       3 RES3    0.0000
    148 H83        2.0169    7.7198   10.9152 H         3 RES3    0.0000
    149 H84        3.3593    6.8864   10.9320 H         3 RES3    0.0000
    150 C66       -0.4003    5.5834   14.7768 C.3       3 RES3    0.0000
    151 H85       -0.7361    5.9530   15.6201 H         3 RES3    0.0000
    152 C67       -1.5803    5.0181   13.9983 C.3       3 RES3    0.0000
    153 H86       -2.0443    5.7625   13.5799 H         3 RES3    0.0000
    154 H87       -2.1935    4.6195   14.6343 H         3 RES3    0.0000
    155 C68        0.6684    4.5490   15.0981 C.3       3 RES3    0.0000
    156 H88        0.3016    3.6527   15.0774 H         3 RES3    0.0000
    157 H89        1.0596    4.7100   15.9712 H         3 RES3    0.0000
    158 C69        1.6997    4.7495   13.9866 C.3       3 RES3    0.0000
    159 H90        1.7446    3.9623   13.4179 H         3 RES3    0.0000
    160 H91        2.5783    4.9100   14.3636 H         3 RES3    0.0000
    161 C70        2.7787    8.1589   14.9504 C.3       3 RES3    0.0000
    162 H92        3.6303    7.7293   15.0644 H         3 RES3    0.0000
    163 H93        2.0977    7.6341   15.3792 H         3 RES3    0.0000
    164 H94        2.8054    9.0342   15.3442 H         3 RES3    0.0000
    165 C71       -0.4638    6.7935   11.4632 C.3       3 RES3    0.0000
    166 H95       -0.1019    7.6293   11.7715 H         3 RES3    0.0000
    167 H96       -1.3153    6.6387   11.8790 H         3 RES3    0.0000
    168 H97       -0.5742    6.8245   10.5097 H         3 RES3    0.0000
    169 C72       -0.4976   -0.7110   11.8842 C.ar      3 RES3    0.0000
    170 H98       -0.7611   -0.0952   12.5293 H         3 RES3    0.0000
    171 C73        0.0138   -1.9302   12.2767 C.ar      3 RES3    0.0000
    172 H99        0.0941   -2.1431   13.1796 H         3 RES3    0.0000
    173 C74        0.7189   23.3666    1.5428 C.ar      4 RES4    0.0000
    174 C75        0.4844   22.6094    0.4132 C.ar      4 RES4    0.0000
    175 H100       0.6858   22.9403   -0.4327 H         4 RES4    0.0000
    176 C76       -0.0603   21.3445    0.5752 C.ar      4 RES4    0.0000
    177 H101      -0.2176   20.8116   -0.1684 H         4 RES4    0.0000
    178 C77       -0.3710   20.8749    1.8395 C.ar      4 RES4    0.0000
    179 C78       -0.9804   19.5276    2.0247 C.2       4 RES4    0.0000
    180 C79       -1.4707   17.4408    0.9431 C.3       4 RES4    0.0000
    181 H102      -2.4199   17.4969    1.1775 H         4 RES4    0.0000
    182 C80       -0.7439   16.4454    1.8032 C.3       4 RES4    0.0000
    183 H103      -1.3329   15.7111    2.0390 H         4 RES4    0.0000
    184 H104      -0.4364   16.8683    2.6206 H         4 RES4    0.0000
    185 C81        0.4602   15.9273    0.9780 C.3       4 RES4    0.0000
    186 H105       1.2417   16.4445    1.2669 H         4 RES4    0.0000
    187 C82        2.6142   12.7708    1.3926 C.3       4 RES4    0.0000
    188 H106       3.5169   13.0489    1.6530 H         4 RES4    0.0000
    189 C83        2.7738   11.3959    0.7203 C.3       4 RES4    0.0000
    190 H107       1.9647   11.2154    0.1969 H         4 RES4    0.0000
    191 C84        3.9574   11.4130   -0.2293 C.3       4 RES4    0.0000
    192 H108       4.7713   11.4916    0.2746 H         4 RES4    0.0000
    193 H109       3.8773   12.1583   -0.8278 H         4 RES4    0.0000
    194 H110       3.9741   10.5963   -0.7358 H         4 RES4    0.0000
    195 C85        2.9401   10.2686    1.7346 C.3       4 RES4    0.0000
    196 H111       3.0788    9.4390    1.2708 H         4 RES4    0.0000
    197 H112       2.1494   10.2058    2.2760 H         4 RES4    0.0000
    198 H113       3.6977   10.4534    2.2955 H         4 RES4    0.0000
    199 C86        1.6942   14.6019   -1.6996 C.3       4 RES4    0.0000
    200 H114       1.8401   14.2966   -2.6206 H         4 RES4    0.0000
    201 C87        0.3675   15.3653   -1.6335 C.3       4 RES4    0.0000
    202 H115      -0.3477   14.7110   -1.5934 H         4 RES4    0.0000
    203 H116       0.2639   15.8492   -2.4678 H         4 RES4    0.0000
    204 C88        1.2119   14.2357    2.6971 C.3       4 RES4    0.0000
    205 H117       1.8884   14.8776    2.9626 H         4 RES4    0.0000
    206 H118       0.4541   14.3062    3.2981 H         4 RES4    0.0000
    207 C89        1.7726   12.8189    2.6802 C.3       4 RES4    0.0000
    208 H119       1.0593   12.1631    2.6530 H         4 RES4    0.0000
    209 H120       2.3235   12.6536    3.4614 H         4 RES4    0.0000
    210 C90       -0.4245   13.5261    0.9301 C.3       4 RES4    0.0000
    211 H121      -1.0329   13.5347    1.6737 H         4 RES4    0.0000
    212 H122      -0.1125   12.6298    0.7798 H         4 RES4    0.0000
    213 H123      -0.8770   13.8442    0.1451 H         4 RES4    0.0000
    214 C91        0.4213   22.9356    2.7981 C.ar      4 RES4    0.0000
    215 H124       0.5884   23.4690    3.5417 H         4 RES4    0.0000
    216 C92       -0.1412   21.6707    2.9328 C.ar      4 RES4    0.0000
    217 H125      -0.3657   21.3592    3.7800 H         4 RES4    0.0000
    218 C93       -1.2751   16.9217   -0.4521 C.3       4 RES4    0.0000
    219 H126      -1.3782   17.6351   -1.0998 H         4 RES4    0.0000
    220 H127      -1.9202   16.2254   -0.6503 H         4 RES4    0.0000
    221 C94        2.9109   15.4101   -1.2488 C.3       4 RES4    0.0000
    222 H128       2.7280   16.3635   -1.2928 H         4 RES4    0.0000
    223 H129       3.6815   15.2110   -1.8045 H         4 RES4    0.0000
    224 C95        3.1535   14.9677    0.1995 C.3       4 RES4    0.0000
    225 H130       3.0791   15.7206    0.8057 H         4 RES4    0.0000
    226 H131       4.0344   14.5729    0.2954 H         4 RES4    0.0000
    227 C96        2.0576   13.9256    0.4884 C.3       4 RES4    0.0000
    228 C97        0.7848   14.4519    1.2423 C.3       4 RES4    0.0000
    229 C98        0.1563   16.3611   -0.4858 C.3       4 RES4    0.0000
    230 H132       0.7434   17.1207   -0.6723 H         4 RES4    0.0000
    231 C99        1.2202    5.9844   13.1718 C.3       3 RES3    0.0000
    232 C100       0.5049    5.6434   11.8311 C.3       3 RES3    0.0000
    233 N1         1.3395   24.7024    1.3498 N.pl3     4 RES4    0.0000
    234 N2         4.4574   16.7273    4.7607 N.pl3     1 RES1    0.0000
    235 N3        -2.7365   20.2053   10.1431 N.pl3     2 RES2    0.0000
    236 N4         0.9423   -4.1395   11.6989 N.pl3     3 RES3    0.0000
    237 O1         1.1184   21.3102    7.6149 O.3       1 RES1    0.0000
    238 O2        -0.5531   20.4253    6.4058 O.2       1 RES1    0.0000
    239 O3         0.4230   15.2753    7.7259 O.3       2 RES2    0.0000
    240 O4        -2.2914   21.2849   10.4955 O.2       2 RES2    0.0000
    241 O5        -1.0762    9.4414    7.8653 O.3       2 RES2    0.0000
    242 O6        -3.9286   19.9200   10.1600 O.2       2 RES2    0.0000
    243 O7        -1.5236    1.6930   11.1292 O.3       3 RES3    0.0000
    244 O8         1.3960   -4.8767   10.8414 O.2       3 RES3    0.0000
    245 O9         0.9154   -4.4333   12.8803 O.2       3 RES3    0.0000
    246 O10       -1.3842    1.1911    8.9345 O.2       3 RES3    0.0000
    247 O11        0.3009    6.6249   14.0778 O.3       3 RES3    0.0000
    248 O12        1.6092   25.0591    0.2163 O.2       4 RES4    0.0000
    249 O13       -0.8278   18.7656    0.9504 O.3       4 RES4    0.0000
    250 O14        1.7076   13.4527   -0.8214 O.3       4 RES4    0.0000
    251 O15       -1.5636   19.1981    3.0326 O.2       4 RES4    0.0000
    252 O16        1.5536   25.3734    2.3525 O.2       4 RES4    0.0000
    253 O17        2.2196   16.4697    8.3788 O.2       2 RES2    0.0000
    254 O18        4.0861   15.9139    3.9316 O.2       1 RES1    0.0000
    255 O19        5.5789   16.7721    5.1959 O.2       1 RES1    0.0000
    256 O20        3.0513   26.8307    8.9366 O.3       1 RES1    0.0000
@<TRIPOS>BOND
     1    1    2 ar
     2    2    3 1
     3    4    2 ar
     4    5    4 1
     5    6    4 ar
     6    7    6 1
     7    8    9 1
     8   10    8 1
     9   11   10 1
    10   12   10 1
    11   13   10 1
    12   14   13 1
    13   15   13 1
    14   16   15 1
    15   17   16 1
    16   18   17 1
    17   19   17 1
    18   20   19 1
    19   21   19 1
    20   22   21 1
    21   23   21 1
    22   24   21 1
    23   25    1 ar
    24   26   25 1
    25   27    6 ar
    26   28   27 1
    27   29    8 1
    28   30   29 1
    29   31   29 1
    30   32   13 1
    31   33   32 1
    32   34   35 1
    33   36   32 1
    34   37   36 1
    35   38   36 1
    36   39   34 1
    37   40   39 1
    38   41   39 1
    39   42   16 1
    40   43   42 1
    41   44   42 1
    42   45   17 1
    43   46   45 1
    44   47   45 1
    45   48   15 1
    46   49   48 1
    47   50   48 1
    48   51   19 1
    49   52   51 1
    50   53   51 1
    51   54   51 1
    52   55   15 1
    53   56   55 1
    54   57   55 1
    55   58   55 1
    56   59   60 1
    57   61   59 1
    58   62   59 1
    59   63   59 1
    60   64   63 1
    61   65   63 1
    62   66   65 1
    63   67   65 1
    64   68   67 1
    65   69   68 1
    66   70   69 1
    67   71   69 1
    68   72   71 1
    69   73   71 1
    70   74   71 1
    71   75   74 1
    72   76   77 1
    73   77   78 ar
    74   78   79 1
    75   80   78 ar
    76   81   80 1
    77   82   80 ar
    78   83   63 1
    79   84   83 1
    80   85   83 1
    81   86   83 1
    82   87   88 1
    83   89   87 1
    84   90   89 1
    85   91   89 1
    86   92   69 1
    87   93   92 1
    88   94   74 1
    89   95   94 1
    90   96   94 1
    91   97   82 ar
    92   98   97 1
    93   99   77 ar
    94  100   99 1
    95  101   68 1
    96  102  101 1
    97  103  101 1
    98  104  101 1
    99  105   68 1
   100  106  105 1
   101  107  105 1
   102  108   65 1
   103  109  108 1
   104  110  108 1
   105  111   87 1
   106  112  111 1
   107  113  111 1
   108  114   67 1
   109  115  114 1
   110  116  114 1
   111  117  118 1
   112  119  117 1
   113  120  117 1
   114  121  117 1
   115  122  121 1
   116  123  121 1
   117  124  123 1
   118  125  126 1
   119  127  125 1
   120  128  127 1
   121  129  127 1
   122  130  127 1
   123  131  130 1
   124  132  133 1
   125  133  134 ar
   126  134  135 1
   127  136  134 ar
   128  137  136 1
   129  138  136 ar
   130  139  130 1
   131  140  139 1
   132  141  139 1
   133  142  125 1
   134  143  142 1
   135  144  145 1
   136  146  144 1
   137  147  123 1
   138  148  147 1
   139  149  147 1
   140  150  151 1
   141  152  142 1
   142  153  152 1
   143  154  152 1
   144  155  150 1
   145  156  155 1
   146  157  155 1
   147  158  155 1
   148  159  158 1
   149  160  158 1
   150  161  121 1
   151  162  161 1
   152  163  161 1
   153  164  161 1
   154  165  166 1
   155  167  165 1
   156  168  165 1
   157  169  133 ar
   158  170  169 1
   159  171  138 ar
   160  172  171 1
   161  173  174 ar
   162  174  175 1
   163  176  174 ar
   164  177  176 1
   165  178  176 ar
   166  179  178 1
   167  180  181 1
   168  182  180 1
   169  183  182 1
   170  184  182 1
   171  185  182 1
   172  186  185 1
   173  187  188 1
   174  189  187 1
   175  190  189 1
   176  191  189 1
   177  192  191 1
   178  193  191 1
   179  194  191 1
   180  195  189 1
   181  196  195 1
   182  197  195 1
   183  198  195 1
   184  199  200 1
   185  201  199 1
   186  202  201 1
   187  203  201 1
   188  204  205 1
   189  206  204 1
   190  207  187 1
   191  208  207 1
   192  209  207 1
   193  210  211 1
   194  212  210 1
   195  213  210 1
   196  214  173 ar
   197  215  214 1
   198  216  178 ar
   199  217  216 1
   200  218  180 1
   201  219  218 1
   202  220  218 1
   203  221  199 1
   204  222  221 1
   205  223  221 1
   206  224  221 1
   207  225  224 1
   208  226  224 1
   209  227  187 1
   210  228  185 1
   211  229  185 1
   212  230  229 1
   213  231  123 1
   214  232  125 1
   215  233  173 1
   216  234    1 1
   217  235   82 1
   218  236  138 1
   219  237    7 1
   220  238    7 2
   221  239   74 1
   222  240  235 2
   223  241   67 1
   224  242  235 2
   225  243  130 1
   226  244  236 2
   227  245  236 2
   228  246  132 2
   229  247  150 1
   230  248  233 2
   231  249  179 1
   232  250  199 1
   233  251  179 2
   234  252  233 2
   235  253   76 2
   236  254  234 2
   237  255  234 2
   238  256   16 1
   239    8  237 1
   240   25   27 ar
   241   29   32 1
   242   34   36 1
   243   34  256 1
   244   39   42 1
   245   45   48 1
   246   76  239 1
   247   87  241 1
   248   89   92 1
   249   92   94 1
   250   97   99 ar
   251  105  108 1
   252  111  114 1
   253  132  243 1
   254  139  142 1
   255  144  147 1
   256  144  232 1
   257  150  152 1
   258  158  231 1
   259  165  232 1
   260  169  171 ar
   261  180  249 1
   262  201  229 1
   263  204  207 1
   264  204  228 1
   265  210  228 1
   266  214  216 ar
   267  218  229 1
   268  224  227 1
   269  227  228 1
   270  227  250 1
   271  231  232 1
   272  231  247 1
@<TRIPOS>SUBSTRUCTURE
     1 RES1 1
     2 RES2 59
     3 RES3 117
     4 RES4 173

@<TRIPOS>CRYSIN
   7.5430   47.6237   13.4683  90.0000 105.8820  90.0000   4 1

