# MOL2 file generated by ConQuest
# Please check atom types

@<TRIPOS>MOLECULE
IQUVIB
    37    38     1
SMALL
NO_CHARGES
****
Generated from CSD

@<TRIPOS>ATOM
      1 N1         1.9394    0.6142   10.9168 N.am      1 RES1    0.0000
      2 C1         2.6537    1.4318   11.9152 C.3       1 RES1    0.0000
      3 H1         2.5172    1.0600   12.7894 H         1 RES1    0.0000
      4 H2         2.3160    2.3302   11.8934 H         1 RES1    0.0000
      5 H3         3.5912    1.4368   11.7131 H         1 RES1    0.0000
      6 C2         1.9411   -0.7234   11.1036 C.2       1 RES1    0.0000
      7 O1         2.6585   -1.2719   11.9424 O.2       1 RES1    0.0000
      8 N2         1.0951   -1.5041   10.3158 N.am      1 RES1    0.0000
      9 C3         0.9731   -2.9256   10.6736 C.3       1 RES1    0.0000
     10 H4         0.3997   -3.0152   11.4371 H         1 RES1    0.0000
     11 H5         1.8416   -3.2789   10.8826 H         1 RES1    0.0000
     12 H6         0.6001   -3.4112    9.9346 H         1 RES1    0.0000
     13 C4         0.2796   -1.0098    9.3232 C.2       1 RES1    0.0000
     14 O2        -0.5424   -1.7186    8.7866 O.2       1 RES1    0.0000
     15 C5         0.5832    0.4002    8.8454 C.3       1 RES1    0.0000
     16 C6         1.6661    0.2445    7.7605 C.3       1 RES1    0.0000
     17 H7         1.8390    1.0977    7.3557 H         1 RES1    0.0000
     18 H8         1.3619   -0.3718    7.0907 H         1 RES1    0.0000
     19 H9         2.4732   -0.0896    8.1602 H         1 RES1    0.0000
     20 C7        -0.6890    1.0944    8.3239 C.3       1 RES1    0.0000
     21 H10       -0.5083    1.5423    7.4827 H         1 RES1    0.0000
     22 H11       -1.3944    0.4446    8.1834 H         1 RES1    0.0000
     23 C8        -1.1070    2.1117    9.3874 C.3       1 RES1    0.0000
     24 H12       -0.9410    3.0152    9.0754 H         1 RES1    0.0000
     25 H13       -2.0519    2.0221    9.5876 H         1 RES1    0.0000
     26 C9        -0.2786    1.8161   10.6148 C.3       1 RES1    0.0000
     27 H14       -0.1296    2.6292   11.1407 H         1 RES1    0.0000
     28 N3        -0.9265    0.7896   11.4164 N.3       1 RES1    0.0000
     29 O3        -0.3588    0.8787   12.7467 O.3       1 RES1    0.0000
     30 C10       -0.6086   -0.3098   13.4489 C.3       1 RES1    0.0000
     31 H15       -1.5557   -0.4421   13.5257 H         1 RES1    0.0000
     32 H16       -0.2216   -0.2504   14.3248 H         1 RES1    0.0000
     33 H17       -0.2191   -1.0491   12.9766 H         1 RES1    0.0000
     34 C11        1.0383    1.3075   10.0060 C.3       1 RES1    0.0000
     35 O4         1.6554    2.4789    9.5374 O.3       1 RES1    0.0000
     36 H18        2.4047    2.3001    9.2584 H         1 RES1    0.0000
     37 H19       -1.7862    1.0801   11.5437 H         1 RES1    0.0000
@<TRIPOS>BOND
     1    1    2 1
     2    2    3 1
     3    4    2 1
     4    5    2 1
     5    6    1 1
     6    7    6 2
     7    8    6 1
     8    9    8 1
     9   10    9 1
    10   11    9 1
    11   12    9 1
    12   13    8 1
    13   14   13 2
    14   15   13 1
    15   16   15 1
    16   17   16 1
    17   18   16 1
    18   19   16 1
    19   20   15 1
    20   21   20 1
    21   22   20 1
    22   23   20 1
    23   24   23 1
    24   25   23 1
    25   26   23 1
    26   27   26 1
    27   28   26 1
    28   29   28 1
    29   30   29 1
    30   31   30 1
    31   32   30 1
    32   33   30 1
    33   34    1 1
    34   35   34 1
    35   36   35 1
    36   37   28 1
    37   15   34 1
    38   26   34 1
@<TRIPOS>SUBSTRUCTURE
     1 RES1 1

@<TRIPOS>CRYSIN
  11.0747    8.3731   13.9452  90.0000 101.6170  90.0000  14 1

