# MOL2 file generated by ConQuest
# Please check atom types

@<TRIPOS>MOLECULE
IQUWOH
    44    47     1
SMALL
NO_CHARGES
****
Generated from CSD

@<TRIPOS>ATOM
      1 C1         5.4699    7.6488    8.3147 C.2       1 RES1    0.0000
      2 C2         4.5417    8.6306    8.2700 C.2       1 RES1    0.0000
      3 C3         3.2761    7.9721    8.4570 C.ar      1 RES1    0.0000
      4 C4         3.5547    6.6262    8.6169 C.ar      1 RES1    0.0000
      5 C5         7.6546    6.7848    8.2551 C.2       1 RES1    0.0000
      6 C6         9.0702    6.9903    8.0908 C.ar      1 RES1    0.0000
      7 C7         9.6087    8.2280    7.7644 C.ar      1 RES1    0.0000
      8 C8        10.9782    8.4251    7.6872 C.ar      1 RES1    0.0000
      9 C9        11.8240    7.3712    7.9176 C.ar      1 RES1    0.0000
     10 C10       11.3211    6.1275    8.2144 C.ar      1 RES1    0.0000
     11 C11        9.9599    5.9292    8.2957 C.ar      1 RES1    0.0000
     12 C12        4.3970   11.0436    8.7674 C.ar      1 RES1    0.0000
     13 C13        4.7522   12.3318    8.3323 C.ar      1 RES1    0.0000
     14 C14        4.4502   13.4254    9.0736 C.ar      1 RES1    0.0000
     15 C15        3.7495   13.2535   10.2717 C.ar      1 RES1    0.0000
     16 C16        3.3653   12.0158   10.7108 C.ar      1 RES1    0.0000
     17 C17        3.6976   10.9054    9.9614 C.ar      1 RES1    0.0000
     18 C18        1.9384    8.3686    8.4475 C.ar      1 RES1    0.0000
     19 C19        0.9646    7.4037    8.6061 C.ar      1 RES1    0.0000
     20 C20        1.2883    6.0698    8.7619 C.ar      1 RES1    0.0000
     21 C21        2.5957    5.6348    8.7755 C.ar      1 RES1    0.0000
     22 N1         3.4989   14.4132   11.1025 N.pl3     1 RES1    0.0000
     23 N2         6.8291    7.7858    8.1526 N.2       1 RES1    0.0000
     24 N3         4.7902    9.9741    7.9885 N.pl3     1 RES1    0.0000
     25 O1         4.9208    6.4052    8.5421 O.3       1 RES1    0.0000
     26 O2         8.8058    9.3048    7.5065 O.3       1 RES1    0.0000
     27 O3         5.4605   12.3601    7.1559 O.3       1 RES1    0.0000
     28 O4         2.8241   14.2810   12.1214 O.2       1 RES1    0.0000
     29 O5         3.9890   15.4863   10.7800 O.2       1 RES1    0.0000
     30 H1         8.0264    9.0849    7.6303 H         1 RES1    0.0000
     31 H2         5.6021   13.1430    6.9391 H         1 RES1    0.0000
     32 H3         7.3128    5.9088    8.4529 H         1 RES1    0.0000
     33 H4        11.3106    9.2891    7.4798 H         1 RES1    0.0000
     34 H5        12.7783    7.5118    7.8566 H         1 RES1    0.0000
     35 H6        11.8960    5.4245    8.3784 H         1 RES1    0.0000
     36 H7         9.6160    5.0700    8.5031 H         1 RES1    0.0000
     37 H8         5.2443   10.1423    7.2996 H         1 RES1    0.0000
     38 H9         4.6996   14.2906    8.8067 H         1 RES1    0.0000
     39 H10        2.9100   11.9245   11.5511 H         1 RES1    0.0000
     40 H11        3.4813   10.0534   10.2419 H         1 RES1    0.0000
     41 H12        0.0643    7.6729    8.6183 H         1 RES1    0.0000
     42 H13        0.5815    5.4449    8.8717 H         1 RES1    0.0000
     43 H14        2.8301    4.7239    8.9042 H         1 RES1    0.0000
     44 H15        1.7048    9.2507    8.3228 H         1 RES1    0.0000
@<TRIPOS>BOND
     1    1    2 2
     2    2    3 1
     3    3    4 ar
     4    4   21 ar
     5    5    6 1
     6    6    7 ar
     7    7    8 ar
     8    8    9 ar
     9    9   10 ar
    10   10   11 ar
    11   11    6 ar
    12   12   13 ar
    13   13   14 ar
    14   14   15 ar
    15   15   16 ar
    16   16   17 ar
    17   17   12 ar
    18   18    3 ar
    19   19   18 ar
    20   20   19 ar
    21   21   20 ar
    22   22   15 1
    23   23    1 1
    24   24    2 1
    25   25    1 1
    26   26    7 1
    27   27   13 1
    28   28   22 2
    29   29   22 2
    30   30   26 1
    31   31   27 1
    32   32    5 1
    33   33    8 1
    34   34    9 1
    35   35   10 1
    36   36   11 1
    37   37   24 1
    38   38   14 1
    39   39   16 1
    40   40   17 1
    41   41   19 1
    42   42   20 1
    43   43   21 1
    44   44   18 1
    45    4   25 1
    46    5   23 2
    47   12   24 1
@<TRIPOS>SUBSTRUCTURE
     1 RES1 1

@<TRIPOS>CRYSIN
  22.0170   12.0170   15.2890  90.0000 117.5700  90.0000  15 1

