# MOL2 file generated by ConQuest
# Please check atom types

@<TRIPOS>MOLECULE
IRAGAJ
    28    29     1
SMALL
USER_CHARGES
****
Generated from CSD

@<TRIPOS>ATOM
      1 N1         0.4515    1.5328   11.2815 N.pl3     1 RES1    1.0000
      2 C1         4.5091   -0.5132    4.0205 C.ar      1 RES1    0.0000
      3 O1         5.3742   -0.8001    2.9988 O.3       1 RES1    0.0000
      4 C2         2.8271   -0.1071    6.2145 C.ar      1 RES1    0.0000
      5 C3         0.6131    0.9202   10.0544 C.2       1 RES1    0.0000
      6 C4         1.6947    1.4708    9.5129 C.2       1 RES1    0.0000
      7 C5         4.7706   -1.1317    5.2315 C.ar      1 RES1    0.0000
      8 O2         2.1732    2.3811   10.3922 O.3       1 RES1    0.0000
      9 C6         2.5814    0.4882    4.9907 C.ar      1 RES1    0.0000
     10 C7         3.4091    0.3043    3.9035 C.ar      1 RES1    0.0000
     11 O3        -0.4575    1.2975   12.1370 O.2       1 RES1   -1.0000
     12 C8         2.4507    1.2932    8.2521 C.3       1 RES1    0.0000
     13 C9         3.9463   -0.9202    6.3071 C.ar      1 RES1    0.0000
     14 C10        1.9391    0.1455    7.4074 C.3       1 RES1    0.0000
     15 C11        5.3005   -0.0259    1.8255 C.3       1 RES1    0.0000
     16 N2         1.3716    2.4124   11.5223 N.2       1 RES1    0.0000
     17 H1        -0.1116    0.1499    9.7724 H         1 RES1    0.0000
     18 H2         5.5249   -1.7172    5.3250 H         1 RES1    0.0000
     19 H3         1.8000    1.0353    4.8818 H         1 RES1    0.0000
     20 H4         3.2301    0.7515    3.0737 H         1 RES1    0.0000
     21 H5         2.4042    2.0956    7.7262 H         1 RES1    0.0000
     22 H6         3.3672    1.0996    8.4605 H         1 RES1    0.0000
     23 H7         4.1554   -1.3495    7.1397 H         1 RES1    0.0000
     24 H8         1.0580    0.3722    7.1000 H         1 RES1    0.0000
     25 H9         1.8955   -0.6480    7.9467 H         1 RES1    0.0000
     26 H10        5.9572   -0.3374    1.1973 H         1 RES1    0.0000
     27 H11        5.4692    0.8961    2.0352 H         1 RES1    0.0000
     28 H12        4.4246   -0.1116    1.4420 H         1 RES1    0.0000
@<TRIPOS>BOND
     1    1    5 1
     2    2    3 1
     3    3   15 1
     4    4    9 ar
     5    5    6 2
     6    6    8 1
     7    7    2 ar
     8    8   16 1
     9    9   10 ar
    10   10    2 ar
    11   11    1 1
    12   12    6 1
    13   13    4 ar
    14   14    4 1
    15   15   26 1
    16   16    1 2
    17   17    5 1
    18   18    7 1
    19   19    9 1
    20   20   10 1
    21   21   12 1
    22   22   12 1
    23   23   13 1
    24   24   14 1
    25   25   14 1
    26   27   15 1
    27   28   15 1
    28    7   13 ar
    29   12   14 1
@<TRIPOS>SUBSTRUCTURE
     1 RES1 1

@<TRIPOS>CRYSIN
   5.6130    8.9250   22.1540  90.0000  95.5630  90.0000  14 1

