# MOL2 file generated by ConQuest
# Please check atom types

@<TRIPOS>MOLECULE
IREPIG
    64    62     2
SMALL
NO_CHARGES
****
Generated from CSD

@<TRIPOS>ATOM
      1 C1        10.0592    0.2945    3.9248 C.2       1 RES1    0.0000
      2 C2         8.5985    1.4746    5.3392 C.3       1 RES1    0.0000
      3 C3         8.1568    2.9068    5.1367 C.3       1 RES1    0.0000
      4 N1         7.4687    3.4062    6.3978 N.pl3     1 RES1    0.0000
      5 N2         7.1637    3.0430    3.9963 N.pl3     1 RES1    0.0000
      6 N3         9.3069    3.8659    4.8423 N.pl3     1 RES1    0.0000
      7 O1        10.8990    0.1929    4.7622 O.2       1 RES1    0.0000
      8 O2         8.8723    0.9092    4.0532 O.3       1 RES1    0.0000
      9 O3         8.0562    3.1208    7.4227 O.2       1 RES1    0.0000
     10 O4         6.4242    4.0108    6.2773 O.2       1 RES1    0.0000
     11 O5         6.3100    2.1771    3.9574 O.2       1 RES1    0.0000
     12 O6         7.2885    3.9766    3.2422 O.2       1 RES1    0.0000
     13 O7         9.2616    4.9574    5.3605 O.2       1 RES1    0.0000
     14 O8        10.1604    3.4337    4.0963 O.2       1 RES1    0.0000
     15 H1         9.3954    1.4703    5.9017 H         1 RES1    0.0000
     16 H2         7.8470    1.0032    5.7086 H         1 RES1    0.0000
     17 C4         4.1542   20.9267    6.1683 C.2       2 RES2    0.0000
     18 C5         5.0774   18.9769    5.2774 C.3       2 RES2    0.0000
     19 C6         6.2612   18.6763    4.3819 C.3       2 RES2    0.0000
     20 N4         6.2000   19.3966    3.0372 N.pl3     2 RES2    0.0000
     21 N5         6.3304   17.1923    4.0662 N.pl3     2 RES2    0.0000
     22 N6         7.5815   19.0418    5.0465 N.pl3     2 RES2    0.0000
     23 O9         3.0518   20.4787    6.1185 O.2       2 RES2    0.0000
     24 O10        5.2739   20.3047    5.7766 O.3       2 RES2    0.0000
     25 O11        5.9815   20.5812    3.0821 O.2       2 RES2    0.0000
     26 O12        6.3448   18.7202    2.0474 O.2       2 RES2    0.0000
     27 O13        5.2582   16.6426    3.9414 O.2       2 RES2    0.0000
     28 O14        7.4230   16.7010    3.9458 O.2       2 RES2    0.0000
     29 O15        8.3827   19.6776    4.4029 O.2       2 RES2    0.0000
     30 O16        7.6956   18.6376    6.1838 O.2       2 RES2    0.0000
     31 H3         4.2718   18.9101    4.7625 H         2 RES2    0.0000
     32 H4         5.0728   18.3674    5.9918 H         2 RES2    0.0000
     33 C1B       10.1505   -0.2945    2.5111 C.2       1 RES1    0.0000
     34 C2B       11.6111   -1.4746    1.0967 C.3       1 RES1    0.0000
     35 C3B       12.0529   -2.9068    1.2991 C.3       1 RES1    0.0000
     36 N1B       12.7410   -3.4062    0.0381 N.pl3     1 RES1    0.0000
     37 N2B       13.0460   -3.0430    2.4396 N.pl3     1 RES1    0.0000
     38 N3B       10.9028   -3.8659    1.5936 N.pl3     1 RES1    0.0000
     39 O1B        9.3107   -0.1929    1.6736 O.2       1 RES1    0.0000
     40 O2B       11.3374   -0.9092    2.3827 O.3       1 RES1    0.0000
     41 O3B       12.1535   -3.1208   -0.9868 O.2       1 RES1    0.0000
     42 O4B       13.7855   -4.0108    0.1586 O.2       1 RES1    0.0000
     43 O5B       13.8996   -2.1771    2.4785 O.2       1 RES1    0.0000
     44 O6B       12.9212   -3.9766    3.1937 O.2       1 RES1    0.0000
     45 O7B       10.9481   -4.9574    1.0754 O.2       1 RES1    0.0000
     46 O8B       10.0493   -3.4337    2.3396 O.2       1 RES1    0.0000
     47 H1B       10.8143   -1.4703    0.5342 H         1 RES1    0.0000
     48 H2B       12.3626   -1.0032    0.7273 H         1 RES1    0.0000
     49 C4B        4.5105   22.3161    6.7034 C.2       2 RES2    0.0000
     50 C5B        3.5873   24.2659    7.5943 C.3       2 RES2    0.0000
     51 C6B        2.4035   24.5665    8.4898 C.3       2 RES2    0.0000
     52 N4B        2.4646   23.8462    9.8346 N.pl3     2 RES2    0.0000
     53 N5B        2.3342   26.0505    8.8056 N.pl3     2 RES2    0.0000
     54 N6B        1.0832   24.2010    7.8253 N.pl3     2 RES2    0.0000
     55 O9B        5.6129   22.7641    6.7532 O.2       2 RES2    0.0000
     56 O10B       3.3908   22.9381    7.0951 O.3       2 RES2    0.0000
     57 O11B       2.6831   22.6616    9.7896 O.2       2 RES2    0.0000
     58 O12B       2.3198   24.5226   10.8243 O.2       2 RES2    0.0000
     59 O13B       3.4065   26.6002    8.9304 O.2       2 RES2    0.0000
     60 O14B       1.2417   26.5418    8.9259 O.2       2 RES2    0.0000
     61 O15B       0.2820   23.5652    8.4688 O.2       2 RES2    0.0000
     62 O16B       0.9690   24.6052    6.6880 O.2       2 RES2    0.0000
     63 H3B        4.3928   24.3327    8.1092 H         2 RES2    0.0000
     64 H4B        3.5918   24.8754    6.8800 H         2 RES2    0.0000
@<TRIPOS>BOND
     1    1    7 2
     2    2    3 1
     3    3    4 1
     4    4    9 2
     5    5    3 1
     6    6    3 1
     7    8    1 1
     8   10    4 2
     9   11    5 2
    10   12    5 2
    11   13    6 2
    12   14    6 2
    13   15    2 1
    14   16    2 1
    15   17   23 2
    16   18   19 1
    17   19   20 1
    18   20   25 2
    19   21   19 1
    20   22   19 1
    21   24   17 1
    22   26   20 2
    23   27   21 2
    24   28   21 2
    25   29   22 2
    26   30   22 2
    27   31   18 1
    28   32   18 1
    29   33    1 1
    30   34   35 1
    31   35   36 1
    32   36   41 2
    33   37   35 1
    34   38   35 1
    35   39   33 2
    36   40   33 1
    37   42   36 2
    38   43   37 2
    39   44   37 2
    40   45   38 2
    41   46   38 2
    42   47   34 1
    43   48   34 1
    44   49   17 1
    45   50   51 1
    46   51   52 1
    47   52   57 2
    48   53   51 1
    49   54   51 1
    50   55   49 2
    51   56   49 1
    52   58   52 2
    53   59   53 2
    54   60   53 2
    55   61   54 2
    56   62   54 2
    57   63   50 1
    58   64   50 1
    59    2    8 1
    60   18   24 1
    61   34   40 1
    62   50   56 1
@<TRIPOS>SUBSTRUCTURE
     1 RES1 1
     2 RES2 17

@<TRIPOS>CRYSIN
  10.5849   21.6214    6.5071  90.0000  98.4850  90.0000  14 1

