# MOL2 file generated by ConQuest
# Please check atom types

@<TRIPOS>MOLECULE
IREPIG01
    64    62     2
SMALL
NO_CHARGES
****
Generated from CSD

@<TRIPOS>ATOM
      1 C1         4.7520   11.1070    3.9150 C.2       1 RES1    0.0000
      2 C2         3.2990   12.2960    5.3227 C.3       1 RES1    0.0000
      3 H1         4.1145   12.2702    5.8831 H         1 RES1    0.0000
      4 H2         2.5891   11.7792    5.7804 H         1 RES1    0.0000
      5 C3         2.8510   13.7268    5.1211 C.3       1 RES1    0.0000
      6 N1         1.8685   13.8624    3.9882 N.pl3     1 RES1    0.0000
      7 N2         3.9942   14.6910    4.8284 N.pl3     1 RES1    0.0000
      8 N3         2.1688   14.2228    6.3773 N.pl3     1 RES1    0.0000
      9 O1         3.5672   11.7303    4.0402 O.3       1 RES1    0.0000
     10 O2         1.0102   12.9958    3.9484 O.2       1 RES1    0.0000
     11 O3         1.9818   14.7924    3.2352 O.2       1 RES1    0.0000
     12 O4         4.8525   14.2538    4.0832 O.2       1 RES1    0.0000
     13 O5         3.9484   15.7759    5.3413 O.2       1 RES1    0.0000
     14 O6         2.7568   13.9355    7.4025 O.2       1 RES1    0.0000
     15 O7         1.1238   14.8294    6.2586 O.2       1 RES1    0.0000
     16 O8         5.5894   11.0051    4.7533 O.2       1 RES1    0.0000
     17 C4        -1.1325   10.1229    6.1456 C.2       2 RES2    0.0000
     18 C5        -0.2184    8.1660    5.2662 C.3       2 RES2    0.0000
     19 H3        -1.0602    8.1167    4.7475 H         2 RES2    0.0000
     20 H4        -0.2675    7.5196    6.0134 H         2 RES2    0.0000
     21 C6         0.9728    7.8601    4.3759 C.3       2 RES2    0.0000
     22 N4         0.9130    8.5967    3.0356 N.pl3     2 RES2    0.0000
     23 N5         1.0351    6.3865    4.0575 N.pl3     2 RES2    0.0000
     24 N6         2.2794    8.2363    5.0402 N.pl3     2 RES2    0.0000
     25 O9        -0.0143    9.5001    5.7669 O.3       2 RES2    0.0000
     26 O10        0.6909    9.7788    3.0747 O.2       2 RES2    0.0000
     27 O11        1.0593    7.9118    2.0470 O.2       2 RES2    0.0000
     28 O12       -0.0333    5.8342    3.9330 O.2       2 RES2    0.0000
     29 O13        2.1278    5.8937    3.9407 O.2       2 RES2    0.0000
     30 O14        2.4004    7.8292    6.1687 O.2       2 RES2    0.0000
     31 O15        3.0844    8.8700    4.3977 O.2       2 RES2    0.0000
     32 O16       -2.2296    9.6758    6.1007 O.2       2 RES2    0.0000
     33 C1B        4.8441   10.5260    2.5041 C.2       1 RES1    0.0000
     34 C2B        6.2971    9.3370    1.0964 C.3       1 RES1    0.0000
     35 H1B        5.4815    9.3628    0.5360 H         1 RES1    0.0000
     36 H2B        7.0070    9.8538    0.6387 H         1 RES1    0.0000
     37 C3B        6.7451    7.9062    1.2979 C.3       1 RES1    0.0000
     38 N1B        7.7275    7.7706    2.4309 N.pl3     1 RES1    0.0000
     39 N2B        5.6018    6.9420    1.5906 N.pl3     1 RES1    0.0000
     40 N3B        7.4273    7.4102    0.0417 N.pl3     1 RES1    0.0000
     41 O1B        6.0289    9.9027    2.3789 O.3       1 RES1    0.0000
     42 O2B        8.5859    8.6372    2.4707 O.2       1 RES1    0.0000
     43 O3B        7.6142    6.8406    3.1839 O.2       1 RES1    0.0000
     44 O4B        4.7436    7.3792    2.3359 O.2       1 RES1    0.0000
     45 O5B        5.6477    5.8571    1.0778 O.2       1 RES1    0.0000
     46 O6B        6.8393    7.6975   -0.9834 O.2       1 RES1    0.0000
     47 O7B        8.4723    6.8036    0.1605 O.2       1 RES1    0.0000
     48 O8B        4.0066   10.6279    1.6657 O.2       1 RES1    0.0000
     49 C4B       -0.7814   11.5101    6.6925 C.2       2 RES2    0.0000
     50 C5B       -1.6955   13.4670    7.5719 C.3       2 RES2    0.0000
     51 H3B       -0.8536   13.5163    8.0906 H         2 RES2    0.0000
     52 H4B       -1.6464   14.1134    6.8247 H         2 RES2    0.0000
     53 C6B       -2.8867   13.7729    8.4623 C.3       2 RES2    0.0000
     54 N4B       -2.8269   13.0363    9.8026 N.pl3     2 RES2    0.0000
     55 N5B       -2.9489   15.2465    8.7806 N.pl3     2 RES2    0.0000
     56 N6B       -4.1933   13.3967    7.7979 N.pl3     2 RES2    0.0000
     57 O9B       -1.8996   12.1329    7.0712 O.3       2 RES2    0.0000
     58 O10B      -2.6047   11.8542    9.7634 O.2       2 RES2    0.0000
     59 O11B      -2.9732   13.7212   10.7911 O.2       2 RES2    0.0000
     60 O12B      -1.8805   15.7988    8.9052 O.2       2 RES2    0.0000
     61 O13B      -4.0417   15.7393    8.8975 O.2       2 RES2    0.0000
     62 O14B      -4.3142   13.8038    6.6694 O.2       2 RES2    0.0000
     63 O15B      -4.9983   12.7630    8.4404 O.2       2 RES2    0.0000
     64 O16B       0.3158   11.9572    6.7374 O.2       2 RES2    0.0000
@<TRIPOS>BOND
     1    1    9 1
     2    2    3 1
     3    4    2 1
     4    5    2 1
     5    6    5 1
     6    7    5 1
     7    8    5 1
     8    9    2 1
     9   10    6 2
    10   11    6 2
    11   12    7 2
    12   13    7 2
    13   14    8 2
    14   15    8 2
    15   16    1 2
    16   17   25 1
    17   18   19 1
    18   20   18 1
    19   21   18 1
    20   22   21 1
    21   23   21 1
    22   24   21 1
    23   25   18 1
    24   26   22 2
    25   27   22 2
    26   28   23 2
    27   29   23 2
    28   30   24 2
    29   31   24 2
    30   32   17 2
    31   33    1 1
    32   34   35 1
    33   36   34 1
    34   37   34 1
    35   38   37 1
    36   39   37 1
    37   40   37 1
    38   41   33 1
    39   42   38 2
    40   43   38 2
    41   44   39 2
    42   45   39 2
    43   46   40 2
    44   47   40 2
    45   48   33 2
    46   49   17 1
    47   50   51 1
    48   52   50 1
    49   53   50 1
    50   54   53 1
    51   55   53 1
    52   56   53 1
    53   57   49 1
    54   58   54 2
    55   59   54 2
    56   60   55 2
    57   61   55 2
    58   62   56 2
    59   63   56 2
    60   64   49 2
    61   34   41 1
    62   50   57 1
@<TRIPOS>SUBSTRUCTURE
     1 RES1 1
     2 RES2 17

@<TRIPOS>CRYSIN
  10.5530   21.6330    6.4900  90.0000  98.4790  90.0000  14 1

