# MOL2 file generated by ConQuest
# Please check atom types

@<TRIPOS>MOLECULE
IREPUS
    34    33     1
SMALL
NO_CHARGES
****
Generated from CSD

@<TRIPOS>ATOM
      1 C1        11.1663    3.3820    7.8543 C.2       1 RES1    0.0000
      2 C2         8.9251    2.8025    7.3653 C.3       1 RES1    0.0000
      3 C3         8.0253    3.8568    6.7414 C.3       1 RES1    0.0000
      4 N1        12.3297    3.7071    7.2027 N.am      1 RES1    0.0000
      5 N2         6.5678    3.4890    6.9823 N.pl3     1 RES1    0.0000
      6 N3         8.2259    5.2479    7.3267 N.pl3     1 RES1    0.0000
      7 N4         8.2229    3.9830    5.2370 N.pl3     1 RES1    0.0000
      8 O1        10.9677    3.3813    9.0342 O.2       1 RES1    0.0000
      9 O2        10.2542    3.0319    6.9066 O.3       1 RES1    0.0000
     10 O3         5.7951    3.5889    6.0536 O.2       1 RES1    0.0000
     11 O4         6.3278    3.1362    8.1157 O.2       1 RES1    0.0000
     12 O5         7.2441    5.8625    7.6784 O.2       1 RES1    0.0000
     13 O6         9.3816    5.6223    7.3857 O.2       1 RES1    0.0000
     14 O7         8.2545    2.9234    4.6372 O.2       1 RES1    0.0000
     15 O8         8.3115    5.0894    4.7697 O.2       1 RES1    0.0000
     16 H1         8.6472    1.9129    7.0461 H         1 RES1    0.0000
     17 H2         8.8609    2.8619    8.3469 H         1 RES1    0.0000
     18 H3        12.3297    3.7071    6.3234 H         1 RES1    0.0000
     19 C1M       13.4931    4.0321    7.8543 C.2       1 RES1    0.0000
     20 C2M       15.7343    4.6116    7.3653 C.3       1 RES1    0.0000
     21 C3M       16.6341    3.5573    6.7414 C.3       1 RES1    0.0000
     22 N2M       18.0916    3.9252    6.9823 N.pl3     1 RES1    0.0000
     23 N3M       16.4335    2.1663    7.3267 N.pl3     1 RES1    0.0000
     24 N4M       16.4365    3.4311    5.2370 N.pl3     1 RES1    0.0000
     25 O1M       13.6917    4.0329    9.0342 O.2       1 RES1    0.0000
     26 O2M       14.4052    4.3822    6.9066 O.3       1 RES1    0.0000
     27 O3M       18.8643    3.8253    6.0536 O.2       1 RES1    0.0000
     28 O4M       18.3316    4.2780    8.1157 O.2       1 RES1    0.0000
     29 O5M       17.4153    1.5516    7.6784 O.2       1 RES1    0.0000
     30 O6M       15.2778    1.7919    7.3857 O.2       1 RES1    0.0000
     31 O7M       16.4049    4.4908    4.6372 O.2       1 RES1    0.0000
     32 O8M       16.3479    2.3248    4.7697 O.2       1 RES1    0.0000
     33 H1M       16.0122    5.5013    7.0461 H         1 RES1    0.0000
     34 H2M       15.7985    4.5523    8.3469 H         1 RES1    0.0000
@<TRIPOS>BOND
     1    1    4 1
     2    2    3 1
     3    3    5 1
     4    4   18 1
     5    5   10 2
     6    6    3 1
     7    7    3 1
     8    8    1 2
     9    9    1 1
    10   11    5 2
    11   12    6 2
    12   13    6 2
    13   14    7 2
    14   15    7 2
    15   16    2 1
    16   17    2 1
    17   19    4 1
    18   20   21 1
    19   21   22 1
    20   22   27 2
    21   23   21 1
    22   24   21 1
    23   25   19 2
    24   26   19 1
    25   28   22 2
    26   29   23 2
    27   30   23 2
    28   31   24 2
    29   32   24 2
    30   33   20 1
    31   34   20 1
    32    2    9 1
    33   20   26 1
@<TRIPOS>SUBSTRUCTURE
     1 RES1 1

@<TRIPOS>CRYSIN
  16.4396   14.8283   12.0446  90.0000  90.0000  90.0000  43 1

