# MOL2 file generated by ConQuest
# Please check atom types

@<TRIPOS>MOLECULE
IRIFOF
    25    27     1
SMALL
NO_CHARGES
****
Generated from CSD

@<TRIPOS>ATOM
      1 C1         6.8589    4.5458    1.3063 C.2       1 RES1    0.0000
      2 C2         7.9922    4.5423    0.3225 C.3       1 RES1    0.0000
      3 H1         7.8224    5.1302   -0.4714 H         1 RES1    0.0000
      4 H2         8.0582    3.6315    0.0029 H         1 RES1    0.0000
      5 C3         9.2158    4.9586    1.1323 C.3       1 RES1    0.0000
      6 H3         9.4105    5.8466    0.9759 H         1 RES1    0.0000
      7 C4        10.4449    4.0682    0.9891 C.3       1 RES1    0.0000
      8 H4        11.2155    4.5052    1.3593 H         1 RES1    0.0000
      9 C5        10.1189    2.7767    1.7327 C.3       1 RES1    0.0000
     10 H5         9.5362    2.1987    1.1849 H         1 RES1    0.0000
     11 C6        11.3185    2.0600    2.3346 C.3       1 RES1    0.0000
     12 H6        12.2171    2.1740    1.8537 H         1 RES1    0.0000
     13 H7        11.0614    1.1446    2.4923 H         1 RES1    0.0000
     14 C7        11.4908    2.7264    3.6676 C.2       1 RES1    0.0000
     15 C8         9.3740    3.3230    2.9624 C.3       1 RES1    0.0000
     16 H8         8.7108    2.7422    3.2981 H         1 RES1    0.0000
     17 C9         8.7824    4.6818    2.5844 C.3       1 RES1    0.0000
     18 H9         9.0410    5.3773    3.2332 H         1 RES1    0.0000
     19 N1        10.8513    3.8643   -0.4464 N.pl3     1 RES1    0.0000
     20 O1         7.3316    4.6123    2.5693 O.3       1 RES1    0.0000
     21 O2         5.6829    4.4831    1.0911 O.2       1 RES1    0.0000
     22 O3        10.4130    3.4944    3.9636 O.3       1 RES1    0.0000
     23 O4        12.4230    2.6689    4.4220 O.2       1 RES1    0.0000
     24 O5        11.1982    4.8446   -1.0716 O.2       1 RES1    0.0000
     25 O6        10.8296    2.7366   -0.9149 O.2       1 RES1    0.0000
@<TRIPOS>BOND
     1    1    2 1
     2    2    3 1
     3    4    2 1
     4    5    2 1
     5    6    5 1
     6    7    5 1
     7    8    7 1
     8    9    7 1
     9   10    9 1
    10   11    9 1
    11   12   11 1
    12   13   11 1
    13   14   11 1
    14   15    9 1
    15   16   15 1
    16   17    5 1
    17   18   17 1
    18   19    7 1
    19   20    1 1
    20   21    1 2
    21   22   14 1
    22   23   14 2
    23   24   19 2
    24   25   19 2
    25   15   17 1
    26   15   22 1
    27   17   20 1
@<TRIPOS>SUBSTRUCTURE
     1 RES1 1

@<TRIPOS>CRYSIN
   7.8617    8.2347   14.4148  90.0000  90.0000  90.0000  19 1

