# MOL2 file generated by ConQuest
# Please check atom types

@<TRIPOS>MOLECULE
IRITEJ
    62    66     2
SMALL
NO_CHARGES
****
Generated from CSD

@<TRIPOS>ATOM
      1 O1         0.0983    1.3492    3.0466 O.3       1 RES1    0.0000
      2 N1         0.6325    1.3613    4.3629 N.2       1 RES1    0.0000
      3 C1        -0.1617    2.6372    2.6721 C.2       1 RES1    0.0000
      4 C2         0.1691    3.4738    3.6855 C.2       1 RES1    0.0000
      5 C3         0.6589    2.6179    4.7027 C.2       1 RES1    0.0000
      6 C4         1.1590    3.0834    6.0267 C.3       1 RES1    0.0000
      7 H1         2.1282    3.0470    6.0421 H         1 RES1    0.0000
      8 H2         0.8239    2.4995    6.7266 H         1 RES1    0.0000
      9 C5         0.6975    4.5039    6.2822 C.3       1 RES1    0.0000
     10 H3        -0.2445    4.4948    6.5158 H         1 RES1    0.0000
     11 H4         1.1869    4.8658    7.0367 H         1 RES1    0.0000
     12 C6         0.8997    5.3985    5.0909 C.3       1 RES1    0.0000
     13 H5         1.8417    5.4076    4.8590 H         1 RES1    0.0000
     14 H6         0.6438    6.3034    5.3277 H         1 RES1    0.0000
     15 C7         0.0849    4.9523    3.8626 C.3       1 RES1    0.0000
     16 H7        -0.8418    5.2130    3.9760 H         1 RES1    0.0000
     17 H8         0.4275    5.3939    3.0682 H         1 RES1    0.0000
     18 C8        -0.6453    2.8011    1.3014 C.ar      1 RES1    0.0000
     19 C9        -0.5476    1.7551    0.3971 C.ar      1 RES1    0.0000
     20 H9        -0.1839    0.9436    0.6722 H         1 RES1    0.0000
     21 C10       -0.9819    1.8985   -0.9031 C.ar      1 RES1    0.0000
     22 H10       -0.8971    1.1826   -1.4907 H         1 RES1    0.0000
     23 C11       -1.5361    3.0709   -1.3567 C.ar      1 RES1    0.0000
     24 C12       -1.6403    4.1066   -0.4584 C.ar      1 RES1    0.0000
     25 H11       -2.0088    4.9125   -0.7391 H         1 RES1    0.0000
     26 C13       -1.2119    3.9814    0.8473 C.ar      1 RES1    0.0000
     27 H12       -1.3057    4.6996    1.4311 H         1 RES1    0.0000
     28 C14       -2.0095    3.2040   -2.7866 C.3       1 RES1    0.0000
     29 H13       -2.3622    4.0850   -2.9268 H         1 RES1    0.0000
     30 H14       -2.6953    2.5541   -2.9590 H         1 RES1    0.0000
     31 H15       -1.2714    3.0561   -3.3832 H         1 RES1    0.0000
     32 O2        -4.3526    6.4951   -3.9172 O.3       2 RES2    0.0000
     33 N2        -3.8284    6.4855   -2.5976 N.2       2 RES2    0.0000
     34 C15       -4.6163    7.7807   -4.2743 C.2       2 RES2    0.0000
     35 C16       -4.3080    8.5991   -3.2495 C.2       2 RES2    0.0000
     36 C17       -3.8079    7.7443   -2.2516 C.2       2 RES2    0.0000
     37 C18       -3.2763    8.2041   -0.9316 C.3       2 RES2    0.0000
     38 H16       -2.3139    8.0846   -0.9078 H         2 RES2    0.0000
     39 H17       -3.6637    7.6715   -0.2207 H         2 RES2    0.0000
     40 C19       -3.6112    9.6554   -0.7183 C.3       2 RES2    0.0000
     41 H18       -4.5186    9.7157   -0.3820 H         2 RES2    0.0000
     42 H19       -3.0212   10.0105   -0.0347 H         2 RES2    0.0000
     43 C20       -3.5010   10.4908   -1.9081 C.3       2 RES2    0.0000
     44 H20       -2.5745   10.4908   -2.1951 H         2 RES2    0.0000
     45 H21       -3.7288   11.4013   -1.6643 H         2 RES2    0.0000
     46 C21       -4.3646   10.0833   -3.0860 C.3       2 RES2    0.0000
     47 H22       -5.2813   10.3633   -2.9342 H         2 RES2    0.0000
     48 H23       -4.0459   10.5158   -3.8941 H         2 RES2    0.0000
     49 C22       -5.0734    7.9981   -5.6427 C.ar      2 RES2    0.0000
     50 C23       -4.7767    7.0853   -6.6564 C.ar      2 RES2    0.0000
     51 H24       -4.3174    6.3022   -6.4563 H         2 RES2    0.0000
     52 C24       -5.1631    7.3425   -7.9512 C.ar      2 RES2    0.0000
     53 H25       -4.9570    6.7222   -8.6117 H         2 RES2    0.0000
     54 C25       -5.8474    8.4932   -8.3049 C.ar      2 RES2    0.0000
     55 C26       -6.1559    9.3765   -7.2790 C.ar      2 RES2    0.0000
     56 H26       -6.6301   10.1516   -7.4782 H         2 RES2    0.0000
     57 C27       -5.7819    9.1397   -5.9860 C.ar      2 RES2    0.0000
     58 H27       -6.0062    9.7544   -5.3253 H         2 RES2    0.0000
     59 C28       -6.2239    8.7789   -9.7375 C.3       2 RES2    0.0000
     60 H28       -6.6867    9.6189   -9.7849 H         2 RES2    0.0000
     61 H29       -6.7961    8.0801  -10.0627 H         2 RES2    0.0000
     62 H30       -5.4297    8.8199  -10.2760 H         2 RES2    0.0000
@<TRIPOS>BOND
     1    1    2 1
     2    2    5 2
     3    3    1 1
     4    4    3 2
     5    5    4 1
     6    6    5 1
     7    7    6 1
     8    8    6 1
     9    9    6 1
    10   10    9 1
    11   11    9 1
    12   12    9 1
    13   13   12 1
    14   14   12 1
    15   15    4 1
    16   16   15 1
    17   17   15 1
    18   18    3 1
    19   19   18 ar
    20   20   19 1
    21   21   19 ar
    22   22   21 1
    23   23   21 ar
    24   24   23 ar
    25   25   24 1
    26   26   18 ar
    27   27   26 1
    28   28   23 1
    29   29   28 1
    30   30   28 1
    31   31   28 1
    32   32   33 1
    33   33   36 2
    34   34   32 1
    35   35   34 2
    36   36   35 1
    37   37   36 1
    38   38   37 1
    39   39   37 1
    40   40   37 1
    41   41   40 1
    42   42   40 1
    43   43   40 1
    44   44   43 1
    45   45   43 1
    46   46   35 1
    47   47   46 1
    48   48   46 1
    49   49   34 1
    50   50   49 ar
    51   51   50 1
    52   52   50 ar
    53   53   52 1
    54   54   52 ar
    55   55   54 ar
    56   56   55 1
    57   57   49 ar
    58   58   57 1
    59   59   54 1
    60   60   59 1
    61   61   59 1
    62   62   59 1
    63   12   15 1
    64   24   26 ar
    65   43   46 1
    66   55   57 ar
@<TRIPOS>SUBSTRUCTURE
     1 RES1 1
     2 RES2 32

@<TRIPOS>CRYSIN
   8.2790   11.3820   24.8070  90.0000  91.0000  90.0000 231 1

