# MOL2 file generated by ConQuest
# Please check atom types

@<TRIPOS>MOLECULE
IRODID
    30    32     1
SMALL
NO_CHARGES
****
Generated from CSD

@<TRIPOS>ATOM
      1 O1        13.9983    4.1898   13.8986 O.2       1 RES1    0.0000
      2 O2         9.6641    4.5991   12.1859 O.3       1 RES1    0.0000
      3 O3         9.1546    2.1008   12.7727 O.2       1 RES1    0.0000
      4 O4        13.3890    1.8373   14.7775 O.3       1 RES1    0.0000
      5 O5        17.5235    1.4821    9.6644 O.2       1 RES1    0.0000
      6 O6        16.7819   -0.5293    9.9480 O.2       1 RES1    0.0000
      7 N1        16.6497    0.6846   10.0014 N.pl3     1 RES1    0.0000
      8 C1        13.0259    4.8650   13.4606 C.2       1 RES1    0.0000
      9 C2        13.0765    6.3400   13.6964 C.3       1 RES1    0.0000
     10 C3        12.1651    7.1822   12.7980 C.3       1 RES1    0.0000
     11 C4        12.7122    7.2433   11.3716 C.3       1 RES1    0.0000
     12 C5        12.0743    8.6172   13.3483 C.3       1 RES1    0.0000
     13 C6        10.7882    6.5352   12.8204 C.3       1 RES1    0.0000
     14 C7        10.8115    5.0673   12.5930 C.2       1 RES1    0.0000
     15 C8        11.9174    4.2627   12.7980 C.2       1 RES1    0.0000
     16 C9        11.8785    2.8159   12.4217 C.3       1 RES1    0.0000
     17 C10       10.0012    1.5244   13.5336 C.2       1 RES1    0.0000
     18 C11        9.5150    0.4117   14.4152 C.3       1 RES1    0.0000
     19 C12       10.1646    0.4540   15.7967 C.3       1 RES1    0.0000
     20 C13        9.7341   -0.7810   16.6081 C.3       1 RES1    0.0000
     21 C14        9.7069    1.7126   16.5295 C.3       1 RES1    0.0000
     22 C15       11.6724    0.4917   15.6198 C.3       1 RES1    0.0000
     23 C16       12.1508    1.4703   14.5921 C.2       1 RES1    0.0000
     24 C17       11.3716    1.8938   13.5476 C.2       1 RES1    0.0000
     25 C18       13.1465    2.2584   11.7478 C.ar      1 RES1    0.0000
     26 C19       14.0255    3.0888   11.0683 C.ar      1 RES1    0.0000
     27 C20       15.1665    2.5689   10.4647 C.ar      1 RES1    0.0000
     28 C21       15.3920    1.2304   10.5292 C.ar      1 RES1    0.0000
     29 C22       14.4884    0.3693   11.0908 C.ar      1 RES1    0.0000
     30 C23       13.3721    0.8940   11.7085 C.ar      1 RES1    0.0000
@<TRIPOS>BOND
     1    1    8 2
     2    2   14 1
     3    3   17 2
     4    4   23 1
     5    5    7 2
     6    6    7 2
     7    7   28 1
     8    8    9 1
     9    9   10 1
    10   10   11 1
    11   12   10 1
    12   13   10 1
    13   14   13 1
    14   15    8 1
    15   16   15 1
    16   17   18 1
    17   18   19 1
    18   19   20 1
    19   21   19 1
    20   22   19 1
    21   23   22 1
    22   24   16 1
    23   25   16 1
    24   26   25 ar
    25   27   26 ar
    26   28   27 ar
    27   29   28 ar
    28   30   25 ar
    29   14   15 2
    30   17   24 1
    31   23   24 2
    32   29   30 ar
@<TRIPOS>SUBSTRUCTURE
     1 RES1 1

@<TRIPOS>CRYSIN
  12.9650   23.5250   28.0780  90.0000  90.0000  90.0000  29 1

