# MOL2 file generated by ConQuest
# Please check atom types

@<TRIPOS>MOLECULE
IRODOJ
    18    17     1
SMALL
NO_CHARGES
****
Generated from CSD

@<TRIPOS>ATOM
      1 N1        12.1286    9.2336    0.4936 N.pl3     1 RES1    0.0000
      2 N2        10.2686    7.8303   -0.2348 N.pl3     1 RES1    0.0000
      3 N3        12.5508    6.9994   -0.4775 N.pl3     1 RES1    0.0000
      4 N4        12.7861    7.1934    2.5320 N.pl3     1 RES1    0.0000
      5 N5        14.6651    6.2607    3.4058 N.pl3     1 RES1    0.0000
      6 N6        13.0242    4.9664    2.2538 N.2       1 RES1    0.0000
      7 N7        13.7183    3.8361    2.3980 N.pl3     1 RES1    0.0000
      8 O1        12.7875    9.6179   -0.4512 O.2       1 RES1    0.0000
      9 O2        11.8568    9.8418    1.5094 O.2       1 RES1    0.0000
     10 O3        10.0421    8.8014   -0.9459 O.2       1 RES1    0.0000
     11 O4         9.5424    6.8964   -0.0218 O.2       1 RES1    0.0000
     12 O5        12.0102    6.3984   -1.3731 O.2       1 RES1    0.0000
     13 O6        13.6861    7.0317   -0.2107 O.2       1 RES1    0.0000
     14 O7        14.8097    3.7320    2.9844 O.2       1 RES1    0.0000
     15 O8        13.2040    2.8220    1.8816 O.2       1 RES1    0.0000
     16 C1        11.6318    7.8076    0.4524 C.3       1 RES1    0.0000
     17 C2        11.5252    7.1742    1.8392 C.3       1 RES1    0.0000
     18 C3        13.5429    6.0919    2.7508 C.2       1 RES1    0.0000
@<TRIPOS>BOND
     1    1    8 2
     2    2   10 2
     3    3   12 2
     4    4   17 1
     5    5   18 un
     6    6    7 un
     7    7   14 un
     8    9    1 2
     9   11    2 2
    10   13    3 2
    11   15    7 un
    12   16    1 1
    13   17   16 1
    14   18    4 un
    15    2   16 1
    16    3   16 1
    17    6   18 un
@<TRIPOS>SUBSTRUCTURE
     1 RES1 1

@<TRIPOS>CRYSIN
  14.6110   11.9730   11.4520  90.0000  90.0000  90.0000  61 1

