# MOL2 file generated by ConQuest
# Please check atom types

@<TRIPOS>MOLECULE
IROTAK
    31    34     1
SMALL
USER_CHARGES
****
Generated from CSD

@<TRIPOS>ATOM
      1 N1         0.6507    3.1546    4.0557 N.pl3     1 RES1    0.0000
      2 H1        -0.1958    3.0772    3.9324 H         1 RES1    0.0000
      3 N2         2.5250    4.3951    3.3852 N.2       1 RES1    0.0000
      4 N3         0.8455    5.8667    1.7097 N.pl3     1 RES1    1.0000
      5 O1        -1.2257    5.7898    1.2459 O.3       1 RES1    0.0000
      6 O2        -1.8933    3.9942    2.4937 O.2       1 RES1   -1.0000
      7 N4        -0.0498    6.4785    0.9660 N.2       1 RES1    0.0000
      8 C1         0.3693    4.8486    2.4514 C.2       1 RES1    0.0000
      9 C2        -1.0078    4.7376    2.1509 C.2       1 RES1    0.0000
     10 C3         2.2106    6.2023    1.7277 C.ar      1 RES1    0.0000
     11 C4         2.9982    5.4158    2.5892 C.ar      1 RES1    0.0000
     12 C5         4.3666    5.7241    2.6327 C.ar      1 RES1    0.0000
     13 H2         4.9299    5.2374    3.1916 H         1 RES1    0.0000
     14 C6         4.8855    6.7300    1.8659 C.ar      1 RES1    0.0000
     15 H3         5.7945    6.9178    1.9130 H         1 RES1    0.0000
     16 C7         4.0756    7.4776    1.0156 C.ar      1 RES1    0.0000
     17 H4         4.4488    8.1542    0.4976 H         1 RES1    0.0000
     18 C8         2.7319    7.2240    0.9367 C.ar      1 RES1    0.0000
     19 H5         2.1829    7.7196    0.3720 H         1 RES1    0.0000
     20 C9         1.2483    4.1284    3.3227 C.2       1 RES1    0.0000
     21 C10        1.1979    2.2533    4.9836 C.ar      1 RES1    0.0000
     22 C11        0.3274    1.3290    5.5435 C.ar      1 RES1    0.0000
     23 H6        -0.5732    1.3453    5.3092 H         1 RES1    0.0000
     24 C12        0.7796    0.3872    6.4408 C.ar      1 RES1    0.0000
     25 H7         0.1872   -0.2320    6.8019 H         1 RES1    0.0000
     26 C13        2.1060    0.3614    6.8023 C.ar      1 RES1    0.0000
     27 H8         2.4157   -0.2752    7.4042 H         1 RES1    0.0000
     28 C14        2.9685    1.2869    6.2641 C.ar      1 RES1    0.0000
     29 H9         3.8638    1.2769    6.5185 H         1 RES1    0.0000
     30 C15        2.5343    2.2323    5.3528 C.ar      1 RES1    0.0000
     31 H10        3.1318    2.8468    4.9920 H         1 RES1    0.0000
@<TRIPOS>BOND
     1    1    2 1
     2    3   11 1
     3    4    7 2
     4    5    7 1
     5    6    9 1
     6    8    4 1
     7    9    5 1
     8   10    4 1
     9   11   10 ar
    10   12   11 ar
    11   13   12 1
    12   14   12 ar
    13   15   14 1
    14   16   14 ar
    15   17   16 1
    16   18   10 ar
    17   19   18 1
    18   20    1 1
    19   21    1 1
    20   22   21 ar
    21   23   22 1
    22   24   22 ar
    23   25   24 1
    24   26   24 ar
    25   27   26 1
    26   28   26 ar
    27   29   28 1
    28   30   21 ar
    29   31   30 1
    30    3   20 2
    31    8    9 2
    32    8   20 1
    33   16   18 ar
    34   28   30 ar
@<TRIPOS>SUBSTRUCTURE
     1 RES1 1

@<TRIPOS>CRYSIN
  29.4270    5.2611   17.9470  90.0000 116.2000  90.0000  15 1

