# MOL2 file generated by ConQuest
# Please check atom types

@<TRIPOS>MOLECULE
IROWOB
    68    35     2
SMALL
NO_CHARGES
****
Generated from CSD

@<TRIPOS>ATOM
      1 O1         0.2508    2.2686   -1.1312 O.2       1 RES1    0.0000
      2 O2         0.6975    4.3529   -1.4947 O.2       1 RES1    0.0000
      3 O3         0.5844    2.4445   -1.4269 Du        2 SUP2    0.0000
      4 O4         1.0137    4.5740   -1.4509 Du        2 SUP2    0.0000
      5 N1         2.3345    3.0617    5.2781 N.2       1 RES1    0.0000
      6 N2         2.4790    4.0527    4.5168 N.2       1 RES1    0.0000
      7 N3         3.9602    3.3481   10.5642 N.3       1 RES1    0.0000
      8 N4         0.6428    3.3702   -0.7637 N.pl3     1 RES1    0.0000
      9 C1         1.0529    3.5072    0.6035 C.ar      1 RES1    0.0000
     10 C2         1.6679    4.6931    0.9885 C.ar      1 RES1    0.0000
     11 H1         1.7723    5.3987    0.3611 H         1 RES1    0.0000
     12 C3         2.1292    4.8458    2.2911 C.ar      1 RES1    0.0000
     13 H2         2.5492    5.6567    2.5542 H         1 RES1    0.0000
     14 C4         1.9756    3.8136    3.2078 C.ar      1 RES1    0.0000
     15 C5         1.3612    2.6277    2.8236 C.ar      1 RES1    0.0000
     16 H3         1.2563    1.9210    3.4502 H         1 RES1    0.0000
     17 C6         0.8999    2.4750    1.5210 C.ar      1 RES1    0.0000
     18 H4         0.4800    1.6641    1.2579 H         1 RES1    0.0000
     19 C7         2.8123    3.2428    6.5815 C.ar      1 RES1    0.0000
     20 C8         3.4746    4.3718    7.0494 C.ar      1 RES1    0.0000
     21 H5         3.6394    5.1017    6.4651 H         1 RES1    0.0000
     22 C9         3.8957    4.4319    8.3727 C.ar      1 RES1    0.0000
     23 H6         4.3487    5.2039    8.6924 H         1 RES1    0.0000
     24 C10        3.6545    3.3639    9.2281 C.ar      1 RES1    0.0000
     25 C11        2.9921    2.2349    8.7610 C.ar      1 RES1    0.0000
     26 H7         2.8272    1.5040    9.3453 H         1 RES1    0.0000
     27 C12        2.5710    2.1738    7.4377 C.ar      1 RES1    0.0000
     28 H8         2.1180    1.4029    7.1180 H         1 RES1    0.0000
     29 C13        4.4776    4.5530   11.1908 C.3       1 RES1    0.0000
     30 H9         3.8935    5.3102   10.9747 H         1 RES1    0.0000
     31 H10        5.3813    4.7320   10.8567 H         1 RES1    0.0000
     32 H11        4.5069    4.4298   12.1625 H         1 RES1    0.0000
     33 C14        3.7884    2.1443   11.3590 C.3       1 RES1    0.0000
     34 H12        4.1932    1.3839   10.8918 H         1 RES1    0.0000
     35 H13        2.8329    1.9748   11.4929 H         1 RES1    0.0000
     36 H14        4.2239    2.2623   12.2287 H         1 RES1    0.0000
     37 N5         2.6571    3.8084    5.1187 Du        2 SUP2    0.0000
     38 N6         2.0280    2.8605    4.5511 Du        2 SUP2    0.0000
     39 N7         4.2563    3.4956   10.4629 Du        2 SUP2    0.0000
     40 N8         0.8955    3.4966   -0.8809 Du        2 SUP2    0.0000
     41 C15        1.1312    3.4987    0.5022 Du        2 SUP2    0.0000
     42 C16        1.7488    4.5277    1.2005 Du        2 SUP2    0.0000
     43 H15        1.9693    5.3397    0.7573 Du        2 SUP2    0.0000
     44 C17        2.0538    4.3697    2.5486 Du        2 SUP2    0.0000
     45 H16        2.4768    5.0733    3.0261 Du        2 SUP2    0.0000
     46 C18        1.7355    3.1817    3.1967 Du        2 SUP2    0.0000
     47 C19        1.1164    2.1527    2.4984 Du        2 SUP2    0.0000
     48 H17        0.8989    1.3407    2.9416 Du        2 SUP2    0.0000
     49 C20        0.8167    2.3107    1.1503 Du        2 SUP2    0.0000
     50 H18        0.3914    1.6072    0.6728 Du        2 SUP2    0.0000
     51 C21        3.0182    3.5535    6.4587 Du        2 SUP2    0.0000
     52 C22        3.7507    4.5688    7.0630 Du        2 SUP2    0.0000
     53 H19        4.0127    5.3302    6.5584 Du        2 SUP2    0.0000
     54 C23        4.0971    4.4708    8.4046 Du        2 SUP2    0.0000
     55 H20        4.6000    5.1649    8.8176 Du        2 SUP2    0.0000
     56 C24        3.7132    3.3597    9.1428 Du        2 SUP2    0.0000
     57 C25        2.9874    2.3413    8.5394 Du        2 SUP2    0.0000
     58 H21        2.7217    1.5798    9.0432 Du        2 SUP2    0.0000
     59 C26        2.6381    2.4392    7.1969 Du        2 SUP2    0.0000
     60 H22        2.1342    1.7452    6.7848 Du        2 SUP2    0.0000
     61 C27        4.7217    4.7805   10.9532 Du        2 SUP2    0.0000
     62 H23        5.1202    4.6646   11.8429 Du        2 SUP2    0.0000
     63 H24        3.9712    5.4040   11.0114 Du        2 SUP2    0.0000
     64 H25        5.3987    5.1375   10.3402 Du        2 SUP2    0.0000
     65 C28        4.0432    2.4371   11.4315 Du        2 SUP2    0.0000
     66 H26        4.1470    2.7973   12.3395 Du        2 SUP2    0.0000
     67 H27        4.6953    1.7230   11.2880 Du        2 SUP2    0.0000
     68 H28        3.1354    2.0769   11.3311 Du        2 SUP2    0.0000
@<TRIPOS>BOND
     1    1    8 2
     2    2    8 2
     3    5    6 2
     4    6   14 1
     5    7   24 1
     6    8    9 1
     7    9   10 ar
     8   10   11 1
     9   12   10 ar
    10   13   12 1
    11   14   12 ar
    12   15   14 ar
    13   16   15 1
    14   17    9 ar
    15   18   17 1
    16   19    5 1
    17   20   19 ar
    18   21   20 1
    19   22   20 ar
    20   23   22 1
    21   24   22 ar
    22   25   24 ar
    23   26   25 1
    24   27   19 ar
    25   28   27 1
    26   29    7 1
    27   30   29 1
    28   31   29 1
    29   32   29 1
    30   33    7 1
    31   34   33 1
    32   35   33 1
    33   36   33 1
    34   15   17 ar
    35   25   27 ar
@<TRIPOS>SUBSTRUCTURE
     1 RES1 1
     2 SUP2 3

@<TRIPOS>CRYSIN
   7.5900   10.5320    8.1010  90.0000 100.2480  90.0000   4 1

