# MOL2 file generated by ConQuest
# Please check atom types

@<TRIPOS>MOLECULE
IROYUK
    52    56     1
SMALL
NO_CHARGES
****
Generated from CSD

@<TRIPOS>ATOM
      1 H1        -0.3665    1.7003    1.6160 H         1 RES1    0.0000
      2 H2        -0.4674    5.7651    1.2790 H         1 RES1    0.0000
      3 O1         1.0664    4.0896    0.1186 O.2       1 RES1    0.0000
      4 O2         3.5914    0.4223    3.1657 O.2       1 RES1    0.0000
      5 C1         2.3017    2.9220    2.6690 C.3       1 RES1    0.0000
      6 H3         2.3722    2.4671    3.5344 H         1 RES1    0.0000
      7 N1         0.4269    1.7239    2.0143 N.3       1 RES1    0.0000
      8 C2         3.1162    4.1966    2.7699 C.ar      1 RES1    0.0000
      9 C3        -1.5213    5.2078    5.2072 C.ar      1 RES1    0.0000
     10 H4        -2.0159    5.7268    5.7979 H         1 RES1    0.0000
     11 C4         2.7506    1.9221    1.5987 C.3       1 RES1    0.0000
     12 H5         3.1124    2.4153    0.8323 H         1 RES1    0.0000
     13 O3         5.2558    7.7762    2.8559 O.3       1 RES1    0.0000
     14 C5         1.5403   -0.3547    1.2089 C.ar      1 RES1    0.0000
     15 N2         3.8140    1.0449    2.1568 N.pl3     1 RES1    0.0000
     16 C6         1.4649    1.1530    1.1462 C.3       1 RES1    0.0000
     17 H6         1.2651    1.4098    0.2213 H         1 RES1    0.0000
     18 C7         2.9463    5.0479    3.8314 C.ar      1 RES1    0.0000
     19 H7         2.3614    4.8182    4.5149 H         1 RES1    0.0000
     20 N3        -0.2143    5.1199    1.7343 N.am      1 RES1    0.0000
     21 C8        -0.2380    3.2170    4.7756 C.ar      1 RES1    0.0000
     22 H8         0.1236    2.4085    5.0610 H         1 RES1    0.0000
     23 C9        -0.0239    3.6708    3.4897 C.ar      1 RES1    0.0000
     24 C10       -0.5638    4.8756    3.0719 C.ar      1 RES1    0.0000
     25 C11        4.0575    4.5704    1.8271 C.ar      1 RES1    0.0000
     26 H9         4.2164    3.9962    1.1125 H         1 RES1    0.0000
     27 C12        0.5859    4.1369    1.2489 C.2       1 RES1    0.0000
     28 C13        0.7945    3.0852    2.3634 C.3       1 RES1    0.0000
     29 C14        4.5304    6.6074    2.9010 C.ar      1 RES1    0.0000
     30 C15       -1.3173    5.6660    3.9242 C.ar      1 RES1    0.0000
     31 H10       -1.6746    6.4756    3.6420 H         1 RES1    0.0000
     32 C16        2.2610   -1.0370    0.2387 C.ar      1 RES1    0.0000
     33 H11        2.6625   -0.5619   -0.4527 H         1 RES1    0.0000
     34 O4         4.8768    1.0123    1.5672 O.2       1 RES1    0.0000
     35 C17        0.9269   -1.0967    2.1986 C.ar      1 RES1    0.0000
     36 H12        0.4276   -0.6688    2.8563 H         1 RES1    0.0000
     37 C18        3.6573    6.2786    3.8978 C.ar      1 RES1    0.0000
     38 H13        3.5275    6.8562    4.6164 H         1 RES1    0.0000
     39 C19       -1.0088    3.9973    5.6390 C.ar      1 RES1    0.0000
     40 H14       -1.1793    3.7034    6.5044 H         1 RES1    0.0000
     41 C20        1.0527   -2.4806    2.2128 C.ar      1 RES1    0.0000
     42 H15        0.6283   -2.9738    2.8766 H         1 RES1    0.0000
     43 C21        1.7895   -3.1235    1.2647 C.ar      1 RES1    0.0000
     44 H16        1.8789   -4.0491    1.2911 H         1 RES1    0.0000
     45 C22        2.3934   -2.4119    0.2862 C.ar      1 RES1    0.0000
     46 H17        2.8993   -2.8499   -0.3593 H         1 RES1    0.0000
     47 C23        4.7661    5.7358    1.8900 C.ar      1 RES1    0.0000
     48 H18        5.4050    5.9306    1.2424 H         1 RES1    0.0000
     49 C24        4.9683    8.7738    3.7658 C.3       1 RES1    0.0000
     50 H19        5.5481    9.5237    3.6115 H         1 RES1    0.0000
     51 H20        5.1040    8.4439    4.6570 H         1 RES1    0.0000
     52 H21        4.0559    9.0497    3.6603 H         1 RES1    0.0000
@<TRIPOS>BOND
     1    1    7 1
     2    2   20 1
     3    3   27 2
     4    4   15 2
     5    5    6 1
     6    7   16 1
     7    8    5 1
     8    9   10 1
     9   11    5 1
    10   12   11 1
    11   13   29 1
    12   14   16 1
    13   15   11 1
    14   16   11 1
    15   17   16 1
    16   18    8 ar
    17   19   18 1
    18   20   24 1
    19   21   22 1
    20   23   21 ar
    21   24   23 ar
    22   25    8 ar
    23   26   25 1
    24   27   20 1
    25   28    5 1
    26   29   37 ar
    27   30    9 ar
    28   31   30 1
    29   32   14 ar
    30   33   32 1
    31   34   15 2
    32   35   14 ar
    33   36   35 1
    34   37   18 ar
    35   38   37 1
    36   39    9 ar
    37   40   39 1
    38   41   35 ar
    39   42   41 1
    40   43   41 ar
    41   44   43 1
    42   45   32 ar
    43   46   45 1
    44   47   25 ar
    45   48   47 1
    46   49   13 1
    47   50   49 1
    48   51   49 1
    49   52   49 1
    50    7   28 1
    51   21   39 ar
    52   23   28 1
    53   24   30 ar
    54   27   28 1
    55   29   47 ar
    56   43   45 ar
@<TRIPOS>SUBSTRUCTURE
     1 RES1 1

