# MOL2 file generated by ConQuest
# Please check atom types

@<TRIPOS>MOLECULE
IROYOE
    53    57     1
SMALL
NO_CHARGES
****
Generated from CSD

@<TRIPOS>ATOM
      1 O1         1.6401    5.8401   12.9586 O.3       1 RES1    0.0000
      2 O2         3.8028    8.2691    8.3486 O.2       1 RES1    0.0000
      3 C1         2.9661    6.1150   12.7504 C.ar      1 RES1    0.0000
      4 N1         3.5647    6.0032    8.0638 N.am      1 RES1    0.0000
      5 C2         2.1219    7.5882   10.8959 C.3       1 RES1    0.0000
      6 H1         1.2943    7.3570   11.3669 H         1 RES1    0.0000
      7 C3         3.2559    7.0340   11.7273 C.ar      1 RES1    0.0000
      8 C4         2.0670    9.0752   10.6370 C.3       1 RES1    0.0000
      9 H2         2.9647    9.3859   10.3955 H         1 RES1    0.0000
     10 O3         1.6963   11.0763   11.7213 O.2       1 RES1    0.0000
     11 C5         5.3064    5.9224   13.2597 C.ar      1 RES1    0.0000
     12 H3         5.9883    5.5498   13.7715 H         1 RES1    0.0000
     13 N2         0.9637    7.8889    8.8215 N.3       1 RES1    0.0000
     14 C6         4.5770    7.3747   11.5070 C.ar      1 RES1    0.0000
     15 H4         4.7842    7.9877   10.8376 H         1 RES1    0.0000
     16 C7         1.7720    5.5241    9.3837 C.ar      1 RES1    0.0000
     17 O4         1.0467    9.3240   12.7350 O.2       1 RES1    0.0000
     18 C8         1.1290    9.2533    9.4072 C.3       1 RES1    0.0000
     19 H5         1.5710    9.8309    8.7504 H         1 RES1    0.0000
     20 N3         1.5811    9.8706   11.8076 N.pl3     1 RES1    0.0000
     21 C9         1.9850    7.0196    9.4600 C.3       1 RES1    0.0000
     22 C10        3.9906    5.5696   13.5043 C.ar      1 RES1    0.0000
     23 H6         3.7930    4.9622   14.1792 H         1 RES1    0.0000
     24 C11        0.8963    4.6835   10.0515 C.ar      1 RES1    0.0000
     25 H7         0.2558    5.0328   10.6287 H         1 RES1    0.0000
     26 C12       -0.4449    7.5033    8.9713 C.3       1 RES1    0.0000
     27 H8        -0.6112    7.1093    9.8419 H         1 RES1    0.0000
     28 H9        -0.7142    6.8760    8.2812 H         1 RES1    0.0000
     29 C13        0.9852    3.3078    9.8476 C.ar      1 RES1    0.0000
     30 H10        0.4077    2.7331   10.2983 H         1 RES1    0.0000
     31 C14        2.7319    4.9789    8.5495 C.ar      1 RES1    0.0000
     32 C15        3.2538    7.2000    8.5778 C.2       1 RES1    0.0000
     33 C16        5.6111    6.8183   12.2684 C.ar      1 RES1    0.0000
     34 C17        2.8253    3.6189    8.3224 C.ar      1 RES1    0.0000
     35 H11        3.4685    3.2717    7.7477 H         1 RES1    0.0000
     36 C18       -1.1622    8.8229    8.8220 C.3       1 RES1    0.0000
     37 H12       -2.0627    8.7782    9.1796 H         1 RES1    0.0000
     38 H13       -1.2016    9.0994    7.8921 H         1 RES1    0.0000
     39 C19       -0.2910    9.7603    9.6374 C.3       1 RES1    0.0000
     40 H14       -0.5248    9.7171   10.5772 H         1 RES1    0.0000
     41 H15       -0.3855   10.6747    9.3298 H         1 RES1    0.0000
     42 C20        1.3182    4.7736   13.8316 C.3       1 RES1    0.0000
     43 H16        0.3637    4.6858   13.8917 H         1 RES1    0.0000
     44 H17        1.6782    4.9536   14.7028 H         1 RES1    0.0000
     45 H18        1.6928    3.9571   13.4926 H         1 RES1    0.0000
     46 C21        1.9335    2.7932    8.9736 C.ar      1 RES1    0.0000
     47 H19        1.9669    1.8763    8.8263 H         1 RES1    0.0000
     48 O5         6.8757    7.2357   11.9504 O.3       1 RES1    0.0000
     49 C22        7.9440    6.6456   12.6815 C.3       1 RES1    0.0000
     50 H20        8.7781    7.0214   12.3882 H         1 RES1    0.0000
     51 H21        7.9505    5.6981   12.5299 H         1 RES1    0.0000
     52 H22        7.8264    6.8198   13.6185 H         1 RES1    0.0000
     53 H23        4.1404    5.9242    7.5245 H         1 RES1    0.0000
@<TRIPOS>BOND
     1    1    3 1
     2    2   32 2
     3    3    7 ar
     4    4   31 1
     5    5    6 1
     6    7    5 1
     7    8    5 1
     8    9    8 1
     9   10   20 2
    10   11   12 1
    11   13   18 1
    12   14    7 ar
    13   15   14 1
    14   16   21 1
    15   17   20 2
    16   18    8 1
    17   19   18 1
    18   20    8 1
    19   21    5 1
    20   22    3 ar
    21   23   22 1
    22   24   16 ar
    23   25   24 1
    24   26   13 1
    25   27   26 1
    26   28   26 1
    27   29   24 ar
    28   30   29 1
    29   31   16 ar
    30   32    4 1
    31   33   11 ar
    32   34   31 ar
    33   35   34 1
    34   36   26 1
    35   37   36 1
    36   38   36 1
    37   39   18 1
    38   40   39 1
    39   41   39 1
    40   42    1 1
    41   43   42 1
    42   44   42 1
    43   45   42 1
    44   46   29 ar
    45   47   46 1
    46   48   33 1
    47   49   48 1
    48   50   49 1
    49   51   49 1
    50   52   49 1
    51   53    4 1
    52   11   22 ar
    53   13   21 1
    54   14   33 ar
    55   21   32 1
    56   34   46 ar
    57   36   39 1
@<TRIPOS>SUBSTRUCTURE
     1 RES1 1

@<TRIPOS>CRYSIN
   9.6760   14.4000   14.3090  90.0000  91.3330  90.0000  14 2

