# MOL2 file generated by ConQuest
# Please check atom types

@<TRIPOS>MOLECULE
IROYUK02
    67    56     2
SMALL
NO_CHARGES
****
Generated from CSD

@<TRIPOS>ATOM
      1 C1        -1.8735   10.4994    9.8401 C.ar      1 RES1    0.0000
      2 C2        -1.4854   11.2817   10.9001 C.ar      1 RES1    0.0000
      3 H1        -1.8986   12.0966   11.0725 H         1 RES1    0.0000
      4 C3        -0.4644   10.8186   11.6975 C.ar      1 RES1    0.0000
      5 H2        -0.1865   11.3309   12.4217 H         1 RES1    0.0000
      6 C4         0.1547    9.6138   11.4495 C.ar      1 RES1    0.0000
      7 H3         0.8363    9.3199   12.0108 H         1 RES1    0.0000
      8 C5        -0.2328    8.8336   10.3646 C.ar      1 RES1    0.0000
      9 H4         0.1851    8.0216   10.1893 H         1 RES1    0.0000
     10 C6        -1.2510    9.2903    9.5570 C.ar      1 RES1    0.0000
     11 C7        -1.8446    8.7165    8.2975 C.3       1 RES1    0.0000
     12 C8        -2.9231    9.7722    7.9529 C.2       1 RES1    0.0000
     13 C9        -0.8540    8.5506    7.1222 C.3       1 RES1    0.0000
     14 H5        -0.0557    8.1027    7.4719 H         1 RES1    0.0000
     15 C10       -1.5774    7.5542    6.2186 C.3       1 RES1    0.0000
     16 H6        -2.0742    8.0486    5.5339 H         1 RES1    0.0000
     17 C11       -2.5875    6.7863    7.1216 C.3       1 RES1    0.0000
     18 H7        -3.4927    7.0465    6.8516 H         1 RES1    0.0000
     19 C12       -2.5040    5.2736    7.0857 C.ar      1 RES1    0.0000
     20 C13       -1.9327    4.5317    8.0947 C.ar      1 RES1    0.0000
     21 H8        -1.5937    4.9589    8.8479 H         1 RES1    0.0000
     22 C14       -1.8596    3.1539    7.9922 C.ar      1 RES1    0.0000
     23 H9        -1.4790    2.6630    8.6842 H         1 RES1    0.0000
     24 C15       -2.3360    2.5067    6.8998 C.ar      1 RES1    0.0000
     25 H10       -2.2743    1.5809    6.8390 H         1 RES1    0.0000
     26 C16       -2.9054    3.2229    5.8952 C.ar      1 RES1    0.0000
     27 H11       -3.2302    2.7857    5.1403 H         1 RES1    0.0000
     28 C17       -3.0049    4.5968    5.9900 C.ar      1 RES1    0.0000
     29 H12       -3.4151    5.0738    5.3056 H         1 RES1    0.0000
     30 H13       -3.3969   11.3951    8.8621 H         1 RES1    0.0000
     31 H14       -3.0641    7.3235    8.9203 H         1 RES1    0.0000
     32 N1        -2.8755   10.7431    8.8852 N.am      1 RES1    0.0000
     33 N2        -2.3331    7.3478    8.4499 N.3       1 RES1    0.0000
     34 N3        -0.5738    6.6728    5.5484 N.pl3     1 RES1    0.0000
     35 O1        -3.6785    9.7261    6.9878 O.2       1 RES1    0.0000
     36 O2        -0.5873    6.6502    4.3359 O.2       1 RES1    0.0000
     37 O3         0.2010    6.0520    6.2294 O.2       1 RES1    0.0000
     38 C18       -0.3942    9.8198    6.4218 C.ar      1 RES1    0.0000
     39 C19        0.4368   10.7015    7.0689 C.ar      1 RES1    0.0000
     40 H15        0.7387   10.4786    7.9190 H         1 RES1    0.0000
     41 C20        0.8504   11.9063    6.5179 C.ar      1 RES1    0.0000
     42 H16        1.4110   12.4772    6.9917 H         1 RES1    0.0000
     43 C21        0.4168   12.2362    5.2662 C.ar      1 RES1    0.0000
     44 C22       -0.3525   11.3354    4.5562 C.ar      1 RES1    0.0000
     45 H17       -0.6068   11.5269    3.6824 H         1 RES1    0.0000
     46 C23       -0.7391   10.1622    5.1419 C.ar      1 RES1    0.0000
     47 H18       -1.2581    9.5699    4.6475 H         1 RES1    0.0000
     48 C24        1.4175   14.4094    5.3308 C.3       1 RES1    0.0000
     49 H19        0.9523   14.5997    6.1495 H         1 RES1    0.0000
     50 H20        1.4576   15.2021    4.7924 H         1 RES1    0.0000
     51 H21        2.3100   14.1122    5.5307 H         1 RES1    0.0000
     52 O4         0.7266   13.3871    4.6204 O.3       1 RES1    0.0000
     53 O5         1.4805   13.5514    5.8708 Du        2 SUP2    0.0000
     54 C25        0.9126   14.2889    4.7845 Du        2 SUP2    0.0000
     55 H22        0.8271   13.7136    4.0193 Du        2 SUP2    0.0000
     56 H23        1.4844   15.0276    4.5656 Du        2 SUP2    0.0000
     57 H24        0.0482   14.6155    5.0364 Du        2 SUP2    0.0000
     58 C26        0.6685   10.4898    7.4263 Du        2 SUP2    0.0000
     59 H25        0.9177   10.1013    8.2339 Du        2 SUP2    0.0000
     60 C27        1.2443   11.6991    7.0689 Du        2 SUP2    0.0000
     61 H26        1.9081   12.0842    7.5947 Du        2 SUP2    0.0000
     62 C28        0.8073   12.3241    5.8991 Du        2 SUP2    0.0000
     63 C29       -0.7276   10.5450    5.5402 Du        2 SUP2    0.0000
     64 H27       -1.4716   10.2218    5.0852 Du        2 SUP2    0.0000
     65 C30       -0.2673    9.8300    6.6375 Du        2 SUP2    0.0000
     66 C31       -0.1311   11.7340    5.0773 Du        2 SUP2    0.0000
     67 H28       -0.3579   12.1045    4.2539 Du        2 SUP2    0.0000
@<TRIPOS>BOND
     1    1    2 ar
     2    2    3 1
     3    4    2 ar
     4    5    4 1
     5    6    4 ar
     6    7    6 1
     7    8    6 ar
     8    9    8 1
     9   10    1 ar
    10   11   10 1
    11   12   11 1
    12   13   11 1
    13   14   13 1
    14   15   13 1
    15   16   15 1
    16   17   15 1
    17   18   17 1
    18   19   17 1
    19   20   19 ar
    20   21   20 1
    21   22   20 ar
    22   23   22 1
    23   24   22 ar
    24   25   24 1
    25   26   24 ar
    26   27   26 1
    27   28   19 ar
    28   29   28 1
    29   30   32 1
    30   31   33 1
    31   32    1 1
    32   33   11 1
    33   34   15 1
    34   35   12 2
    35   36   34 2
    36   37   34 2
    37   38   13 1
    38   39   38 ar
    39   40   39 1
    40   41   39 ar
    41   42   41 1
    42   43   41 ar
    43   44   43 ar
    44   45   44 1
    45   46   38 ar
    46   47   46 1
    47   48   49 1
    48   50   48 1
    49   51   48 1
    50   52   43 1
    51    8   10 ar
    52   12   32 1
    53   17   33 1
    54   26   28 ar
    55   44   46 ar
    56   48   52 1
@<TRIPOS>SUBSTRUCTURE
     1 RES1 1
     2 SUP2 53

@<TRIPOS>CRYSIN
  23.0780   11.2600   17.9360  90.0000 118.6260  90.0000  15 1

