# MOL2 file generated by ConQuest
# Please check atom types

@<TRIPOS>MOLECULE
IROZIY
    48    50     1
SMALL
NO_CHARGES
****
Generated from CSD

@<TRIPOS>ATOM
      1 O1         2.3947    7.1602    2.0755 O.3       1 RES1    0.0000
      2 O2         3.5840    8.8690    6.3030 O.2       1 RES1    0.0000
      3 O3         6.7084    9.9413    5.0777 O.2       1 RES1    0.0000
      4 O4         5.6364   11.0568    6.5660 O.2       1 RES1    0.0000
      5 O5         6.1767    7.9504    0.4369 O.2       1 RES1    0.0000
      6 O6         6.5291    9.3780    2.1301 O.3       1 RES1    0.0000
      7 O7         6.9706   12.0816    1.2365 O.3       1 RES1    0.0000
      8 N1         3.7377    6.8151    0.3566 N.pl3     1 RES1    0.0000
      9 H1         4.4649    6.8864   -0.0955 H         1 RES1    0.0000
     10 H2         3.0799    6.3568    0.0441 H         1 RES1    0.0000
     11 N2         5.7998   10.6679    5.4159 N.pl3     1 RES1    0.0000
     12 C1         5.7977    8.4502    1.4885 C.2       1 RES1    0.0000
     13 C2         3.6302    7.4164    1.5411 C.2       1 RES1    0.0000
     14 C3         4.5608    8.1752    2.1833 C.2       1 RES1    0.0000
     15 C4         4.3041    8.7532    3.5652 C.3       1 RES1    0.0000
     16 H3         5.0590    8.5153    4.1437 H         1 RES1    0.0000
     17 C5         3.0475    8.1376    4.1444 C.2       1 RES1    0.0000
     18 C6         2.8103    8.2558    5.5954 C.2       1 RES1    0.0000
     19 C7         1.6081    7.5328    6.1516 C.3       1 RES1    0.0000
     20 H4         1.8677    6.6323    6.4017 H         1 RES1    0.0000
     21 H5         1.3070    7.9884    6.9527 H         1 RES1    0.0000
     22 C8         0.4751    7.4615    5.1774 C.3       1 RES1    0.0000
     23 H6         0.1280    8.3548    5.0278 H         1 RES1    0.0000
     24 H7        -0.2384    6.9256    5.5592 H         1 RES1    0.0000
     25 C9         0.8880    6.8677    3.8670 C.3       1 RES1    0.0000
     26 H8         0.9804    5.9066    3.9625 H         1 RES1    0.0000
     27 H9         0.2009    7.0389    3.2033 H         1 RES1    0.0000
     28 C10        2.1813    7.4481    3.4034 C.2       1 RES1    0.0000
     29 C11        4.1702   10.2818    3.5498 C.ar      1 RES1    0.0000
     30 C12        4.8576   11.1478    4.3957 C.ar      1 RES1    0.0000
     31 C13        4.7079   12.5273    4.3543 C.ar      1 RES1    0.0000
     32 H10        5.1742   13.0685    4.9494 H         1 RES1    0.0000
     33 C14        3.8662   13.0819    3.4254 C.ar      1 RES1    0.0000
     34 H11        3.7874   14.0064    3.3576 H         1 RES1    0.0000
     35 C15        3.1373   12.2572    2.5915 C.ar      1 RES1    0.0000
     36 H12        2.5478   12.6272    1.9739 H         1 RES1    0.0000
     37 C16        3.2789   10.8824    2.6714 C.ar      1 RES1    0.0000
     38 H13        2.7610   10.3439    2.1184 H         1 RES1    0.0000
     39 C17        7.7211    9.8562    1.4824 C.3       1 RES1    0.0000
     40 H14        7.6259    9.7867    0.5192 H         1 RES1    0.0000
     41 H15        8.4829    9.3204    1.7535 H         1 RES1    0.0000
     42 C18        7.9353   11.2747    1.8696 C.3       1 RES1    0.0000
     43 H16        7.8607   11.3674    2.8310 H         1 RES1    0.0000
     44 H17        8.8249   11.5573    1.6041 H         1 RES1    0.0000
     45 C19        7.0865   13.4626    1.5769 C.3       1 RES1    0.0000
     46 H18        6.3732   13.9547    1.1633 H         1 RES1    0.0000
     47 H19        7.9300   13.7996    1.2661 H         1 RES1    0.0000
     48 H20        7.0349   13.5624    2.5298 H         1 RES1    0.0000
@<TRIPOS>BOND
     1    1   13 1
     2    2   18 2
     3    3   11 2
     4    4   11 2
     5    5   12 2
     6    6   12 1
     7    7   42 1
     8    8    9 1
     9   10    8 1
    10   11   30 1
    11   12   14 1
    12   13    8 1
    13   14   13 2
    14   15   14 1
    15   16   15 1
    16   17   15 1
    17   18   17 1
    18   19   18 1
    19   20   19 1
    20   21   19 1
    21   22   19 1
    22   23   22 1
    23   24   22 1
    24   25   22 1
    25   26   25 1
    26   27   25 1
    27   28    1 1
    28   29   15 1
    29   30   29 ar
    30   31   30 ar
    31   32   31 1
    32   33   31 ar
    33   34   33 1
    34   35   33 ar
    35   36   35 1
    36   37   29 ar
    37   38   37 1
    38   39    6 1
    39   40   39 1
    40   41   39 1
    41   42   39 1
    42   43   42 1
    43   44   42 1
    44   45    7 1
    45   46   45 1
    46   47   45 1
    47   48   45 1
    48   17   28 2
    49   25   28 1
    50   35   37 ar
@<TRIPOS>SUBSTRUCTURE
     1 RES1 1

@<TRIPOS>CRYSIN
   8.4550    8.9156   24.6700  90.0000  96.9280  90.0000 231 1

