# MOL2 file generated by ConQuest
# Please check atom types

@<TRIPOS>MOLECULE
IRUXAV
    41    45     1
SMALL
NO_CHARGES
****
Generated from CSD

@<TRIPOS>ATOM
      1 O1         5.5498    1.4045    3.2857 O.3       1 RES1    0.0000
      2 O2         3.9672   -1.8318    0.0746 O.2       1 RES1    0.0000
      3 O3         1.6672    1.9951    1.1430 O.2       1 RES1    0.0000
      4 N1         5.8405    0.2640    4.1395 N.3       1 RES1    0.0000
      5 N2         3.0187    0.1232    0.9275 N.am      1 RES1    0.0000
      6 C1         5.1302    0.9948    1.9400 C.3       1 RES1    0.0000
      7 H1         5.0478    1.7917    1.3411 H         1 RES1    0.0000
      8 C2         6.1126    0.0269    1.3823 C.2       1 RES1    0.0000
      9 H2         6.5721    0.1611    0.5625 H         1 RES1    0.0000
     10 C3         6.2790   -1.0394    2.1466 C.2       1 RES1    0.0000
     11 H3         6.8557   -1.7603    1.9212 H         1 RES1    0.0000
     12 C4         5.4613   -0.9921    3.4081 C.3       1 RES1    0.0000
     13 H4         5.6390   -1.7966    3.9747 H         1 RES1    0.0000
     14 C5         3.9654   -0.8903    3.0642 C.3       1 RES1    0.0000
     15 H5         3.4318   -0.8106    3.8931 H         1 RES1    0.0000
     16 H6         3.6740   -1.7037    2.5807 H         1 RES1    0.0000
     17 C6         3.7530    0.3547    2.1782 C.3       1 RES1    0.0000
     18 H7         3.2162    1.0064    2.7153 H         1 RES1    0.0000
     19 C7         3.1908   -0.9123   -0.0106 C.2       1 RES1    0.0000
     20 C8         2.0177    1.0234    0.5153 C.2       1 RES1    0.0000
     21 C9         7.2205    0.3146    4.5251 C.ar      1 RES1    0.0000
     22 C10        7.6923   -0.6891    5.3758 C.ar      1 RES1    0.0000
     23 H8         7.1161   -1.3963    5.6401 H         1 RES1    0.0000
     24 C11        8.9941   -0.6539    5.8329 C.ar      1 RES1    0.0000
     25 H9         9.3128   -1.3479    6.3989 H         1 RES1    0.0000
     26 C12        9.8447    0.3828    5.4749 C.ar      1 RES1    0.0000
     27 H10       10.7395    0.4036    5.7945 H         1 RES1    0.0000
     28 C13        9.3761    1.3809    4.6490 C.ar      1 RES1    0.0000
     29 H11        9.9540    2.0930    4.4005 H         1 RES1    0.0000
     30 C14        8.0665    1.3583    4.1735 C.ar      1 RES1    0.0000
     31 H12        7.7521    2.0556    3.6108 H         1 RES1    0.0000
     32 C15        2.2130   -0.6357   -1.1024 C.ar      1 RES1    0.0000
     33 C16        1.9654   -1.3440   -2.2622 C.ar      1 RES1    0.0000
     34 H13        2.4612   -2.1227   -2.4837 H         1 RES1    0.0000
     35 C17        0.9548   -0.8656   -3.0918 C.ar      1 RES1    0.0000
     36 H14        0.7530   -1.3303   -3.8953 H         1 RES1    0.0000
     37 C18        0.2340    0.2849   -2.7658 C.ar      1 RES1    0.0000
     38 H15       -0.4541    0.5835   -3.3483 H         1 RES1    0.0000
     39 C19        0.5050    1.0025   -1.6069 C.ar      1 RES1    0.0000
     40 H16        0.0236    1.7917   -1.3874 H         1 RES1    0.0000
     41 C20        1.5077    0.5136   -0.7883 C.ar      1 RES1    0.0000
@<TRIPOS>BOND
     1    1    4 1
     2    2   19 2
     3    3   20 2
     4    4   12 1
     5    5   17 1
     6    6    1 1
     7    7    6 1
     8    8    6 1
     9    9    8 1
    10   10    8 2
    11   11   10 1
    12   12   10 1
    13   13   12 1
    14   14   12 1
    15   15   14 1
    16   16   14 1
    17   17    6 1
    18   18   17 1
    19   19    5 1
    20   20    5 1
    21   21    4 1
    22   22   21 ar
    23   23   22 1
    24   24   22 ar
    25   25   24 1
    26   26   24 ar
    27   27   26 1
    28   28   26 ar
    29   29   28 1
    30   30   21 ar
    31   31   30 1
    32   32   19 1
    33   33   32 ar
    34   34   33 1
    35   35   33 ar
    36   36   35 1
    37   37   35 ar
    38   38   37 1
    39   39   37 ar
    40   40   39 1
    41   41   20 1
    42   14   17 1
    43   28   30 ar
    44   32   41 ar
    45   39   41 ar
@<TRIPOS>SUBSTRUCTURE
     1 RES1 1

@<TRIPOS>CRYSIN
  25.6400    5.4993   22.3486  90.0000  99.2590  90.0000  15 1

