# MOL2 file generated by ConQuest
# Please check atom types

@<TRIPOS>MOLECULE
ISABIO
    46    47     1
SMALL
NO_CHARGES
****
Generated from CSD

@<TRIPOS>ATOM
      1 C1        -0.1339    6.9553    3.2555 C.3       1 RES1    0.0000
      2 H1        -0.0744    5.9875    3.3145 H         1 RES1    0.0000
      3 H2        -0.9492    7.1913    2.7888 H         1 RES1    0.0000
      4 C2        -0.0934    7.5736    4.6179 C.3       1 RES1    0.0000
      5 H3        -0.5815    8.4250    4.5890 H         1 RES1    0.0000
      6 C3         1.3501    7.8539    4.7626 C.2       1 RES1    0.0000
      7 C4         1.9248    7.9133    3.4001 C.2       1 RES1    0.0000
      8 C5        -0.3352    6.9092    5.9804 C.3       1 RES1    0.0000
      9 H4        -1.1617    7.2387    6.3891 H         1 RES1    0.0000
     10 C6        -0.3366    5.3589    5.9165 C.3       1 RES1    0.0000
     11 H5        -1.1002    5.0629    5.3944 H         1 RES1    0.0000
     12 H6         0.4663    5.0579    5.4668 H         1 RES1    0.0000
     13 C7        -0.4059    4.7258    7.3067 C.3       1 RES1    0.0000
     14 H7         0.2486    5.1433    7.9047 H         1 RES1    0.0000
     15 C8        -1.8207    4.9214    7.8734 C.2       1 RES1    0.0000
     16 C9        -3.1290    6.2785    9.2841 C.3       1 RES1    0.0000
     17 H8        -3.7318    6.5126    8.5606 H         1 RES1    0.0000
     18 H9        -3.5026    5.5105    9.7422 H         1 RES1    0.0000
     19 C10       -3.0658    7.3500   10.1884 C.3       1 RES1    0.0000
     20 H10       -3.9286    7.5036   10.5682 H         1 RES1    0.0000
     21 H11       -2.7784    8.1438    9.7169 H         1 RES1    0.0000
     22 H12       -2.4327    7.1499   10.8792 H         1 RES1    0.0000
     23 C11        0.0526    2.5504    8.3436 C.2       1 RES1    0.0000
     24 C12        0.0424    2.6392   10.7671 C.3       1 RES1    0.0000
     25 C13       -0.3914    3.8491   11.6111 C.3       1 RES1    0.0000
     26 H13        0.1692    4.5977   11.4134 H         1 RES1    0.0000
     27 H14       -0.3171    3.6276   12.5444 H         1 RES1    0.0000
     28 H15       -1.3061    4.0677   11.4110 H         1 RES1    0.0000
     29 C14       -0.8336    1.4836   10.9781 C.3       1 RES1    0.0000
     30 H16       -1.7484    1.7481   10.8551 H         1 RES1    0.0000
     31 H17       -0.7132    1.1526   11.8704 H         1 RES1    0.0000
     32 H18       -0.6106    0.7970   10.3463 H         1 RES1    0.0000
     33 C15        1.5299    2.3308   10.9034 C.3       1 RES1    0.0000
     34 H19        2.0368    3.1331   10.7394 H         1 RES1    0.0000
     35 H20        1.7765    1.6617   10.2655 H         1 RES1    0.0000
     36 H21        1.7104    2.0178   11.7908 H         1 RES1    0.0000
     37 N1         1.8968    7.6463    5.9080 N.2       1 RES1    0.0000
     38 N2        -0.1049    3.2817    7.1789 N.am      1 RES1    0.0000
     39 H22       -0.0321    2.9101    6.4072 H         1 RES1    0.0000
     40 O1         1.0143    7.4907    2.5694 O.3       1 RES1    0.0000
     41 O2         3.0201    8.3332    3.0650 O.2       1 RES1    0.0000
     42 O3         0.8564    7.3348    6.7677 O.3       1 RES1    0.0000
     43 O4        -2.8076    4.2292    7.5732 O.2       1 RES1    0.0000
     44 O5        -1.8677    5.9136    8.7294 O.3       1 RES1    0.0000
     45 O6         0.3535    1.3603    8.2158 O.2       1 RES1    0.0000
     46 O7        -0.1205    3.2349    9.4288 O.3       1 RES1    0.0000
@<TRIPOS>BOND
     1    1    2 1
     2    3    1 1
     3    4    1 1
     4    5    4 1
     5    6    4 1
     6    7    6 1
     7    8    4 1
     8    9    8 1
     9   10    8 1
    10   11   10 1
    11   12   10 1
    12   13   10 1
    13   14   13 1
    14   15   13 1
    15   16   17 1
    16   18   16 1
    17   19   16 1
    18   20   19 1
    19   21   19 1
    20   22   19 1
    21   23   38 1
    22   24   25 1
    23   25   26 1
    24   27   25 1
    25   28   25 1
    26   29   24 1
    27   30   29 1
    28   31   29 1
    29   32   29 1
    30   33   24 1
    31   34   33 1
    32   35   33 1
    33   36   33 1
    34   37    6 2
    35   38   13 1
    36   39   38 1
    37   40    1 1
    38   41    7 2
    39   42    8 1
    40   43   15 2
    41   44   15 1
    42   45   23 2
    43   46   23 1
    44    7   40 1
    45   16   44 1
    46   24   46 1
    47   37   42 1
@<TRIPOS>SUBSTRUCTURE
     1 RES1 1

@<TRIPOS>CRYSIN
   6.0330   12.1310   13.6100 114.7600  99.7300  94.0900   2 1

