# MOL2 file generated by ConQuest
# Please check atom types

@<TRIPOS>MOLECULE
ISACIO
    68    70     2
SMALL
NO_CHARGES
****
Generated from CSD

@<TRIPOS>ATOM
      1 O1         6.4887    6.1229   28.9125 O.2       1 RES1    0.0000
      2 O2         1.1496    3.3685   32.7654 O.2       1 RES1    0.0000
      3 O3         0.3199    4.9282   31.6481 O.2       1 RES1    0.0000
      4 N1         6.9155    3.9461   28.9383 N.am      1 RES1    0.0000
      5 N2         1.2300    4.2181   31.9279 N.pl3     1 RES1    0.0000
      6 C1         2.5070    4.3981   31.2586 C.ar      1 RES1    0.0000
      7 C2         3.4710    3.4427   31.3732 C.ar      1 RES1    0.0000
      8 H1         3.3247    2.6871   31.8949 H         1 RES1    0.0000
      9 C3         4.6582    3.6069   30.7082 C.ar      1 RES1    0.0000
     10 H2         5.3143    2.9502   30.7617 H         1 RES1    0.0000
     11 C4         4.8815    4.7413   29.9612 C.ar      1 RES1    0.0000
     12 C5         3.9004    5.7016   29.8925 C.ar      1 RES1    0.0000
     13 H3         4.0526    6.4750   29.4005 H         1 RES1    0.0000
     14 C6         2.7063    5.5394   30.5350 C.ar      1 RES1    0.0000
     15 H4         2.0443    6.1902   30.4809 H         1 RES1    0.0000
     16 C7         6.1551    4.9875   29.2347 C.2       1 RES1    0.0000
     17 C8         8.1652    4.1004   28.2092 C.3       1 RES1    0.0000
     18 H5         8.6613    4.8431   28.6109 H         1 RES1    0.0000
     19 C9         8.9855    2.8414   28.3823 C.3       1 RES1    0.0000
     20 H6         8.5090    2.0957   28.0129 H         1 RES1    0.0000
     21 H7         9.1428    2.6881   29.3179 H         1 RES1    0.0000
     22 H8         9.8254    2.9423   27.9270 H         1 RES1    0.0000
     23 C10        7.9069    4.4406   26.7578 C.ar      1 RES1    0.0000
     24 C11        7.0267    3.7137   26.0234 C.ar      1 RES1    0.0000
     25 H9         6.5511    3.0273   26.4337 H         1 RES1    0.0000
     26 C12        6.8189    3.9728   24.6675 C.ar      1 RES1    0.0000
     27 H10        6.2150    3.4575   24.1838 H         1 RES1    0.0000
     28 C13        7.4877    4.9608   24.0669 C.ar      1 RES1    0.0000
     29 H11        7.3646    5.1398   23.1629 H         1 RES1    0.0000
     30 C14        8.3619    5.7065   24.8181 C.ar      1 RES1    0.0000
     31 H12        8.8187    6.4097   24.4184 H         1 RES1    0.0000
     32 C15        8.5766    5.4435   26.1354 C.ar      1 RES1    0.0000
     33 H13        9.1890    5.9548   26.6121 H         1 RES1    0.0000
     34 O4         2.2308    6.0863   20.0973 O.2       2 RES2    0.0000
     35 O5         3.4522    3.6544   26.6627 O.2       2 RES2    0.0000
     36 O6         3.9936    5.7144   26.5497 O.2       2 RES2    0.0000
     37 N3         1.9699    3.8887   19.8446 N.am      2 RES2    0.0000
     38 N4         3.6198    4.6671   26.0515 N.pl3     2 RES2    0.0000
     39 C16        3.3598    4.6701   24.6060 C.ar      2 RES2    0.0000
     40 C17        2.6251    3.6524   24.0844 C.ar      2 RES2    0.0000
     41 H14        2.3317    2.9502   24.6166 H         2 RES2    0.0000
     42 C18        2.3283    3.6969   22.7275 C.ar      2 RES2    0.0000
     43 H15        1.8373    3.0085   22.3403 H         2 RES2    0.0000
     44 C19        2.7508    4.7413   21.9574 C.ar      2 RES2    0.0000
     45 C20        3.5335    5.7273   22.5098 C.ar      2 RES2    0.0000
     46 H16        3.8585    6.4137   21.9736 H         2 RES2    0.0000
     47 C21        3.8380    5.7036   23.8445 C.ar      2 RES2    0.0000
     48 H17        4.3580    6.3731   24.2268 H         2 RES2    0.0000
     49 C22        2.3052    4.9499   20.5457 C.2       2 RES2    0.0000
     50 C23        1.2916    4.0153   18.5621 C.3       2 RES2    0.0000
     51 H18        1.6414    4.8145   18.1147 H         2 RES2    0.0000
     52 C24        1.6448    2.8058   17.6994 C.3       2 RES2    0.0000
     53 H19        1.3027    2.0087   18.1114 H         2 RES2    0.0000
     54 H20        2.5994    2.7395   17.6192 H         2 RES2    0.0000
     55 H21        1.2557    2.9096   16.8296 H         2 RES2    0.0000
     56 C25       -0.1916    4.1914   18.7263 C.ar      2 RES2    0.0000
     57 C26       -0.8528    3.9639   19.8945 C.ar      2 RES2    0.0000
     58 H22       -0.3729    3.6811   20.6388 H         2 RES2    0.0000
     59 C27       -2.2042    4.1409   20.0012 C.ar      2 RES2    0.0000
     60 H23       -2.6388    3.9669   20.8040 H         2 RES2    0.0000
     61 C28       -2.9125    4.5781   18.9043 C.ar      2 RES2    0.0000
     62 H24       -3.8303    4.7136   18.9671 H         2 RES2    0.0000
     63 C29       -2.2727    4.8085   17.7414 C.ar      2 RES2    0.0000
     64 H25       -2.7500    5.0943   16.9947 H         2 RES2    0.0000
     65 C30       -0.9263    4.6236   17.6605 C.ar      2 RES2    0.0000
     66 H26       -0.4944    4.7967   16.8560 H         2 RES2    0.0000
     67 H27        6.6632    3.2439   29.0602 H         1 RES1    0.0000
     68 H28        2.1127    3.1252   20.2193 H         2 RES2    0.0000
@<TRIPOS>BOND
     1    1   16 2
     2    2    5 2
     3    3    5 2
     4    4   16 1
     5    5    6 1
     6    6    7 ar
     7    7    8 1
     8    9    7 ar
     9   10    9 1
    10   11    9 ar
    11   12   11 ar
    12   13   12 1
    13   14    6 ar
    14   15   14 1
    15   16   11 1
    16   17    4 1
    17   18   17 1
    18   19   17 1
    19   20   19 1
    20   21   19 1
    21   22   19 1
    22   23   17 1
    23   24   23 ar
    24   25   24 1
    25   26   24 ar
    26   27   26 1
    27   28   26 ar
    28   29   28 1
    29   30   28 ar
    30   31   30 1
    31   32   23 ar
    32   33   32 1
    33   34   49 2
    34   35   38 2
    35   36   38 2
    36   37   49 1
    37   38   39 1
    38   39   40 ar
    39   40   41 1
    40   42   40 ar
    41   43   42 1
    42   44   42 ar
    43   45   44 ar
    44   46   45 1
    45   47   39 ar
    46   48   47 1
    47   49   44 1
    48   50   37 1
    49   51   50 1
    50   52   50 1
    51   53   52 1
    52   54   52 1
    53   55   52 1
    54   56   50 1
    55   57   56 ar
    56   58   57 1
    57   59   57 ar
    58   60   59 1
    59   61   59 ar
    60   62   61 1
    61   63   61 ar
    62   64   63 1
    63   65   56 ar
    64   66   65 1
    65   67    4 1
    66   68   37 1
    67   12   14 ar
    68   30   32 ar
    69   45   47 ar
    70   63   65 ar
@<TRIPOS>SUBSTRUCTURE
     1 RES1 1
     2 RES2 34

@<TRIPOS>CRYSIN
   8.5535    9.8900   33.0380  90.0000  90.0000  90.0000  19 1

