# MOL2 file generated by ConQuest
# Please check atom types

@<TRIPOS>MOLECULE
ISACOU
    68    70     2
SMALL
NO_CHARGES
****
Generated from CSD

@<TRIPOS>ATOM
      1 O1        -1.2489    2.1345   33.0870 O.2       1 RES1    0.0000
      2 O2        -1.9407    0.2482   26.4611 O.2       1 RES1    0.0000
      3 O3        -1.7183   -1.8127   27.0595 O.2       1 RES1    0.0000
      4 N1        -1.2124   -0.0458   33.7059 N.am      1 RES1    0.0000
      5 N2        -1.8207   -0.6164   27.2826 N.pl3     1 RES1    0.0000
      6 C1        -1.7555   -0.2018   28.7221 C.ar      1 RES1    0.0000
      7 C2        -2.2227   -1.0741   29.6837 C.ar      1 RES1    0.0000
      8 H1        -2.6207   -1.9011   29.4388 H         1 RES1    0.0000
      9 C3        -2.0988   -0.7157   31.0173 C.ar      1 RES1    0.0000
     10 H2        -2.4166   -1.2999   31.6938 H         1 RES1    0.0000
     11 C4        -1.5084    0.4991   31.3672 C.ar      1 RES1    0.0000
     12 C5        -1.0834    1.3654   30.3666 C.ar      1 RES1    0.0000
     13 H3        -0.7012    2.2027   30.6025 H         1 RES1    0.0000
     14 C6        -1.2077    1.0272   29.0293 C.ar      1 RES1    0.0000
     15 H4        -0.9240    1.6223   28.3436 H         1 RES1    0.0000
     16 C7        -1.3203    0.9383   32.7967 C.2       1 RES1    0.0000
     17 C8        -0.9869    0.2307   35.1269 C.3       1 RES1    0.0000
     18 H5        -0.5715    1.1368   35.2050 H         1 RES1    0.0000
     19 C9        -0.0008   -0.7882   35.6858 C.3       1 RES1    0.0000
     20 H6        -0.3501   -1.6927   35.5432 H         1 RES1    0.0000
     21 H7         0.1215   -0.6322   36.6465 H         1 RES1    0.0000
     22 H8         0.8608   -0.6944   35.2292 H         1 RES1    0.0000
     23 C10       -2.2835    0.2406   35.9225 C.ar      1 RES1    0.0000
     24 C11       -3.2163   -0.7855   35.8066 C.ar      1 RES1    0.0000
     25 H9        -3.0750   -1.4805   35.1728 H         1 RES1    0.0000
     26 C12       -4.3508   -0.8030   36.6047 C.ar      1 RES1    0.0000
     27 H10       -4.9813   -1.5078   36.5137 H         1 RES1    0.0000
     28 C13       -4.5695    0.1986   37.5292 C.ar      1 RES1    0.0000
     29 H11       -5.3456    0.1838   38.0760 H         1 RES1    0.0000
     30 C14       -3.6561    1.2181   37.6524 C.ar      1 RES1    0.0000
     31 H12       -3.7992    1.9087   38.2894 H         1 RES1    0.0000
     32 C15       -2.5230    1.2399   36.8475 C.ar      1 RES1    0.0000
     33 H13       -1.9021    1.9534   36.9324 H         1 RES1    0.0000
     34 O4        -7.9563   -0.8226   36.4436 O.2       2 RES2    0.0000
     35 O5        -4.8883    0.5117   30.3778 O.2       2 RES2    0.0000
     36 O6        -4.1399    2.3467   31.2359 O.2       2 RES2    0.0000
     37 N3        -8.4150    1.3878   36.6276 N.am      2 RES2    0.0000
     38 N4        -4.8100    1.3359   31.2830 N.pl3     2 RES2    0.0000
     39 C16       -5.5904    1.0752   32.5136 C.ar      2 RES2    0.0000
     40 C17       -5.5324    1.9965   33.5368 C.ar      2 RES2    0.0000
     41 H14       -4.9838    2.7690   33.4655 H         2 RES2    0.0000
     42 C18       -6.2931    1.7696   34.6695 C.ar      2 RES2    0.0000
     43 H15       -6.2806    2.4002   35.3781 H         2 RES2    0.0000
     44 C19       -7.0726    0.6295   34.7774 C.ar      2 RES2    0.0000
     45 C20       -7.0912   -0.2842   33.7385 C.ar      2 RES2    0.0000
     46 H16       -7.6147   -1.0730   33.8158 H         2 RES2    0.0000
     47 C21       -6.3565   -0.0638   32.5873 C.ar      2 RES2    0.0000
     48 H17       -6.3810   -0.6830   31.8669 H         2 RES2    0.0000
     49 C22       -7.8589    0.3306   36.0204 C.2       2 RES2    0.0000
     50 C23       -9.0576    1.3010   37.9387 C.3       2 RES2    0.0000
     51 H18       -9.5152    0.4140   38.0035 H         2 RES2    0.0000
     52 C24      -10.1146    2.3877   38.0526 C.3       2 RES2    0.0000
     53 H19       -9.6937    3.2654   37.9431 H         2 RES2    0.0000
     54 H20      -10.5403    2.3380   38.9337 H         2 RES2    0.0000
     55 H21      -10.7913    2.2595   37.3552 H         2 RES2    0.0000
     56 C25       -8.0123    1.3725   39.0416 C.ar      2 RES2    0.0000
     57 C26       -7.1223    2.4406   39.1149 C.ar      2 RES2    0.0000
     58 H22       -7.1784    3.1464   38.4827 H         2 RES2    0.0000
     59 C27       -6.1552    2.4809   40.1074 C.ar      2 RES2    0.0000
     60 H23       -5.5499    3.2119   40.1497 H         2 RES2    0.0000
     61 C28       -6.0684    1.4548   41.0392 C.ar      2 RES2    0.0000
     62 H24       -5.4075    1.4838   41.7201 H         2 RES2    0.0000
     63 C29       -6.9432    0.3971   40.9691 C.ar      2 RES2    0.0000
     64 H25       -6.8845   -0.3088   41.6033 H         2 RES2    0.0000
     65 C30       -7.9119    0.3562   39.9758 C.ar      2 RES2    0.0000
     66 H26       -8.5130   -0.3780   39.9363 H         2 RES2    0.0000
     67 H27       -1.2247   -0.8783   33.4413 H         1 RES1    0.0000
     68 H28       -8.3204    2.1384   36.3043 H         2 RES2    0.0000
@<TRIPOS>BOND
     1    1   16 2
     2    2    5 2
     3    3    5 2
     4    4   16 1
     5    5    6 1
     6    6    7 ar
     7    7    8 1
     8    9    7 ar
     9   10    9 1
    10   11    9 ar
    11   12   11 ar
    12   13   12 1
    13   14    6 ar
    14   15   14 1
    15   16   11 1
    16   17    4 1
    17   18   17 1
    18   19   17 1
    19   20   19 1
    20   21   19 1
    21   22   19 1
    22   23   17 1
    23   24   23 ar
    24   25   24 1
    25   26   24 ar
    26   27   26 1
    27   28   26 ar
    28   29   28 1
    29   30   28 ar
    30   31   30 1
    31   32   23 ar
    32   33   32 1
    33   34   49 2
    34   35   38 2
    35   36   38 2
    36   37   49 1
    37   38   39 1
    38   39   40 ar
    39   40   41 1
    40   42   40 ar
    41   43   42 1
    42   44   42 ar
    43   45   44 ar
    44   46   45 1
    45   47   39 ar
    46   48   47 1
    47   49   44 1
    48   50   37 1
    49   51   50 1
    50   52   50 1
    51   53   52 1
    52   54   52 1
    53   55   52 1
    54   56   50 1
    55   57   56 ar
    56   58   57 1
    57   59   57 ar
    58   60   59 1
    59   61   59 ar
    60   62   61 1
    61   63   61 ar
    62   64   63 1
    63   65   56 ar
    64   66   65 1
    65   67    4 1
    66   68   37 1
    67   12   14 ar
    68   30   32 ar
    69   45   47 ar
    70   63   65 ar
@<TRIPOS>SUBSTRUCTURE
     1 RES1 1
     2 RES2 34

@<TRIPOS>CRYSIN
  11.8850    5.4550   40.4438  90.0000  95.3670  90.0000 231 1

