# MOL2 file generated by ConQuest
# Please check atom types

@<TRIPOS>MOLECULE
ISAJAN
    36    36     2
SMALL
USER_CHARGES
****
Generated from CSD

@<TRIPOS>ATOM
      1 O1         3.0093   -1.6385    9.5818 O.2       1 RES1    0.0000
      2 O2         4.0251    0.3361   11.4077 O.2       1 RES1    0.0000
      3 O3         1.9315    0.7209   11.6974 O.2       1 RES1    0.0000
      4 N1         4.0125   -1.5085    7.5156 N.2       1 RES1    0.0000
      5 N2         4.0229   -2.7689    7.5308 N.1       1 RES1    1.0000
      6 N3         4.0902   -3.8725    7.4383 N.2       1 RES1   -1.0000
      7 N4         2.9450    0.7101   11.0209 N.pl3     1 RES1    0.0000
      8 C1         3.1748    0.4959    8.5466 C.ar      1 RES1    0.0000
      9 C2         2.8415    1.2637    9.6633 C.ar      1 RES1    0.0000
     10 C3         2.4689    2.5834    9.5703 C.ar      1 RES1    0.0000
     11 H1         2.2389    3.0626   10.3343 H         1 RES1    0.0000
     12 C4         2.4409    3.1870    8.3304 C.ar      1 RES1    0.0000
     13 H2         2.1822    4.0768    8.2498 H         1 RES1    0.0000
     14 C5         2.7988    2.4641    7.2064 C.ar      1 RES1    0.0000
     15 H3         2.8020    2.8786    6.3750 H         1 RES1    0.0000
     16 C6         3.1520    1.1304    7.3075 C.ar      1 RES1    0.0000
     17 H4         3.3760    0.6542    6.5406 H         1 RES1    0.0000
     18 C7         3.3813   -0.9695    8.6565 C.2       1 RES1    0.0000
     19 O4         0.6904   -1.2755    7.0903 O.2       2 RES2    0.0000
     20 O5         0.6394    1.1415    5.0521 O.2       2 RES2    0.0000
     21 O6        -1.2027    0.0870    5.1570 O.2       2 RES2    0.0000
     22 N5        -0.3744   -1.6875    9.0958 N.2       2 RES2    0.0000
     23 N6         0.1715   -2.8280    9.0410 N.1       2 RES2    1.0000
     24 N7         0.5926   -3.8472    9.0867 N.2       2 RES2   -1.0000
     25 N8        -0.3663    0.8088    5.6336 N.pl3     2 RES2    0.0000
     26 C8        -0.5403    0.4951    8.0988 C.ar      2 RES2    0.0000
     27 C9        -0.6075    1.3357    6.9864 C.ar      2 RES2    0.0000
     28 C10       -0.9837    2.6551    7.0739 C.ar      2 RES2    0.0000
     29 H5        -1.0173    3.1890    6.3132 H         2 RES2    0.0000
     30 C11       -1.3108    3.1749    8.3138 C.ar      2 RES2    0.0000
     31 H6        -1.5627    4.0666    8.3911 H         2 RES2    0.0000
     32 C12       -1.2653    2.3710    9.4400 C.ar      2 RES2    0.0000
     33 H7        -1.4970    2.7219   10.2692 H         2 RES2    0.0000
     34 C13       -0.8740    1.0455    9.3348 C.ar      2 RES2    0.0000
     35 H8        -0.8338    0.5167   10.0991 H         2 RES2    0.0000
     36 C14       -0.0210   -0.8884    7.9893 C.2       2 RES2    0.0000
@<TRIPOS>BOND
     1    1   18 2
     2    2    7 2
     3    3    7 2
     4    4    5 2
     5    5    6 2
     6    7    9 1
     7    8    9 ar
     8    9   10 ar
     9   10   11 1
    10   12   10 ar
    11   13   12 1
    12   14   12 ar
    13   15   14 1
    14   16    8 ar
    15   17   16 1
    16   18    4 1
    17   19   36 2
    18   20   25 2
    19   21   25 2
    20   22   23 2
    21   23   24 2
    22   25   27 1
    23   26   27 ar
    24   27   28 ar
    25   28   29 1
    26   30   28 ar
    27   31   30 1
    28   32   30 ar
    29   33   32 1
    30   34   26 ar
    31   35   34 1
    32   36   22 1
    33    8   18 1
    34   14   16 ar
    35   26   36 1
    36   32   34 ar
@<TRIPOS>SUBSTRUCTURE
     1 RES1 1
     2 RES2 19

@<TRIPOS>CRYSIN
   7.4440   10.1110   11.0410  90.0000  90.2200  90.0000   4 1

