# MOL2 file generated by ConQuest
# Please check atom types

@<TRIPOS>MOLECULE
ISAJER
    18    18     1
SMALL
USER_CHARGES
****
Generated from CSD

@<TRIPOS>ATOM
      1 O1         2.6155    3.6903   -2.4813 O.2       1 RES1    0.0000
      2 O2         5.4090   -1.0674    1.6680 O.2       1 RES1    0.0000
      3 O3         3.6766   -0.9656    2.9481 O.2       1 RES1    0.0000
      4 N1         1.1146    4.1947   -0.7975 N.2       1 RES1    0.0000
      5 N2         0.6945    5.1352   -1.5149 N.1       1 RES1    1.0000
      6 N3         0.2374    6.0006   -2.0408 N.2       1 RES1   -1.0000
      7 N4         4.3191   -0.6081    1.9793 N.pl3     1 RES1    0.0000
      8 C1         2.7118    2.4144   -0.4727 C.ar      1 RES1    0.0000
      9 C2         3.7470    1.6112   -0.9501 C.ar      1 RES1    0.0000
     10 H1         4.0772    1.7387   -1.8096 H         1 RES1    0.0000
     11 C3         4.2833    0.6229   -0.1414 C.ar      1 RES1    0.0000
     12 H2         4.9781    0.0856   -0.4443 H         1 RES1    0.0000
     13 C4         3.7625    0.4542    1.1234 C.ar      1 RES1    0.0000
     14 C5         2.7341    1.2292    1.6239 C.ar      1 RES1    0.0000
     15 H3         2.4023    1.0883    2.4819 H         1 RES1    0.0000
     16 C6         2.2090    2.2234    0.8109 C.ar      1 RES1    0.0000
     17 H4         1.5198    2.7633    1.1244 H         1 RES1    0.0000
     18 C7         2.1840    3.4702   -1.3807 C.2       1 RES1    0.0000
@<TRIPOS>BOND
     1    1   18 2
     2    2    7 2
     3    3    7 2
     4    4    5 2
     5    5    6 2
     6    7   13 1
     7    8    9 ar
     8    9   10 1
     9   11    9 ar
    10   12   11 1
    11   13   11 ar
    12   14   13 ar
    13   15   14 1
    14   16    8 ar
    15   17   16 1
    16   18    4 1
    17    8   18 1
    18   14   16 ar
@<TRIPOS>SUBSTRUCTURE
     1 RES1 1

@<TRIPOS>CRYSIN
  23.5640    5.3140   13.6820  90.0000 109.7200  90.0000  15 1

