# MOL2 file generated by ConQuest
# Please check atom types

@<TRIPOS>MOLECULE
ISAXUV01
    21    21     1
SMALL
NO_CHARGES
****
Generated from CSD

@<TRIPOS>ATOM
      1 O1         2.7701    9.8463    1.0759 O.2       1 RES1    0.0000
      2 O2         2.6571   11.2366    2.7389 O.2       1 RES1    0.0000
      3 O3         6.1657   14.6748    1.7323 O.2       1 RES1    0.0000
      4 O4         8.2091   13.9368    1.6903 O.2       1 RES1    0.0000
      5 N1         7.8951    9.0109    1.6039 N.pl3     1 RES1    0.0000
      6 H1         8.6927    9.2002    1.5294 H         1 RES1    0.0000
      7 H2         7.5891    8.1670    1.5685 H         1 RES1    0.0000
      8 N2         3.2846   10.6165    1.8864 N.pl3     1 RES1    0.0000
      9 N3         6.9909   13.7594    1.7166 N.pl3     1 RES1    0.0000
     10 C1         6.9874   10.0212    1.6622 C.ar      1 RES1    0.0000
     11 C2         5.5930    9.7312    1.7359 C.ar      1 RES1    0.0000
     12 C3         4.7372   10.8269    1.8166 C.ar      1 RES1    0.0000
     13 C4         5.1358   12.1620    1.8383 C.ar      1 RES1    0.0000
     14 H3         4.5141   12.8762    1.9181 H         1 RES1    0.0000
     15 C5         6.5003   12.3774    1.7359 C.ar      1 RES1    0.0000
     16 C6         7.4271   11.3545    1.6507 C.ar      1 RES1    0.0000
     17 H4         8.3544   11.5516    1.5847 H         1 RES1    0.0000
     18 C7         5.1701    8.2898    1.7625 C.3       1 RES1    0.0000
     19 H5         4.2095    8.2339    1.9500 H         1 RES1    0.0000
     20 H6         5.6673    7.8168    2.4617 H         1 RES1    0.0000
     21 H7         5.3581    7.8789    0.8933 H         1 RES1    0.0000
@<TRIPOS>BOND
     1    1    8 2
     2    2    8 2
     3    3    9 2
     4    4    9 2
     5    5    6 1
     6    7    5 1
     7    8   12 1
     8    9   15 1
     9   10    5 1
    10   11   10 ar
    11   12   11 ar
    12   13   12 ar
    13   14   13 1
    14   15   13 ar
    15   16   10 ar
    16   17   16 1
    17   18   11 1
    18   19   18 1
    19   20   18 1
    20   21   18 1
    21   15   16 ar
@<TRIPOS>SUBSTRUCTURE
     1 RES1 1

@<TRIPOS>CRYSIN
   8.0556   15.9201    6.5108  90.0000  90.0330  90.0000  14 1

