# MOL2 file generated by ConQuest
# Please check atom types

@<TRIPOS>MOLECULE
ISAXUV
    23    21     2
SMALL
NO_CHARGES
****
Generated from CSD

@<TRIPOS>ATOM
      1 O1         4.8794    6.0297    8.2201 O.2       1 RES1    0.0000
      2 O2         4.8791    6.7300    6.1821 O.2       1 RES1    0.0000
      3 O3         3.9069    3.1837    2.7182 O.2       1 RES1    0.0000
      4 O4         5.6296    1.9487    2.8689 O.2       1 RES1    0.0000
      5 N1         4.9210    1.1118    7.9842 N.pl3     1 RES1    0.0000
      6 H1         4.9652    1.3473    8.8524 H         1 RES1    0.0000
      7 H2         4.8956    0.2887    7.6527 H         1 RES1    0.0000
      8 N2         4.8756    5.8362    7.0139 N.pl3     1 RES1    0.0000
      9 N3         4.8396    2.6387    3.3618 N.pl3     1 RES1    0.0000
     10 C1         4.8832    1.8013    5.6803 C.ar      1 RES1    0.0000
     11 C2         4.9048    2.1033    7.0633 C.ar      1 RES1    0.0000
     12 C3         4.9052    3.4377    7.4743 C.ar      1 RES1    0.0000
     13 H3         4.9264    3.6456    8.3806 H         1 RES1    0.0000
     14 C4         4.8752    4.4411    6.5404 C.ar      1 RES1    0.0000
     15 C5         4.8320    4.2111    5.1947 C.ar      1 RES1    0.0000
     16 H4         4.7956    4.9030    4.5746 H         1 RES1    0.0000
     17 C6         4.8457    2.8765    4.8145 C.ar      1 RES1    0.0000
     18 C7         4.8614    0.3532    5.2645 C.3       1 RES1    0.0000
     19 H5         4.7734    0.2951    4.3103 H         1 RES1    0.0000
     20 H6         4.1179   -0.0882    5.6819 H         1 RES1    0.0000
     21 H7         5.6789   -0.0706    5.5368 H         1 RES1    0.0000
     22 O5         4.1940    1.9375    2.8803 Du        2 SUP2    0.0000
     23 O6         5.9543    3.1660    2.7319 Du        2 SUP2    0.0000
@<TRIPOS>BOND
     1    1    8 2
     2    2    8 2
     3    3    9 2
     4    4    9 2
     5    5    6 1
     6    7    5 1
     7    8   14 1
     8    9   17 1
     9   10   11 ar
    10   11    5 1
    11   12   11 ar
    12   13   12 1
    13   14   12 ar
    14   15   14 ar
    15   16   15 1
    16   17   10 ar
    17   18   10 1
    18   19   18 1
    19   20   18 1
    20   21   18 1
    21   15   17 ar
@<TRIPOS>SUBSTRUCTURE
     1 RES1 1
     2 SUP2 22

@<TRIPOS>CRYSIN
   6.7072   16.0387    8.1083  90.0000  91.1600  90.0000  14 2

