# MOL2 file generated by ConQuest
# Please check atom types

@<TRIPOS>MOLECULE
ISAYAC01
    42    36     3
SMALL
NO_CHARGES
****
Generated from CSD

@<TRIPOS>ATOM
      1 C1         6.1195    9.7069    1.9409 C.ar      1 RES1    0.0000
      2 C2         4.9629   10.4952    1.9015 C.ar      1 RES1    0.0000
      3 C3         4.9372   11.8688    1.8363 C.ar      1 RES1    0.0000
      4 H1         4.1221   12.3164    1.8227 H         1 RES1    0.0000
      5 C4         6.1195   12.5894    1.7901 C.ar      1 RES1    0.0000
      6 C5         6.1195    8.2180    2.1595 C.3       1 RES1    0.0000
      7 H2         5.2163    7.8921    2.1446 Du        3 SUP3    0.0000
      8 H3         6.5160    8.0190    3.0111 Du        3 SUP3    0.0000
      9 H4         6.6250    7.7915    1.4641 Du        3 SUP3    0.0000
     10 N1         6.1195   13.9513    1.6910 N.3       1 RES1    0.0000
     11 H5         5.3741   14.3799    1.6570 H         1 RES1    0.0000
     12 H6         6.8649   14.3809    1.6638 H         1 RES1    0.0000
     13 N2         3.6338    9.8550    1.9069 N.pl3     1 RES1    0.0000
     14 O1         3.4759    8.8518    1.2577 O.2       1 RES1    0.0000
     15 O2         2.7452   10.3852    2.5507 O.2       1 RES1    0.0000
     16 C6         6.1195   14.1693    5.2766 C.ar      2 RES2    0.0000
     17 C7         7.2761   13.3831    5.2685 C.ar      2 RES2    0.0000
     18 C8         7.3055   12.0127    5.2440 C.ar      2 RES2    0.0000
     19 H7         8.1218   11.5682    5.2236 H         2 RES2    0.0000
     20 C9         6.1195   11.2825    5.2522 C.ar      2 RES2    0.0000
     21 C10        6.1195   15.6868    5.1286 C.3       2 RES2    0.0000
     22 H8         7.0227   16.0106    5.1584 Du        3 SUP3    0.0000
     23 H9         5.6153   16.0783    5.8457 Du        3 SUP3    0.0000
     24 H10        5.7205   15.9259    4.2892 Du        3 SUP3    0.0000
     25 N3         6.1195    9.9153    5.2399 N.3       2 RES2    0.0000
     26 H11        6.8636    9.4857    5.2277 H         2 RES2    0.0000
     27 H12        5.3754    9.4857    5.2454 H         2 RES2    0.0000
     28 N4         8.5954   14.0233    5.3635 N.pl3     2 RES2    0.0000
     29 O3         8.6995   15.0095    6.0807 O.2       2 RES2    0.0000
     30 O4         9.5268   13.5259    4.7551 O.2       2 RES2    0.0000
     31 C3B        7.3018   11.8688    1.8363 C.ar      1 RES1    0.0000
     32 C2B        7.2761   10.4952    1.9015 C.ar      1 RES1    0.0000
     33 N2B        8.6052    9.8550    1.9069 N.pl3     1 RES1    0.0000
     34 O1B        8.7631    8.8518    1.2577 O.2       1 RES1    0.0000
     35 O2B        9.4938   10.3852    2.5507 O.2       1 RES1    0.0000
     36 H1B        8.1169   12.3164    1.8227 H         1 RES1    0.0000
     37 C8B        4.9335   12.0127    5.2440 C.ar      2 RES2    0.0000
     38 C7B        4.9629   13.3831    5.2685 C.ar      2 RES2    0.0000
     39 N4B        3.6436   14.0233    5.3635 N.pl3     2 RES2    0.0000
     40 O3B        3.5395   15.0095    6.0807 O.2       2 RES2    0.0000
     41 O4B        2.7122   13.5259    4.7551 O.2       2 RES2    0.0000
     42 H7B        4.1172   11.5682    5.2236 H         2 RES2    0.0000
@<TRIPOS>BOND
     1    1    2 ar
     2    2    3 ar
     3    3    4 1
     4    5    3 ar
     5    6    1 1
     6   10    5 1
     7   11   10 1
     8   12   10 1
     9   13    2 1
    10   14   13 2
    11   15   13 2
    12   16   17 ar
    13   17   18 ar
    14   18   19 1
    15   20   18 ar
    16   21   16 1
    17   25   20 1
    18   26   25 1
    19   27   25 1
    20   28   17 1
    21   29   28 2
    22   30   28 2
    23   31    5 ar
    24   32    1 ar
    25   33   32 1
    26   34   33 2
    27   35   33 2
    28   36   31 1
    29   37   20 ar
    30   38   16 ar
    31   39   38 1
    32   40   39 2
    33   41   39 2
    34   42   37 1
    35   31   32 ar
    36   37   38 ar
@<TRIPOS>SUBSTRUCTURE
     1 RES1 1
     2 RES2 16
     3 SUP3 7

@<TRIPOS>CRYSIN
  12.2390   10.5820   13.5820  90.0000  90.0000  90.0000  36 1

