# MOL2 file generated by ConQuest
# Please check atom types

@<TRIPOS>MOLECULE
ISAYAC
    42    42     2
SMALL
NO_CHARGES
****
Generated from CSD

@<TRIPOS>ATOM
      1 O1         3.8012    5.7635    4.2183 O.2       1 RES1    0.0000
      2 O2         2.2129    6.4940    5.4895 O.2       1 RES1    0.0000
      3 O3         7.7423   10.5202    5.4848 O.2       1 RES1    0.0000
      4 O4         7.8850    8.8888    4.0765 O.2       1 RES1    0.0000
      5 O5         0.7313   -0.1029    2.2524 O.2       2 RES2    0.0000
      6 O6        -0.9098    0.6257    1.0493 O.2       2 RES2    0.0000
      7 O7         4.7348    3.2271    2.3202 O.2       2 RES2    0.0000
      8 O8         4.3536    4.9476    1.0728 O.2       2 RES2    0.0000
      9 N1         3.2800    6.6367    4.9078 N.pl3     1 RES1    0.0000
     10 N2         2.8044   11.4149    5.1774 N.pl3     1 RES1    0.0000
     11 H1         3.1707   12.2426    5.0676 H         1 RES1    0.0000
     12 H2         1.9211   11.2646    5.0676 H         1 RES1    0.0000
     13 N3         7.2498    9.5848    4.8532 N.pl3     1 RES1    0.0000
     14 N4         0.1563    0.7851    1.6310 N.pl3     2 RES2    0.0000
     15 N5        -0.5479    5.5463    1.8591 N.pl3     2 RES2    0.0000
     16 H3        -1.3568    5.3678    1.7428 H         2 RES2    0.0000
     17 H4        -0.1780    6.4049    1.7964 H         2 RES2    0.0000
     18 N6         3.9831    3.9433    1.6708 N.pl3     2 RES2    0.0000
     19 C1         5.3516    8.0017    4.9890 C.ar      1 RES1    0.0000
     20 C2         3.9567    7.9425    4.9998 C.ar      1 RES1    0.0000
     21 C3         3.1041    9.0283    5.0557 C.ar      1 RES1    0.0000
     22 H5         2.1639    8.8952    5.0676 H         1 RES1    0.0000
     23 C4         3.6287   10.3249    5.0949 C.ar      1 RES1    0.0000
     24 C5         5.0183   10.4528    5.0703 C.ar      1 RES1    0.0000
     25 H6         5.4179   11.3142    5.0998 H         1 RES1    0.0000
     26 C6         5.8101    9.3234    5.0023 C.ar      1 RES1    0.0000
     27 C7         6.2555    6.7952    5.0944 C.3       1 RES1    0.0000
     28 H7         5.8146    6.1028    5.6293 H         1 RES1    0.0000
     29 H8         7.0970    7.0546    5.5248 H         1 RES1    0.0000
     30 H9         6.4409    6.4475    4.1975 H         1 RES1    0.0000
     31 C8         2.1618    2.2574    1.5866 C.ar      2 RES2    0.0000
     32 C9         0.7686    2.1243    1.6235 C.ar      2 RES2    0.0000
     33 C10       -0.1385    3.1684    1.6909 C.ar      2 RES2    0.0000
     34 H10       -1.0715    2.9888    1.7026 H         2 RES2    0.0000
     35 C11        0.3229    4.4872    1.7412 C.ar      2 RES2    0.0000
     36 C12        1.7024    4.6826    1.7046 C.ar      2 RES2    0.0000
     37 H11        2.0570    5.5645    1.7227 H         2 RES2    0.0000
     38 C13        2.5539    3.5994    1.6423 C.ar      2 RES2    0.0000
     39 C14        3.1156    1.1042    1.3674 C.3       2 RES2    0.0000
     40 H12        3.3884    0.7372    2.2348 H         2 RES2    0.0000
     41 H13        3.9061    1.4214    0.8835 H         2 RES2    0.0000
     42 H14        2.6703    0.4069    0.8433 H         2 RES2    0.0000
@<TRIPOS>BOND
     1    1    9 2
     2    2    9 2
     3    3   13 2
     4    4   13 2
     5    5   14 2
     6    6   14 2
     7    7   18 2
     8    8   18 2
     9    9   20 1
    10   10   11 1
    11   12   10 1
    12   13   26 1
    13   14   32 1
    14   15   16 1
    15   17   15 1
    16   18   38 1
    17   19   20 ar
    18   20   21 ar
    19   21   22 1
    20   23   10 1
    21   24   23 ar
    22   25   24 1
    23   26   19 ar
    24   27   19 1
    25   28   27 1
    26   29   27 1
    27   30   27 1
    28   31   32 ar
    29   32   33 ar
    30   33   34 1
    31   35   15 1
    32   36   35 ar
    33   37   36 1
    34   38   31 ar
    35   39   31 1
    36   40   39 1
    37   41   39 1
    38   42   39 1
    39   21   23 ar
    40   24   26 ar
    41   33   35 ar
    42   36   38 ar
@<TRIPOS>SUBSTRUCTURE
     1 RES1 1
     2 RES2 5

@<TRIPOS>CRYSIN
   8.0136    8.0502   14.2752  75.0970  74.0590  78.4530   2 1

