# MOL2 file generated by ConQuest
# Please check atom types

@<TRIPOS>MOLECULE
ISAYEG
    22    22     1
SMALL
NO_CHARGES
****
Generated from CSD

@<TRIPOS>ATOM
      1 O1        -1.8049    0.2659   17.4895 O.3       1 RES1    0.0000
      2 O2        -0.2168    1.5017   13.1971 O.2       1 RES1    0.0000
      3 O3        -1.3399    1.0589   11.4232 O.2       1 RES1    0.0000
      4 O4        -6.6498   -0.4855   13.3421 O.2       1 RES1    0.0000
      5 O5        -5.5304   -1.7790   12.0327 O.2       1 RES1    0.0000
      6 N1        -2.9352   -0.4365   16.9661 N.3       1 RES1    0.0000
      7 N2        -1.1824    1.0189   12.6355 N.pl3     1 RES1    0.0000
      8 N3        -5.6133   -0.9773   12.9501 N.pl3     1 RES1    0.0000
      9 C1        -4.2711   -0.7012   14.9943 C.ar      1 RES1    0.0000
     10 C2        -3.0690   -0.2432   15.5842 C.ar      1 RES1    0.0000
     11 C3        -2.0552    0.3134   14.8158 C.ar      1 RES1    0.0000
     12 H1        -1.2579    0.6350   15.2205 H         1 RES1    0.0000
     13 C4        -2.2352    0.3879   13.4438 C.ar      1 RES1    0.0000
     14 C5        -3.3699   -0.0616   12.7999 C.ar      1 RES1    0.0000
     15 H2        -3.4633   -0.0243   11.8558 H         1 RES1    0.0000
     16 C6        -4.3627   -0.5691   13.6180 C.ar      1 RES1    0.0000
     17 C7        -5.3414   -1.3182   15.8529 C.3       1 RES1    0.0000
     18 H3        -5.8451   -0.6102   16.3073 H         1 RES1    0.0000
     19 H4        -4.9281   -1.9041   16.5205 H         1 RES1    0.0000
     20 H5        -5.9495   -1.8417   15.2911 H         1 RES1    0.0000
     21 H6        -1.4837   -0.3726   18.0337 H         1 RES1    0.0000
     22 H7        -3.6271   -0.1804   17.4264 H         1 RES1    0.0000
@<TRIPOS>BOND
     1    1    6 1
     2    2    7 2
     3    3    7 2
     4    4    8 2
     5    5    8 2
     6    6   10 1
     7    7   13 1
     8    8   16 1
     9    9   10 ar
    10   10   11 ar
    11   11   12 1
    12   13   11 ar
    13   14   13 ar
    14   15   14 1
    15   16    9 ar
    16   17    9 1
    17   18   17 1
    18   19   17 1
    19   20   17 1
    20   21    1 1
    21   22    6 1
    22   14   16 ar
@<TRIPOS>SUBSTRUCTURE
     1 RES1 1

@<TRIPOS>CRYSIN
  15.0980    3.9219   16.4446  90.0000 116.5860  90.0000  14 1

