# MOL2 file generated by ConQuest
# Please check atom types

@<TRIPOS>MOLECULE
ISEQON
    14    13     1
SMALL
USER_CHARGES
****
Generated from CSD

@<TRIPOS>ATOM
      1 O1         3.9185    5.5397    3.9678 O.3       1 RES1    0.0000
      2 N1         2.9934    6.5529    3.7096 N.2       1 RES1    0.0000
      3 N2         3.2865    4.4701    1.7761 N.1       1 RES1    1.0000
      4 N3         2.3842    5.3396    1.6896 N.2       1 RES1    0.0000
      5 N4         3.9942    3.6072    1.6448 N.2       1 RES1   -1.0000
      6 C1         2.3319    6.3753    2.6288 C.2       1 RES1    0.0000
      7 H1         4.2846    5.8219    4.7157 H         1 RES1    0.0000
      8 O1B       -0.2529    8.2400    0.9495 O.3       1 RES1    0.0000
      9 N1B        0.6721    7.2268    1.2077 N.2       1 RES1    0.0000
     10 N2B        0.3790    9.3096    3.1412 N.1       1 RES1    1.0000
     11 N3B        1.2814    8.4401    3.2277 N.2       1 RES1    0.0000
     12 N4B       -0.3286   10.1725    3.2725 N.2       1 RES1   -1.0000
     13 C1B        1.3337    7.4044    2.2885 C.2       1 RES1    0.0000
     14 H1B       -0.6190    7.9578    0.2016 H         1 RES1    0.0000
@<TRIPOS>BOND
     1    1    2 1
     2    2    6 2
     3    3    4 2
     4    4    6 1
     5    5    3 2
     6    6   13 1
     7    7    1 1
     8    8    9 1
     9    9   13 2
    10   10   11 2
    11   11   13 1
    12   12   10 2
    13   14    8 1
@<TRIPOS>SUBSTRUCTURE
     1 RES1 1

@<TRIPOS>CRYSIN
   4.4211   13.7797    4.9750  90.0000  98.7350  90.0000 231 1

