# MOL2 file generated by ConQuest
# Please check atom types

@<TRIPOS>MOLECULE
ISICUJ
    64    66     2
SMALL
NO_CHARGES
****
Generated from CSD

@<TRIPOS>ATOM
      1 N1         0.8144   -0.1041    2.6676 N.3       1 RES1    0.0000
      2 C1         2.1659    0.0720    2.6111 C.ar      1 RES1    0.0000
      3 C2         2.7892    0.2981    1.3705 C.ar      1 RES1    0.0000
      4 C3         4.1479    0.4721    1.3376 C.ar      1 RES1    0.0000
      5 C4         4.8996    0.4137    2.5001 C.ar      1 RES1    0.0000
      6 C5         4.3000    0.2189    3.7220 C.ar      1 RES1    0.0000
      7 C6         2.9463    0.0407    3.7776 C.ar      1 RES1    0.0000
      8 C7         1.9671    0.3381    0.1171 C.3       1 RES1    0.0000
      9 N2         6.3320    0.5520    2.4335 N.pl3     1 RES1    0.0000
     10 O1         6.9912    0.4821    3.4659 O.2       1 RES1    0.0000
     11 O2         6.8600    0.7125    1.3378 O.2       1 RES1    0.0000
     12 C8         0.0830   -0.2753    3.9069 C.3       1 RES1    0.0000
     13 C9        -1.3962   -0.2525    3.6603 C.ar      1 RES1    0.0000
     14 C10       -2.0657    0.9450    3.5719 C.ar      1 RES1    0.0000
     15 C11       -3.4259    0.9785    3.3714 C.ar      1 RES1    0.0000
     16 C12       -4.1276   -0.1776    3.2419 C.ar      1 RES1    0.0000
     17 C13       -3.4822   -1.3800    3.3068 C.ar      1 RES1    0.0000
     18 C14       -2.1092   -1.4143    3.5115 C.ar      1 RES1    0.0000
     19 H1         0.3685   -0.0285    1.8871 H         1 RES1    0.0000
     20 H2         4.5714    0.6989    0.5164 H         1 RES1    0.0000
     21 H3         4.8480    0.1640    4.4712 H         1 RES1    0.0000
     22 H4         2.5647   -0.0785    4.5656 H         1 RES1    0.0000
     23 H5         2.5028    0.4992   -0.6549 H         1 RES1    0.0000
     24 H6         1.2662    1.1054    0.1469 H         1 RES1    0.0000
     25 H7         1.4882   -0.5420   -0.0672 H         1 RES1    0.0000
     26 H8         0.3778   -1.1625    4.3012 H         1 RES1    0.0000
     27 H9         0.3106    0.4992    4.4922 H         1 RES1    0.0000
     28 H10       -1.5695    1.8044    3.6588 H         1 RES1    0.0000
     29 H11       -3.8890    1.8329    3.3020 H         1 RES1    0.0000
     30 H12       -5.0739   -0.1569    3.0669 H         1 RES1    0.0000
     31 H13       -3.9554   -2.1396    3.1487 H         1 RES1    0.0000
     32 H14       -1.6113   -2.2465    3.5287 H         1 RES1    0.0000
     33 N3         6.0855    4.5894    0.8873 N.3       2 RES2    0.0000
     34 C15        4.8210    4.2271    1.2513 C.ar      2 RES2    0.0000
     35 C16        4.5495    3.9361    2.6006 C.ar      2 RES2    0.0000
     36 C17        3.2535    3.6558    2.9648 C.ar      2 RES2    0.0000
     37 C18        2.2459    3.6401    2.0122 C.ar      2 RES2    0.0000
     38 C19        2.5094    3.8705    0.6906 C.ar      2 RES2    0.0000
     39 C20        3.7971    4.1579    0.3050 C.ar      2 RES2    0.0000
     40 C21        5.6293    3.9454    3.6324 C.3       2 RES2    0.0000
     41 N4         0.8985    3.3655    2.4392 N.pl3     2 RES2    0.0000
     42 O3         0.0223    3.2600    1.5941 O.2       2 RES2    0.0000
     43 O4         0.6525    3.2407    3.6179 O.2       2 RES2    0.0000
     44 C22        6.4372    5.1079   -0.4045 C.3       2 RES2    0.0000
     45 C23        6.7036    4.0880   -1.4759 C.ar      2 RES2    0.0000
     46 C24        6.8534    2.7508   -1.1957 C.ar      2 RES2    0.0000
     47 C25        7.1496    1.8657   -2.2039 C.ar      2 RES2    0.0000
     48 C26        7.2760    2.2886   -3.4982 C.ar      2 RES2    0.0000
     49 C27        7.1207    3.6209   -3.7867 C.ar      2 RES2    0.0000
     50 C28        6.8475    4.5088   -2.7845 C.ar      2 RES2    0.0000
     51 H15        6.6477    4.6143    1.5366 H         2 RES2    0.0000
     52 H16        3.0141    3.5232    3.8561 H         2 RES2    0.0000
     53 H17        1.8248    3.8441    0.0462 H         2 RES2    0.0000
     54 H18        3.9689    4.3291   -0.6276 H         2 RES2    0.0000
     55 H19        5.3495    3.7371    4.5342 H         2 RES2    0.0000
     56 H20        6.0761    4.8212    3.7071 H         2 RES2    0.0000
     57 H21        6.4053    3.3734    3.4615 H         2 RES2    0.0000
     58 H22        5.7206    5.7340   -0.7221 H         2 RES2    0.0000
     59 H23        7.2165    5.6199   -0.2519 H         2 RES2    0.0000
     60 H24        6.7375    2.4462   -0.2393 H         2 RES2    0.0000
     61 H25        7.2135    0.9699   -1.9249 H         2 RES2    0.0000
     62 H26        7.4777    1.6332   -4.1479 H         2 RES2    0.0000
     63 H27        7.1884    3.8940   -4.6643 H         2 RES2    0.0000
     64 H28        6.7570    5.4916   -3.0039 H         2 RES2    0.0000
@<TRIPOS>BOND
     1    1    2 1
     2    2    3 ar
     3    3    4 ar
     4    4    5 ar
     5    5    6 ar
     6    6    7 ar
     7    7    2 ar
     8    8    3 1
     9    9    5 1
    10   10    9 2
    11   11    9 2
    12   12    1 1
    13   13   12 1
    14   14   13 ar
    15   15   14 ar
    16   16   15 ar
    17   17   16 ar
    18   18   13 ar
    19   19    1 1
    20   20    4 1
    21   21    6 1
    22   22    7 1
    23   23    8 1
    24   24    8 1
    25   25    8 1
    26   26   12 1
    27   27   12 1
    28   28   14 1
    29   29   15 1
    30   30   16 1
    31   31   17 1
    32   32   18 1
    33   33   34 1
    34   34   35 ar
    35   35   36 ar
    36   36   37 ar
    37   37   38 ar
    38   38   39 ar
    39   39   34 ar
    40   40   35 1
    41   41   37 1
    42   42   41 2
    43   43   41 2
    44   44   33 1
    45   45   44 1
    46   46   45 ar
    47   47   46 ar
    48   48   47 ar
    49   49   48 ar
    50   50   45 ar
    51   51   33 1
    52   52   36 1
    53   53   38 1
    54   54   39 1
    55   55   40 1
    56   56   40 1
    57   57   40 1
    58   58   44 1
    59   59   44 1
    60   60   46 1
    61   61   47 1
    62   62   48 1
    63   63   49 1
    64   64   50 1
    65   17   18 ar
    66   49   50 ar
@<TRIPOS>SUBSTRUCTURE
     1 RES1 1
     2 RES2 33

@<TRIPOS>CRYSIN
  16.4570    7.1319   20.9920  90.0000  90.4040  90.0000  14 1

