# MOL2 file generated by ConQuest
# Please check atom types

@<TRIPOS>MOLECULE
ISIGUO
    76    82     2
SMALL
USER_CHARGES
****
Generated from CSD

@<TRIPOS>ATOM
      1 O1         5.6359    2.4704    3.7704 O.2       1 RES1   -1.0000
      2 O2         4.2780    2.7915    0.5543 O.2       1 RES1    0.0000
      3 N1         5.1443    3.6323    3.4875 N.pl3     1 RES1    1.0000
      4 N2         6.2504    3.5152    1.4044 N.am      1 RES1    0.0000
      5 C1         6.2828    0.4477   -2.3071 C.ar      1 RES1    0.0000
      6 H1         5.8294   -0.0421   -2.9545 H         1 RES1    0.0000
      7 C2         7.6674    0.4106   -2.2534 C.ar      1 RES1    0.0000
      8 H2         8.1386   -0.1083   -2.8646 H         1 RES1    0.0000
      9 C3         8.3450    1.1308   -1.3095 C.ar      1 RES1    0.0000
     10 H3         9.2749    1.1053   -1.2910 H         1 RES1    0.0000
     11 C4         7.6538    1.9074   -0.3697 C.ar      1 RES1    0.0000
     12 C5         8.3226    2.6554    0.6570 C.2       1 RES1    0.0000
     13 H4         9.2490    2.6018    0.7261 H         1 RES1    0.0000
     14 C6         7.6490    3.4288    1.5185 C.2       1 RES1    0.0000
     15 C7         8.3416    4.2233    2.5643 C.ar      1 RES1    0.0000
     16 C8         9.1457    3.5797    3.4889 C.ar      1 RES1    0.0000
     17 H5         9.1828    2.6502    3.4944 H         1 RES1    0.0000
     18 C9         9.8933    4.2960    4.4025 C.ar      1 RES1    0.0000
     19 H6        10.4289    3.8459    5.0156 H         1 RES1    0.0000
     20 C10        9.8511    5.6673    4.4113 C.ar      1 RES1    0.0000
     21 H7        10.3615    6.1490    5.0219 H         1 RES1    0.0000
     22 C11        3.7752    5.4823    4.0639 C.ar      1 RES1    0.0000
     23 H8         3.1965    5.8892    4.6682 H         1 RES1    0.0000
     24 C12        4.2759    4.2419    4.3395 C.ar      1 RES1    0.0000
     25 H9         4.0202    3.8080    5.1202 H         1 RES1    0.0000
     26 C13        5.4714    4.2678    2.3281 C.ar      1 RES1    0.0000
     27 C14        4.9567    5.4957    2.0316 C.ar      1 RES1    0.0000
     28 H10        5.1791    5.9061    1.2262 H         1 RES1    0.0000
     29 C15        4.1147    6.1325    2.9091 C.ar      1 RES1    0.0000
     30 H11        3.7841    6.9819    2.7244 H         1 RES1    0.0000
     31 C16        5.5015    2.7483    0.5108 C.2       1 RES1    0.0000
     32 C17        6.2580    1.9469   -0.4392 C.ar      1 RES1    0.0000
     33 C18        8.3028    5.6116    2.5890 C.ar      1 RES1    0.0000
     34 H12        7.7699    6.0701    1.9795 H         1 RES1    0.0000
     35 C19        9.0517    6.3180    3.5143 C.ar      1 RES1    0.0000
     36 H13        9.0105    7.2469    3.5258 H         1 RES1    0.0000
     37 C20        5.5793    1.2047   -1.4063 C.ar      1 RES1    0.0000
     38 H14        4.6502    1.2231   -1.4396 H         1 RES1    0.0000
     39 O3         0.7283    2.6961    9.9397 O.2       2 RES2    0.0000
     40 O4         2.4869    2.5457    6.6563 O.2       2 RES2   -1.0000
     41 N3         1.8869    3.6503    6.9649 N.pl3     2 RES2    1.0000
     42 N4         2.7296    3.4290    9.1666 N.am      2 RES2    0.0000
     43 C21        0.5073    5.4780    6.3336 C.ar      2 RES2    0.0000
     44 H15        0.0095    5.9145    5.6810 H         2 RES2    0.0000
     45 C22        1.1369    4.3052    6.0348 C.ar      2 RES2    0.0000
     46 H16        1.0529    3.9458    5.1809 H         2 RES2    0.0000
     47 C23        1.9965    4.1815    8.2114 C.ar      2 RES2    0.0000
     48 C24        4.1383    3.3735    9.1392 C.2       2 RES2    0.0000
     49 C25        4.8753    4.2084    8.1561 C.ar      2 RES2    0.0000
     50 C26        4.7225    5.5864    8.0835 C.ar      2 RES2    0.0000
     51 H17        4.0954    6.0112    8.6230 H         2 RES2    0.0000
     52 C27        5.4989    6.3306    7.2120 C.ar      2 RES2    0.0000
     53 H18        5.3855    7.2522    7.1624 H         2 RES2    0.0000
     54 C28        6.4374    5.7094    6.4207 C.ar      2 RES2    0.0000
     55 H19        6.9594    6.2121    5.8379 H         2 RES2    0.0000
     56 C29        2.6369    0.3080   12.8392 C.ar      2 RES2    0.0000
     57 H20        2.1631   -0.1977   13.4607 H         2 RES2    0.0000
     58 C30        1.9600    1.0765   11.9271 C.ar      2 RES2    0.0000
     59 H21        1.0291    1.0874   11.9269 H         2 RES2    0.0000
     60 C31        2.6707    1.8426   10.9998 C.ar      2 RES2    0.0000
     61 C32        1.9490    2.6529   10.0326 C.2       2 RES2    0.0000
     62 C33        6.6050    4.3528    6.4882 C.ar      2 RES2    0.0000
     63 H22        7.2416    3.9363    5.9530 H         2 RES2    0.0000
     64 C34        5.8307    3.6026    7.3489 C.ar      2 RES2    0.0000
     65 H23        5.9500    2.6807    7.3884 H         2 RES2    0.0000
     66 C35        4.7777    2.5986   10.0226 C.2       2 RES2    0.0000
     67 H24        5.7072    2.5660   10.0061 H         2 RES2    0.0000
     68 C36        4.0726    1.8168   10.9943 C.ar      2 RES2    0.0000
     69 C37        4.7343    1.0213   11.9412 C.ar      2 RES2    0.0000
     70 H25        5.6647    0.9991   11.9541 H         2 RES2    0.0000
     71 C38        4.0278    0.2801   12.8411 C.ar      2 RES2    0.0000
     72 H26        4.4784   -0.2471   13.4607 H         2 RES2    0.0000
     73 C39        0.6029    6.0175    7.5876 C.ar      2 RES2    0.0000
     74 H27        0.1728    6.8147    7.7985 H         2 RES2    0.0000
     75 C40        1.3526    5.3494    8.5278 C.ar      2 RES2    0.0000
     76 H28        1.4227    5.6947    9.3888 H         2 RES2    0.0000
@<TRIPOS>BOND
     1    1    3 1
     2    2   31 2
     3    3   24 ar
     4    4   14 1
     5    5    6 1
     6    7    5 ar
     7    8    7 1
     8    9    7 ar
     9   10    9 1
    10   11    9 ar
    11   12   11 1
    12   13   12 1
    13   14   12 2
    14   15   14 1
    15   16   15 ar
    16   17   16 1
    17   18   16 ar
    18   19   18 1
    19   20   18 ar
    20   21   20 1
    21   22   23 1
    22   24   22 ar
    23   25   24 1
    24   26    3 ar
    25   27   26 ar
    26   28   27 1
    27   29   22 ar
    28   30   29 1
    29   31    4 1
    30   32   11 ar
    31   33   15 ar
    32   34   33 1
    33   35   20 ar
    34   36   35 1
    35   37    5 ar
    36   38   37 1
    37   39   61 2
    38   40   41 1
    39   41   45 ar
    40   42   47 1
    41   43   44 1
    42   45   43 ar
    43   46   45 1
    44   47   41 ar
    45   48   42 1
    46   49   48 1
    47   50   49 ar
    48   51   50 1
    49   52   50 ar
    50   53   52 1
    51   54   52 ar
    52   55   54 1
    53   56   57 1
    54   58   56 ar
    55   59   58 1
    56   60   58 ar
    57   61   42 1
    58   62   54 ar
    59   63   62 1
    60   64   49 ar
    61   65   64 1
    62   66   48 2
    63   67   66 1
    64   68   60 ar
    65   69   68 ar
    66   70   69 1
    67   71   56 ar
    68   72   71 1
    69   73   43 ar
    70   74   73 1
    71   75   47 ar
    72   76   75 1
    73    4   26 1
    74   27   29 ar
    75   31   32 1
    76   32   37 ar
    77   33   35 ar
    78   60   61 1
    79   62   64 ar
    80   66   68 1
    81   69   71 ar
    82   73   75 ar
@<TRIPOS>SUBSTRUCTURE
     1 RES1 1
     2 RES2 39

@<TRIPOS>CRYSIN
  14.1952   10.5165   22.0684  90.0000 108.5290  90.0000 231 1

