# MOL2 file generated by ConQuest
# Please check atom types

@<TRIPOS>MOLECULE
ISISUY
    61    62     1
SMALL
NO_CHARGES
****
Generated from CSD

@<TRIPOS>ATOM
      1 O1        -0.7066   -2.1198    5.5292 O.3       1 RES1    0.0000
      2 O2        -3.0319   -5.5530    6.2225 O.3       1 RES1    0.0000
      3 O3        -3.2457   -7.6589    2.8270 O.3       1 RES1    0.0000
      4 O4        -2.3202   -9.8550    4.2580 O.3       1 RES1    0.0000
      5 O5        -2.4801   -0.8102    5.1030 O.2       1 RES1    0.0000
      6 O6         1.5429    4.5193    6.9562 O.2       1 RES1    0.0000
      7 O7         3.2512    3.4585    6.1611 O.2       1 RES1    0.0000
      8 O8        -0.4146  -11.0270    4.4765 O.2       1 RES1    0.0000
      9 O9        -6.1541  -15.4424    4.7335 O.2       1 RES1    0.0000
     10 O10       -4.4476  -16.6832    4.3342 O.2       1 RES1    0.0000
     11 N1         2.0506    3.5348    6.4383 N.pl3     1 RES1    0.0000
     12 N2        -4.9673  -15.5865    4.5015 N.pl3     1 RES1    0.0000
     13 C1        -1.5051   -3.3012    5.2197 C.3       1 RES1    0.0000
     14 H1        -1.5529   -3.4335    4.2398 H         1 RES1    0.0000
     15 H2        -2.4254   -3.1912    5.5657 H         1 RES1    0.0000
     16 C2        -0.8473   -4.4867    5.8698 C.3       1 RES1    0.0000
     17 H3        -0.8177   -4.3010    6.8517 H         1 RES1    0.0000
     18 C3        -1.7170   -5.7413    5.6756 C.3       1 RES1    0.0000
     19 H4        -1.2816   -6.5049    6.1544 H         1 RES1    0.0000
     20 C4        -1.9249   -6.1412    4.2331 C.3       1 RES1    0.0000
     21 H5        -1.0482   -6.1662    3.7738 H         1 RES1    0.0000
     22 H6        -2.4838   -5.4576    3.7846 H         1 RES1    0.0000
     23 C5        -2.6001   -7.5104    4.0989 C.3       1 RES1    0.0000
     24 H7        -3.2670   -7.6329    4.8333 H         1 RES1    0.0000
     25 C6        -1.5755   -8.6098    4.1555 C.3       1 RES1    0.0000
     26 H8        -1.0178   -8.6072    3.3375 H         1 RES1    0.0000
     27 H9        -0.9851   -8.4926    4.9419 H         1 RES1    0.0000
     28 C7         0.5783   -4.7022    5.4193 C.3       1 RES1    0.0000
     29 H10        1.1600   -4.0405    5.8489 H         1 RES1    0.0000
     30 H11        0.6325   -4.6032    4.4462 H         1 RES1    0.0000
     31 H12        0.8672   -5.6035    5.6715 H         1 RES1    0.0000
     32 C8        -3.1140   -5.7598    7.6104 C.3       1 RES1    0.0000
     33 H13       -4.0467   -5.6739    7.8990 H         1 RES1    0.0000
     34 H14       -2.5656   -5.0903    8.0730 H         1 RES1    0.0000
     35 H15       -2.7872   -6.6560    7.8275 H         1 RES1    0.0000
     36 C9        -4.5622   -7.1171    2.8263 C.3       1 RES1    0.0000
     37 H16       -4.9446   -7.1900    1.9267 H         1 RES1    0.0000
     38 H17       -4.5285   -6.1740    3.0927 H         1 RES1    0.0000
     39 H18       -5.1211   -7.6146    3.4589 H         1 RES1    0.0000
     40 C10       -1.3255   -0.9412    5.3957 C.2       1 RES1    0.0000
     41 C11       -0.3923    0.2063    5.6493 C.ar      1 RES1    0.0000
     42 C12       -0.9238    1.4865    5.6972 C.ar      1 RES1    0.0000
     43 H19       -1.8537    1.6047    5.5420 H         1 RES1    0.0000
     44 C13       -0.1443    2.5910    5.9622 C.ar      1 RES1    0.0000
     45 H20       -0.5170    3.4622    6.0134 H         1 RES1    0.0000
     46 C14        1.2058    2.3688    6.1490 C.ar      1 RES1    0.0000
     47 C15        1.7748    1.1267    6.0782 C.ar      1 RES1    0.0000
     48 H21        2.7115    1.0212    6.1935 H         1 RES1    0.0000
     49 C16        0.9783    0.0349    5.8401 C.ar      1 RES1    0.0000
     50 H22        1.3590   -0.8336    5.8051 H         1 RES1    0.0000
     51 C17       -1.6216  -10.9835    4.3956 C.2       1 RES1    0.0000
     52 C18       -2.5180  -12.1683    4.4206 C.ar      1 RES1    0.0000
     53 C19       -3.8860  -12.0529    4.2344 C.ar      1 RES1    0.0000
     54 H23       -4.2736  -11.1966    4.0915 H         1 RES1    0.0000
     55 C20       -4.6926  -13.1804    4.2567 C.ar      1 RES1    0.0000
     56 H24       -5.6329  -13.1088    4.1420 H         1 RES1    0.0000
     57 C21       -4.0963  -14.4056    4.4489 C.ar      1 RES1    0.0000
     58 C22       -2.7416  -14.5462    4.6316 C.ar      1 RES1    0.0000
     59 H25       -2.3580  -15.4064    4.7584 H         1 RES1    0.0000
     60 C23       -1.9463  -13.4141    4.6262 C.ar      1 RES1    0.0000
     61 H26       -1.0096  -13.4917    4.7638 H         1 RES1    0.0000
@<TRIPOS>BOND
     1    1   13 1
     2    2   18 1
     3    3   23 1
     4    4   25 1
     5    5   40 2
     6    6   11 2
     7    7   11 2
     8    8   51 2
     9    9   12 2
    10   10   12 2
    11   11   46 1
    12   12   57 1
    13   13   14 1
    14   15   13 1
    15   16   13 1
    16   17   16 1
    17   18   16 1
    18   19   18 1
    19   20   18 1
    20   21   20 1
    21   22   20 1
    22   23   20 1
    23   24   23 1
    24   25   23 1
    25   26   25 1
    26   27   25 1
    27   28   16 1
    28   29   28 1
    29   30   28 1
    30   31   28 1
    31   32    2 1
    32   33   32 1
    33   34   32 1
    34   35   32 1
    35   36    3 1
    36   37   36 1
    37   38   36 1
    38   39   36 1
    39   40    1 1
    40   41   40 1
    41   42   41 ar
    42   43   42 1
    43   44   42 ar
    44   45   44 1
    45   46   44 ar
    46   47   46 ar
    47   48   47 1
    48   49   41 ar
    49   50   49 1
    50   51    4 1
    51   52   51 1
    52   53   52 ar
    53   54   53 1
    54   55   53 ar
    55   56   55 1
    56   57   55 ar
    57   58   57 ar
    58   59   58 1
    59   60   52 ar
    60   61   60 1
    61   47   49 ar
    62   58   60 ar
@<TRIPOS>SUBSTRUCTURE
     1 RES1 1

@<TRIPOS>CRYSIN
   6.8009   26.0508    7.0508  90.0000 106.9700  90.0000   4 1

