# MOL2 file generated by ConQuest
# Please check atom types

@<TRIPOS>MOLECULE
ISNACN11
    20    20     1
SMALL
NO_CHARGES
****
Generated from CSD

@<TRIPOS>ATOM
      1 O1         6.3879   10.8335    7.5805 O.2       1 RES1    0.0000
      2 O2         9.2627   10.1814   10.4181 O.3       1 RES1    0.0000
      3 N1         6.0288    8.5853    7.6711 N.am      1 RES1    0.0000
      4 N2         8.3589   10.4988    9.4141 N.2       1 RES1    0.0000
      5 C1         5.0808    8.3642    6.6484 C.ar      1 RES1    0.0000
      6 C2         4.7124    9.3086    5.7096 C.ar      1 RES1    0.0000
      7 C3         3.7838    8.9740    4.7369 C.ar      1 RES1    0.0000
      8 C4         3.2171    7.7329    4.7008 C.ar      1 RES1    0.0000
      9 C5         3.6004    6.7878    5.6239 C.ar      1 RES1    0.0000
     10 C6         4.5298    7.0919    6.5855 C.ar      1 RES1    0.0000
     11 C7         6.6117    9.7258    8.0571 C.2       1 RES1    0.0000
     12 C8         7.5997    9.5326    9.1424 C.2       1 RES1    0.0000
     13 H1         6.3067    7.8282    8.0589 H         1 RES1    0.0000
     14 H2         5.1510   10.1290    5.7154 H         1 RES1    0.0000
     15 H3         3.5907    9.6157    4.0948 H         1 RES1    0.0000
     16 H4         2.5683    7.4799    4.0878 H         1 RES1    0.0000
     17 H5         3.1572    5.9307    5.6006 H         1 RES1    0.0000
     18 H6         4.8758    6.4166    7.2724 H         1 RES1    0.0000
     19 H7         7.6584    8.6981    9.6106 H         1 RES1    0.0000
     20 H8         9.8096   10.9081   10.4324 H         1 RES1    0.0000
@<TRIPOS>BOND
     1    1   11 2
     2    2    4 1
     3    3    5 1
     4    4   12 2
     5    5    6 ar
     6    6    7 ar
     7    7    8 ar
     8    8    9 ar
     9    9   10 ar
    10   10    5 ar
    11   11    3 1
    12   12   11 1
    13   13    3 1
    14   14    6 1
    15   15    7 1
    16   16    8 1
    17   17    9 1
    18   18   10 1
    19   19   12 1
    20   20    2 1
@<TRIPOS>SUBSTRUCTURE
     1 RES1 1

@<TRIPOS>CRYSIN
   9.6551    9.1665   17.6730  90.0000  90.0000  90.0000  61 1

