# MOL2 file generated by ConQuest
# Please check atom types

@<TRIPOS>MOLECULE
ISOBIC
    47    50     1
SMALL
NO_CHARGES
****
Generated from CSD

@<TRIPOS>ATOM
      1 C1        19.6342    0.7641    8.0648 C.3       1 RES1    0.0000
      2 H1        20.0047   -0.0873    8.3762 H         1 RES1    0.0000
      3 C2        19.8654    1.8173    9.1280 C.3       1 RES1    0.0000
      4 H2        19.4647    2.6542    8.8465 H         1 RES1    0.0000
      5 H3        19.4409    1.5420    9.9552 H         1 RES1    0.0000
      6 C3        21.9718    2.3656    8.1200 C.3       1 RES1    0.0000
      7 H4        22.9209    2.4726    8.2928 H         1 RES1    0.0000
      8 H5        21.6287    3.2126    7.7925 H         1 RES1    0.0000
      9 C4        21.7661    1.2988    7.0704 C.3       1 RES1    0.0000
     10 H6        22.1209    0.4481    7.4056 H         1 RES1    0.0000
     11 C5        18.1602    0.5908    7.8254 C.ar      1 RES1    0.0000
     12 C6        17.4038    1.5640    7.2101 C.ar      1 RES1    0.0000
     13 H7        17.8183    2.3302    6.8874 H         1 RES1    0.0000
     14 C7        16.0399    1.4174    7.0659 C.ar      1 RES1    0.0000
     15 H8        15.5415    2.0912    6.6605 H         1 RES1    0.0000
     16 C8        15.4211    0.2969    7.5122 C.ar      1 RES1    0.0000
     17 H9        14.5040    0.1930    7.3960 H         1 RES1    0.0000
     18 C9        16.1471   -0.6774    8.1329 C.ar      1 RES1    0.0000
     19 H10       15.7233   -1.4408    8.4514 H         1 RES1    0.0000
     20 C10       17.5138   -0.5306    8.2885 C.ar      1 RES1    0.0000
     21 H11       18.0013   -1.1996    8.7112 H         1 RES1    0.0000
     22 C11       21.8118    2.2626   10.5953 C.ar      1 RES1    0.0000
     23 C12       21.0304    2.2642   11.7282 C.ar      1 RES1    0.0000
     24 H12       20.1095    2.1578   11.6463 H         1 RES1    0.0000
     25 C13       21.5801    2.4198   12.9810 C.ar      1 RES1    0.0000
     26 H13       21.0237    2.4267   13.7271 H         1 RES1    0.0000
     27 C14       22.9219    2.5639   13.1474 C.ar      1 RES1    0.0000
     28 H14       23.2911    2.6358   13.9977 H         1 RES1    0.0000
     29 C15       23.7111    2.6023   12.0387 C.ar      1 RES1    0.0000
     30 H15       24.6298    2.7162   12.1344 H         1 RES1    0.0000
     31 C16       23.1739    2.4738   10.7841 C.ar      1 RES1    0.0000
     32 H16       23.7316    2.5301   10.0427 H         1 RES1    0.0000
     33 C17       22.4901    1.6667    5.8017 C.ar      1 RES1    0.0000
     34 C18       23.7105    1.0899    5.5029 C.ar      1 RES1    0.0000
     35 H17       24.0646    0.4412    6.0672 H         1 RES1    0.0000
     36 C19       24.4123    1.4723    4.3684 C.ar      1 RES1    0.0000
     37 H18       25.2321    1.0801    4.1806 H         1 RES1    0.0000
     38 C20       23.9145    2.4095    3.5349 C.ar      1 RES1    0.0000
     39 H19       24.3883    2.6565    2.7738 H         1 RES1    0.0000
     40 C21       22.7156    2.9934    3.8134 C.ar      1 RES1    0.0000
     41 H20       22.3730    3.6423    3.2400 H         1 RES1    0.0000
     42 C22       22.0002    2.6285    4.9464 C.ar      1 RES1    0.0000
     43 H21       21.1842    3.0357    5.1294 H         1 RES1    0.0000
     44 N1        20.3206    1.1561    6.8314 N.3       1 RES1    0.0000
     45 N2        21.2906    2.0112    9.3553 N.pl3     1 RES1    0.0000
     46 O1        20.1961    0.0106    5.9518 O.3       1 RES1    0.0000
     47 H22       19.8044    0.3240    5.2674 H         1 RES1    0.0000
@<TRIPOS>BOND
     1    1    2 1
     2    3    1 1
     3    4    3 1
     4    5    3 1
     5    6    7 1
     6    8    6 1
     7    9    6 1
     8   10    9 1
     9   11    1 1
    10   12   11 ar
    11   13   12 1
    12   14   12 ar
    13   15   14 1
    14   16   14 ar
    15   17   16 1
    16   18   16 ar
    17   19   18 1
    18   20   11 ar
    19   21   20 1
    20   22   23 ar
    21   23   24 1
    22   25   23 ar
    23   26   25 1
    24   27   25 ar
    25   28   27 1
    26   29   27 ar
    27   30   29 1
    28   31   22 ar
    29   32   31 1
    30   33    9 1
    31   34   33 ar
    32   35   34 1
    33   36   34 ar
    34   37   36 1
    35   38   36 ar
    36   39   38 1
    37   40   38 ar
    38   41   40 1
    39   42   33 ar
    40   43   42 1
    41   44    1 1
    42   45    3 1
    43   46   44 1
    44   47   46 1
    45    6   45 1
    46    9   44 1
    47   18   20 ar
    48   22   45 1
    49   29   31 ar
    50   40   42 ar
@<TRIPOS>SUBSTRUCTURE
     1 RES1 1

@<TRIPOS>CRYSIN
  26.5350   26.5350   13.6710  90.0000  90.0000 120.0000 233 1

