# MOL2 file generated by ConQuest
# Please check atom types

@<TRIPOS>MOLECULE
ISOBOI
    47    50     1
SMALL
NO_CHARGES
****
Generated from CSD

@<TRIPOS>ATOM
      1 C1         2.4723    7.2830   16.3632 C.3       1 RES1    0.0000
      2 H1         3.3619    7.2575   16.8202 H         1 RES1    0.0000
      3 C2         1.8246    8.6441   16.6110 C.3       1 RES1    0.0000
      4 H2         1.7537    8.7894   17.5885 H         1 RES1    0.0000
      5 H3         0.9058    8.6298   16.2430 H         1 RES1    0.0000
      6 C3         2.5855    9.8227   15.9928 C.3       1 RES1    0.0000
      7 H4         1.9590   10.6020   15.9967 H         1 RES1    0.0000
      8 C4         2.8710    9.4916   14.5182 C.3       1 RES1    0.0000
      9 H5         2.0194    9.4948   14.0129 H         1 RES1    0.0000
     10 H6         3.4540   10.1944   14.1350 H         1 RES1    0.0000
     11 C5         3.5485    8.1292   14.3494 C.3       1 RES1    0.0000
     12 H7         4.4157    8.1296   14.8462 H         1 RES1    0.0000
     13 C6         1.6175    6.1447   16.8848 C.ar      1 RES1    0.0000
     14 C7         0.3341    5.9421   16.3868 C.ar      1 RES1    0.0000
     15 H8        -0.0137    6.5393   15.7347 H         1 RES1    0.0000
     16 C8        -0.4436    4.8858   16.8243 C.ar      1 RES1    0.0000
     17 H9        -1.3164    4.7595   16.4715 H         1 RES1    0.0000
     18 C9         0.0504    4.0137   17.7745 C.ar      1 RES1    0.0000
     19 H10       -0.4865    3.2946   18.0850 H         1 RES1    0.0000
     20 C10        1.3245    4.1905   18.2707 C.ar      1 RES1    0.0000
     21 H11        1.6697    3.5839   18.9144 H         1 RES1    0.0000
     22 C11        2.1027    5.2501   17.8340 C.ar      1 RES1    0.0000
     23 H12        2.9774    5.3680   18.1854 H         1 RES1    0.0000
     24 C12        3.8415   10.2661   16.7288 C.ar      1 RES1    0.0000
     25 C13        4.2820    9.7453   17.9402 C.ar      1 RES1    0.0000
     26 H13        3.8117    9.0288   18.3509 H         1 RES1    0.0000
     27 C14        5.4111   10.2752   18.5471 C.ar      1 RES1    0.0000
     28 H14        5.7197    9.9280   19.3753 H         1 RES1    0.0000
     29 C15        6.0793   11.3107   17.9352 C.ar      1 RES1    0.0000
     30 H15        6.8557   11.6907   18.3273 H         1 RES1    0.0000
     31 C16        5.5859   11.7828   16.7274 C.ar      1 RES1    0.0000
     32 H16        6.0463   12.4944   16.2981 H         1 RES1    0.0000
     33 C17        3.8129    7.8358   12.8860 C.ar      1 RES1    0.0000
     34 C18        5.0845    7.9357   12.3628 C.ar      1 RES1    0.0000
     35 H17        5.8124    8.1439   12.9373 H         1 RES1    0.0000
     36 C19        5.3184    7.7369   11.0076 C.ar      1 RES1    0.0000
     37 H18        6.1999    7.8147   10.6619 H         1 RES1    0.0000
     38 C20        4.2770    7.4292   10.1678 C.ar      1 RES1    0.0000
     39 H19        4.4319    7.3117    9.2375 H         1 RES1    0.0000
     40 C21        3.0035    7.2912   10.6821 C.ar      1 RES1    0.0000
     41 H20        2.2850    7.0523   10.1083 H         1 RES1    0.0000
     42 C22        2.7715    7.4993   12.0279 C.ar      1 RES1    0.0000
     43 H21        1.8900    7.4114   12.3719 H         1 RES1    0.0000
     44 N1         2.6717    7.0992   14.9130 N.3       1 RES1    0.0000
     45 N2         4.4956   11.2840   16.1421 N.ar      1 RES1    0.0000
     46 O1         3.4257    5.8666   14.7918 O.3       1 RES1    0.0000
     47 H22        2.8225    5.3267   14.5310 H         1 RES1    0.0000
@<TRIPOS>BOND
     1    1    2 1
     2    3    1 1
     3    4    3 1
     4    5    3 1
     5    6    3 1
     6    7    6 1
     7    8    6 1
     8    9    8 1
     9   10    8 1
    10   11    8 1
    11   12   11 1
    12   13    1 1
    13   14   13 ar
    14   15   14 1
    15   16   14 ar
    16   17   16 1
    17   18   16 ar
    18   19   18 1
    19   20   18 ar
    20   21   20 1
    21   22   13 ar
    22   23   22 1
    23   24    6 1
    24   25   24 ar
    25   26   25 1
    26   27   25 ar
    27   28   27 1
    28   29   27 ar
    29   30   29 1
    30   31   29 ar
    31   32   31 1
    32   33   11 1
    33   34   33 ar
    34   35   34 1
    35   36   34 ar
    36   37   36 1
    37   38   36 ar
    38   39   38 1
    39   40   38 ar
    40   41   40 1
    41   42   33 ar
    42   43   42 1
    43   44    1 1
    44   45   24 ar
    45   46   44 1
    46   47   46 1
    47   11   44 1
    48   20   22 ar
    49   31   45 ar
    50   40   42 ar
@<TRIPOS>SUBSTRUCTURE
     1 RES1 1

@<TRIPOS>CRYSIN
   6.2211   14.2500   19.7004  90.0000  90.0000  90.0000  19 1

