# MOL2 file generated by ConQuest
# Please check atom types

@<TRIPOS>MOLECULE
ISOGOM
    42    43     1
SMALL
NO_CHARGES
****
Generated from CSD

@<TRIPOS>ATOM
      1 O1         6.2250    0.6623   11.2274 O.3       1 RES1    0.0000
      2 O2         2.6189    4.4514   13.7273 O.2       1 RES1    0.0000
      3 O3         1.9886    5.0181   15.6977 O.2       1 RES1    0.0000
      4 O4        -2.9973    2.3223   16.3807 O.2       1 RES1    0.0000
      5 O5        -1.4900    2.1888   18.0121 O.3       1 RES1    0.0000
      6 N1         2.0090    4.2147   14.7633 N.pl3     1 RES1    0.0000
      7 N2        -1.4297   -0.1889   14.8841 N.3       1 RES1    0.0000
      8 C1         1.2567    2.9878   14.8754 C.ar      1 RES1    0.0000
      9 C2         0.2084    2.9857   15.7813 C.ar      1 RES1    0.0000
     10 H1         0.1193    3.7012   16.3685 H         1 RES1    0.0000
     11 C3        -0.7072    1.9543   15.8372 C.ar      1 RES1    0.0000
     12 C4        -0.5724    0.8566   14.9356 C.ar      1 RES1    0.0000
     13 C5         0.5550    0.8718   14.0860 C.ar      1 RES1    0.0000
     14 H2         0.6801    0.1422   13.5228 H         1 RES1    0.0000
     15 C6         1.4845    1.8880   14.0297 C.ar      1 RES1    0.0000
     16 C7         2.7198    1.6568   13.2347 C.ar      1 RES1    0.0000
     17 C8         2.6537    1.0966   11.9624 C.ar      1 RES1    0.0000
     18 H3         1.8216    0.9532   11.5724 H         1 RES1    0.0000
     19 C9         3.7990    0.7480   11.2629 C.ar      1 RES1    0.0000
     20 H4         3.7283    0.3757   10.4136 H         1 RES1    0.0000
     21 C10        5.0370    0.9522   11.8209 C.ar      1 RES1    0.0000
     22 C11        5.1231    1.5189   13.0902 C.ar      1 RES1    0.0000
     23 H5         5.9574    1.6622   13.4750 H         1 RES1    0.0000
     24 C12        3.9855    1.8674   13.7808 C.ar      1 RES1    0.0000
     25 H6         4.0619    2.2496   14.6255 H         1 RES1    0.0000
     26 C13        6.2117   -0.0195    9.9923 C.3       1 RES1    0.0000
     27 H7         7.1129   -0.1520    9.6894 H         1 RES1    0.0000
     28 H8         5.7302    0.5005    9.3454 H         1 RES1    0.0000
     29 H9         5.7820   -0.8718   10.1026 H         1 RES1    0.0000
     30 C14       -1.3916   -1.1172   13.7713 C.3       1 RES1    0.0000
     31 H10       -2.0649   -1.7903   13.8931 H         1 RES1    0.0000
     32 H11       -0.5273   -1.5330   13.7301 H         1 RES1    0.0000
     33 H12       -1.5571   -0.6416   12.9533 H         1 RES1    0.0000
     34 C15       -2.2990   -0.5798   15.9686 C.3       1 RES1    0.0000
     35 H13       -2.8173   -1.3430   15.7019 H         1 RES1    0.0000
     36 H14       -2.8872    0.1466   16.1842 H         1 RES1    0.0000
     37 H15       -1.7705   -0.8045   16.7372 H         1 RES1    0.0000
     38 C16       -1.8760    2.1627   16.7454 C.2       1 RES1    0.0000
     39 C17       -2.5360    2.4124   18.9954 C.3       1 RES1    0.0000
     40 H16       -2.1516    2.4222   19.8743 H         1 RES1    0.0000
     41 H17       -3.1854    1.7089   18.9361 H         1 RES1    0.0000
     42 H18       -2.9617    3.2560   18.8226 H         1 RES1    0.0000
@<TRIPOS>BOND
     1    1   21 1
     2    2    6 2
     3    3    6 2
     4    4   38 2
     5    5   38 1
     6    6    8 1
     7    7   12 1
     8    8    9 ar
     9    9   10 1
    10   11    9 ar
    11   12   11 ar
    12   13   12 ar
    13   14   13 1
    14   15    8 ar
    15   16   15 1
    16   17   16 ar
    17   18   17 1
    18   19   17 ar
    19   20   19 1
    20   21   19 ar
    21   22   21 ar
    22   23   22 1
    23   24   16 ar
    24   25   24 1
    25   26    1 1
    26   27   26 1
    27   28   26 1
    28   29   26 1
    29   30    7 1
    30   31   30 1
    31   32   30 1
    32   33   30 1
    33   34    7 1
    34   35   34 1
    35   36   34 1
    36   37   34 1
    37   38   11 1
    38   39    5 1
    39   40   39 1
    40   41   39 1
    41   42   39 1
    42   13   15 ar
    43   22   24 ar
@<TRIPOS>SUBSTRUCTURE
     1 RES1 1

@<TRIPOS>CRYSIN
   9.1520   10.8570   16.9778  90.0000 104.2000  90.0000  14 1

