# MOL2 file generated by ConQuest
# Please check atom types

@<TRIPOS>MOLECULE
ISONEL
    52    55     1
SMALL
NO_CHARGES
****
Generated from CSD

@<TRIPOS>ATOM
      1 C1         5.0509    5.6766    3.2506 C.3       1 RES1    0.0000
      2 H1         5.6102    5.6299    2.4481 H         1 RES1    0.0000
      3 C2         3.5797    5.5131    2.8510 C.3       1 RES1    0.0000
      4 H2         3.0475    5.6088    3.6690 H         1 RES1    0.0000
      5 C3         3.2738    4.1500    2.2799 C.ar      1 RES1    0.0000
      6 C4         2.3463    3.3370    2.8852 C.ar      1 RES1    0.0000
      7 H3         1.9092    3.6477    3.6455 H         1 RES1    0.0000
      8 C5         2.0371    2.0837    2.4139 C.ar      1 RES1    0.0000
      9 H4         1.4024    1.5628    2.8522 H         1 RES1    0.0000
     10 C6         2.6645    1.6072    1.3021 C.ar      1 RES1    0.0000
     11 H5         2.4553    0.7615    0.9750 H         1 RES1    0.0000
     12 C7         3.6109    2.3804    0.6662 C.ar      1 RES1    0.0000
     13 H6         4.0430    2.0616   -0.0919 H         1 RES1    0.0000
     14 C8         3.9135    3.6384    1.1653 C.ar      1 RES1    0.0000
     15 H7         4.5630    4.1511    0.7398 H         1 RES1    0.0000
     16 C9         3.1795    6.6916    1.9023 C.3       1 RES1    0.0000
     17 C10        3.4862    8.0652    2.5769 C.3       1 RES1    0.0000
     18 C11        3.1869    9.2274    1.6421 C.3       1 RES1    0.0000
     19 H8         2.2700    9.1830    1.3598 H         1 RES1    0.0000
     20 H9         3.7601    9.1760    0.8745 H         1 RES1    0.0000
     21 H10        3.3410   10.0555    2.1018 H         1 RES1    0.0000
     22 C12        4.9296    8.1364    3.0485 C.3       1 RES1    0.0000
     23 H11        5.5151    8.1318    2.2749 H         1 RES1    0.0000
     24 H12        5.0665    8.9739    3.5193 H         1 RES1    0.0000
     25 C13        5.3093    6.9871    3.9632 C.3       1 RES1    0.0000
     26 H13        6.2474    7.0525    4.2014 H         1 RES1    0.0000
     27 H14        4.7844    7.0268    4.7787 H         1 RES1    0.0000
     28 C14        3.8675    6.6273    0.5463 C.2       1 RES1    0.0000
     29 C15        2.9909    6.3669   -1.7887 C.ar      1 RES1    0.0000
     30 C16        3.8651    7.1495   -2.4909 C.ar      1 RES1    0.0000
     31 H15        4.3899    7.7778   -2.0504 H         1 RES1    0.0000
     32 C17        3.9619    6.9964   -3.8584 C.ar      1 RES1    0.0000
     33 H16        4.5589    7.5244   -4.3382 H         1 RES1    0.0000
     34 C18        3.2033    6.0959   -4.5059 C.ar      1 RES1    0.0000
     35 H17        3.2902    5.9908   -5.4265 H         1 RES1    0.0000
     36 C19        2.3086    5.3367   -3.8165 C.ar      1 RES1    0.0000
     37 H18        1.7706    4.7281   -4.2698 H         1 RES1    0.0000
     38 C20        2.2003    5.4687   -2.4392 C.ar      1 RES1    0.0000
     39 H19        1.5918    4.9489   -1.9649 H         1 RES1    0.0000
     40 C21        1.7345    6.5444    1.4663 C.2       1 RES1    0.0000
     41 C22        0.5142    6.4580    2.3258 C.3       1 RES1    0.0000
     42 H20       -0.2632    6.3715    1.7704 H         1 RES1    0.0000
     43 H21        0.4404    7.2534    2.8587 H         1 RES1    0.0000
     44 H22        0.5831    5.6929    2.9014 H         1 RES1    0.0000
     45 N1         5.4339    4.5529    4.1924 N.pl3     1 RES1    0.0000
     46 N2         2.8834    6.5198   -0.3806 N.am      1 RES1    0.0000
     47 N3         1.6008    6.4370    0.2010 N.2       1 RES1    0.0000
     48 O1         6.4615    3.9584    3.9818 O.2       1 RES1    0.0000
     49 O2         4.7221    4.3544    5.1484 O.2       1 RES1    0.0000
     50 O3         2.5948    8.0998    3.7118 O.3       1 RES1    0.0000
     51 H23        2.8104    8.8022    4.1608 H         1 RES1    0.0000
     52 O4         5.0665    6.6973    0.3087 O.2       1 RES1    0.0000
@<TRIPOS>BOND
     1    1    2 1
     2    3    1 1
     3    4    3 1
     4    5    3 1
     5    6    5 ar
     6    7    6 1
     7    8    6 ar
     8    9    8 1
     9   10    8 ar
    10   11   10 1
    11   12   10 ar
    12   13   12 1
    13   14    5 ar
    14   15   14 1
    15   16    3 1
    16   17   16 1
    17   18   17 1
    18   19   18 1
    19   20   18 1
    20   21   18 1
    21   22   17 1
    22   23   22 1
    23   24   22 1
    24   25    1 1
    25   26   25 1
    26   27   25 1
    27   28   16 1
    28   29   30 ar
    29   30   31 1
    30   32   30 ar
    31   33   32 1
    32   34   32 ar
    33   35   34 1
    34   36   34 ar
    35   37   36 1
    36   38   29 ar
    37   39   38 1
    38   40   16 1
    39   41   40 1
    40   42   41 1
    41   43   41 1
    42   44   41 1
    43   45    1 1
    44   46   28 1
    45   47   40 2
    46   48   45 2
    47   49   45 2
    48   50   17 1
    49   51   50 1
    50   52   28 2
    51   12   14 ar
    52   22   25 1
    53   29   46 1
    54   36   38 ar
    55   46   47 1
@<TRIPOS>SUBSTRUCTURE
     1 RES1 1

@<TRIPOS>CRYSIN
   8.2009   11.6802   21.3811  90.0000  90.0000  90.0000  19 1

