# MOL2 file generated by ConQuest
# Please check atom types

@<TRIPOS>MOLECULE
ISONUZ
    48    50     2
SMALL
NO_CHARGES
****
Generated from CSD

@<TRIPOS>ATOM
      1 N1         1.1206    0.2318    9.9995 N.am      1 RES1    0.0000
      2 N2        -0.3900    1.9830    9.6400 N.am      1 RES1    0.0000
      3 N3         0.2055    3.9621    8.6452 N.2       1 RES1    0.0000
      4 O1        -1.0072    0.1166   10.7984 O.2       1 RES1    0.0000
      5 O2         1.2612    4.7478    8.0421 O.3       1 RES1    0.0000
      6 C1         1.3968   -1.1241   10.4913 C.3       1 RES1    0.0000
      7 H1         2.3256   -1.3614   10.2899 H         1 RES1    0.0000
      8 H2         0.7937   -1.7600   10.0529 H         1 RES1    0.0000
      9 H3         1.2541   -1.1548   11.4605 H         1 RES1    0.0000
     10 C2        -0.1480    0.7371   10.1920 C.2       1 RES1    0.0000
     11 C3        -1.7445    2.5312    9.7992 C.3       1 RES1    0.0000
     12 H4        -2.3152    1.8684   10.2432 H         1 RES1    0.0000
     13 H5        -2.1158    2.7452    8.9178 H         1 RES1    0.0000
     14 H6        -1.7056    3.3453   10.3444 H         1 RES1    0.0000
     15 C4         0.5926    2.7789    9.0258 C.2       1 RES1    0.0000
     16 C5         1.9104    2.1965    8.8956 C.2       1 RES1    0.0000
     17 C6         2.1097    0.9509    9.3696 C.2       1 RES1    0.0000
     18 H7         2.9664    0.5545    9.2650 H         1 RES1    0.0000
     19 C7         2.2000    3.9723    7.2820 C.3       1 RES1    0.0000
     20 H8         2.8413    4.5755    6.8303 H         1 RES1    0.0000
     21 H9         1.7191    3.4562    6.5866 H         1 RES1    0.0000
     22 C8         2.9529    3.0183    8.1968 C.3       1 RES1    0.0000
     23 H10        3.5564    2.4369    7.6693 H         1 RES1    0.0000
     24 H11        3.4947    3.5233    8.8533 H         1 RES1    0.0000
     25 N4        -1.6981    0.5164    6.6845 N.am      2 RES2    0.0000
     26 N5         0.3799   -0.5669    6.7735 N.am      2 RES2    0.0000
     27 N6        -3.5378   -0.2375    7.8240 N.2       2 RES2    0.0000
     28 O3         0.1468    1.4032    5.6725 O.2       2 RES2    0.0000
     29 O4        -4.1478   -1.3055    8.5807 O.3       2 RES2    0.0000
     30 C9        -2.5354    1.5846    6.1236 C.3       2 RES2    0.0000
     31 H12       -1.9824    2.1777    5.5739 H         2 RES2    0.0000
     32 H13       -2.9412    2.0983    6.8525 H         2 RES2    0.0000
     33 H14       -3.2414    1.1894    5.5706 H         2 RES2    0.0000
     34 C10       -0.3578    0.5086    6.3340 C.2       2 RES2    0.0000
     35 C11        1.7991   -0.6310    6.3929 C.3       2 RES2    0.0000
     36 H15        2.0409    0.1794    5.8955 H         2 RES2    0.0000
     37 H16        1.9505   -1.4175    5.8288 H         2 RES2    0.0000
     38 H17        2.3506   -0.6961    7.1997 H         2 RES2    0.0000
     39 C12       -2.3023   -0.4517    7.5002 C.2       2 RES2    0.0000
     40 C13       -1.4759   -1.5945    7.8585 C.2       2 RES2    0.0000
     41 C14       -0.1937   -1.6050    7.4857 C.2       2 RES2    0.0000
     42 H18        0.3444   -2.3528    7.7194 H         2 RES2    0.0000
     43 C15       -3.2534   -2.0186    9.4575 C.3       2 RES2    0.0000
     44 H19       -3.7568   -2.7152    9.9483 H         2 RES2    0.0000
     45 H20       -2.8700   -1.3917   10.1208 H         2 RES2    0.0000
     46 C16       -2.1402   -2.6630    8.6675 C.3       2 RES2    0.0000
     47 H21       -1.4855   -3.0826    9.2795 H         2 RES2    0.0000
     48 H22       -2.5058   -3.3636    8.0710 H         2 RES2    0.0000
@<TRIPOS>BOND
     1    1    6 1
     2    2   10 1
     3    3    5 1
     4    4   10 2
     5    5   19 1
     6    6    7 1
     7    8    6 1
     8    9    6 1
     9   10    1 1
    10   11    2 1
    11   12   11 1
    12   13   11 1
    13   14   11 1
    14   15    2 1
    15   16   15 1
    16   17    1 1
    17   18   17 1
    18   19   20 1
    19   21   19 1
    20   22   16 1
    21   23   22 1
    22   24   22 1
    23   25   30 1
    24   26   34 1
    25   27   29 1
    26   28   34 2
    27   29   43 1
    28   30   31 1
    29   32   30 1
    30   33   30 1
    31   34   25 1
    32   35   26 1
    33   36   35 1
    34   37   35 1
    35   38   35 1
    36   39   25 1
    37   40   39 1
    38   41   26 1
    39   42   41 1
    40   43   44 1
    41   45   43 1
    42   46   40 1
    43   47   46 1
    44   48   46 1
    45    3   15 2
    46   16   17 2
    47   19   22 1
    48   27   39 2
    49   40   41 2
    50   43   46 1
@<TRIPOS>SUBSTRUCTURE
     1 RES1 1
     2 RES2 25

@<TRIPOS>CRYSIN
   8.5775    8.6848   11.6419 101.0860 101.6000  95.9600   2 1

