# MOL2 file generated by ConQuest
# Please check atom types

@<TRIPOS>MOLECULE
ISOPAH
    29    25     2
SMALL
NO_CHARGES
****
Generated from CSD

@<TRIPOS>ATOM
      1 N1        -0.7001   12.1325    2.7077 N.am      1 RES1    0.0000
      2 N2         0.9877   12.9190    4.1873 N.2       1 RES1    0.0000
      3 N3         2.0482   14.8859    3.7580 N.pl3     1 RES1    0.0000
      4 O1        -0.1053   10.9512    4.5558 O.2       1 RES1    0.0000
      5 O2         2.1625   16.0933    3.0773 O.3       1 RES1    0.0000
      6 C1        -1.6929   11.1048    2.3798 C.3       1 RES1    0.0000
      7 H1        -2.1524   11.3477    1.5488 H         1 RES1    0.0000
      8 H2        -2.3463   11.0376    3.1073 H         1 RES1    0.0000
      9 H3        -1.2437   10.2417    2.2646 H         1 RES1    0.0000
     10 C2         0.0728   11.9621    3.8700 C.2       1 RES1    0.0000
     11 C3         2.9110   14.8267    4.9143 C.3       1 RES1    0.0000
     12 H4         2.8102   13.9563    5.3527 H         1 RES1    0.0000
     13 H5         2.6657   15.5383    5.5415 H         1 RES1    0.0000
     14 H6         3.8422   14.9446    4.6337 H         1 RES1    0.0000
     15 C4         1.1229   13.9868    3.4092 C.2       1 RES1    0.0000
     16 C5         0.3550   14.1970    2.2241 C.2       1 RES1    0.0000
     17 C6        -0.5312   13.2324    1.9254 C.2       1 RES1    0.0000
     18 H7        -1.0587   13.3211    1.1403 H         1 RES1    0.0000
     19 C7         1.8861   16.0125    1.6513 C.3       1 RES1    0.0000
     20 H8         2.5765   15.4537    1.2150 H         1 RES1    0.0000
     21 H9         1.9350   16.9196    1.2576 H         1 RES1    0.0000
     22 C8         1.1899   16.4918    2.2902 Du        2 SUP2    0.0000
     23 H10        1.5350   17.2231    1.7195 Du        2 SUP2    0.0000
     24 H11        0.4725   16.8749    2.8566 Du        2 SUP2    0.0000
     25 C9         0.5684   15.4441    1.3888 C.3       1 RES1    0.0000
     26 H12        0.4905   15.2166    0.4277 H         1 RES1    0.0000
     27 H13       -0.1300   16.1120    1.6054 Du        2 SUP2    0.0000
     28 H14        1.1787   15.2481    0.6347 Du        2 SUP2    0.0000
     29 H15       -0.2941   15.7621    1.0198 H         1 RES1    0.0000
@<TRIPOS>BOND
     1    1    6 1
     2    2   10 1
     3    3    5 1
     4    4   10 2
     5    5   19 1
     6    6    7 1
     7    8    6 1
     8    9    6 1
     9   10    1 1
    10   11    3 1
    11   12   11 1
    12   13   11 1
    13   14   11 1
    14   15    2 2
    15   16   15 1
    16   17    1 1
    17   18   17 1
    18   19   20 1
    19   21   19 1
    20   25   16 1
    21   26   25 1
    22   29   25 1
    23    3   15 1
    24   16   17 2
    25   19   25 1
@<TRIPOS>SUBSTRUCTURE
     1 RES1 1
     2 SUP2 22

@<TRIPOS>CRYSIN
   5.0015   16.5830   10.6900  90.0000  93.7600  90.0000 231 1

