# MOL2 file generated by ConQuest
# Please check atom types

@<TRIPOS>MOLECULE
ISORAK
    64    67     1
SMALL
NO_CHARGES
****
Generated from CSD

@<TRIPOS>ATOM
      1 C1         4.4790    3.7192    3.4039 C.ar      1 RES1    0.0000
      2 C2         5.3131    4.1067    2.3252 C.ar      1 RES1    0.0000
      3 H1         4.9636    4.6512    1.6303 H         1 RES1    0.0000
      4 C3         6.6244    3.6992    2.2802 C.ar      1 RES1    0.0000
      5 H2         7.1790    3.9718    1.5580 H         1 RES1    0.0000
      6 C4         7.1523    2.8803    3.2975 C.ar      1 RES1    0.0000
      7 H3         8.0560    2.5918    3.2504 H         1 RES1    0.0000
      8 C5         6.3697    2.4968    4.3565 C.ar      1 RES1    0.0000
      9 H4         6.7359    1.9426    5.0353 H         1 RES1    0.0000
     10 C6         5.0167    2.9203    4.4474 C.ar      1 RES1    0.0000
     11 C7         4.1989    2.6031    5.5762 C.ar      1 RES1    0.0000
     12 C8         4.7693    1.7654    6.6882 C.3       1 RES1    0.0000
     13 H5         4.0944    1.6496    7.3882 H         1 RES1    0.0000
     14 H6         5.5563    2.2130    7.0631 H         1 RES1    0.0000
     15 H7         5.0288    0.8882    6.3361 H         1 RES1    0.0000
     16 C9         2.9192    3.1197    5.6069 C.ar      1 RES1    0.0000
     17 C10        1.9887    2.9285    6.7581 C.ar      1 RES1    0.0000
     18 C11        1.5954    4.0331    7.5166 C.ar      1 RES1    0.0000
     19 H8         1.9457    4.8921    7.3116 H         1 RES1    0.0000
     20 C12        0.6948    3.8895    8.5695 C.ar      1 RES1    0.0000
     21 H9         0.4359    4.6487    9.0778 H         1 RES1    0.0000
     22 C13        0.1749    2.6391    8.8769 C.ar      1 RES1    0.0000
     23 H10       -0.4470    2.5417    9.5879 H         1 RES1    0.0000
     24 C14        0.5708    1.5287    8.1357 C.ar      1 RES1    0.0000
     25 H11        0.2274    0.6696    8.3508 H         1 RES1    0.0000
     26 C15        1.4694    1.6738    7.0807 C.ar      1 RES1    0.0000
     27 H12        1.7307    0.9120    6.5760 H         1 RES1    0.0000
     28 C16        3.1160    4.1447    3.5263 C.ar      1 RES1    0.0000
     29 C17        2.3640    4.8602    2.4104 C.3       1 RES1    0.0000
     30 H13        1.4495    5.0882    2.7460 H         1 RES1    0.0000
     31 C18        2.2122    3.9523    1.1887 C.3       1 RES1    0.0000
     32 H14        1.6406    4.3911    0.5246 H         1 RES1    0.0000
     33 H15        1.8040    3.1038    1.4612 H         1 RES1    0.0000
     34 H16        3.0940    3.7803    0.7978 H         1 RES1    0.0000
     35 C19        1.6558    8.0271    1.7011 C.3       1 RES1    0.0000
     36 C20        0.4025    7.1983    1.4002 C.3       1 RES1    0.0000
     37 H17        0.6515    6.4058    0.8802 H         1 RES1    0.0000
     38 H18       -0.2316    7.7402    0.8860 H         1 RES1    0.0000
     39 H19       -0.0140    6.9188    2.2416 H         1 RES1    0.0000
     40 C21        2.3337    8.3729    0.3648 C.3       1 RES1    0.0000
     41 H20        2.9808    9.0958    0.5044 H         1 RES1    0.0000
     42 H21        1.6550    8.6617   -0.2804 H         1 RES1    0.0000
     43 H22        2.7969    7.5813    0.0188 H         1 RES1    0.0000
     44 C22        1.2052    9.3061    2.4294 C.3       1 RES1    0.0000
     45 H23        0.7158    9.8840    1.7921 H         1 RES1    0.0000
     46 H24        0.5790    9.0597    3.1550 H         1 RES1    0.0000
     47 C23        2.3647   10.0955    3.0231 C.3       1 RES1    0.0000
     48 H25        2.9525   10.4265    2.2994 H         1 RES1    0.0000
     49 H26        2.0188   10.8763    3.5236 H         1 RES1    0.0000
     50 C24        3.1522    9.1908    3.9560 C.3       1 RES1    0.0000
     51 H27        2.5732    8.9306    4.7159 H         1 RES1    0.0000
     52 H28        3.9200    9.6977    4.3214 H         1 RES1    0.0000
     53 C25        3.6755    7.9205    3.2730 C.3       1 RES1    0.0000
     54 C26        4.8324    8.2473    2.3133 C.3       1 RES1    0.0000
     55 H29        5.0068    7.4749    1.7358 H         1 RES1    0.0000
     56 H30        5.6379    8.4558    2.8313 H         1 RES1    0.0000
     57 H31        4.5905    9.0191    1.7603 H         1 RES1    0.0000
     58 C27        4.2247    7.0016    4.3614 C.3       1 RES1    0.0000
     59 H32        3.4833    6.6517    4.8980 H         1 RES1    0.0000
     60 H33        4.8354    7.5070    4.9371 H         1 RES1    0.0000
     61 H34        4.7075    6.2568    3.9470 H         1 RES1    0.0000
     62 N1         2.3860    3.8724    4.5877 N.ar      1 RES1    0.0000
     63 N2         2.4925    7.2417    2.6635 N.3       1 RES1    0.0000
     64 O1         2.9884    6.0740    1.9424 O.3       1 RES1    0.0000
@<TRIPOS>BOND
     1    1    2 ar
     2    2    3 1
     3    4    2 ar
     4    5    4 1
     5    6    4 ar
     6    7    6 1
     7    8    6 ar
     8    9    8 1
     9   10    1 ar
    10   11   10 ar
    11   12   11 1
    12   13   12 1
    13   14   12 1
    14   15   12 1
    15   16   11 ar
    16   17   16 1
    17   18   17 ar
    18   19   18 1
    19   20   18 ar
    20   21   20 1
    21   22   20 ar
    22   23   22 1
    23   24   22 ar
    24   25   24 1
    25   26   17 ar
    26   27   26 1
    27   28    1 ar
    28   29   28 1
    29   30   29 1
    30   31   29 1
    31   32   31 1
    32   33   31 1
    33   34   31 1
    34   35   36 1
    35   36   37 1
    36   38   36 1
    37   39   36 1
    38   40   35 1
    39   41   40 1
    40   42   40 1
    41   43   40 1
    42   44   35 1
    43   45   44 1
    44   46   44 1
    45   47   44 1
    46   48   47 1
    47   49   47 1
    48   50   47 1
    49   51   50 1
    50   52   50 1
    51   53   50 1
    52   54   53 1
    53   55   54 1
    54   56   54 1
    55   57   54 1
    56   58   53 1
    57   59   58 1
    58   60   58 1
    59   61   58 1
    60   62   16 ar
    61   63   35 1
    62   64   29 1
    63    8   10 ar
    64   24   26 ar
    65   28   62 ar
    66   53   63 1
    67   63   64 1
@<TRIPOS>SUBSTRUCTURE
     1 RES1 1

@<TRIPOS>CRYSIN
   7.9267    9.6626   14.4528  89.8410  89.9620  89.8000   2 1

