# MOL2 file generated by ConQuest
# Please check atom types

@<TRIPOS>MOLECULE
ISOREO
    98   104     2
SMALL
NO_CHARGES
****
Generated from CSD

@<TRIPOS>ATOM
      1 O1         2.4264    6.2576   30.2174 O.3       1 RES1    0.0000
      2 O2         2.6388    3.7099   27.9276 O.3       1 RES1    0.0000
      3 O3         1.1466    2.8725   26.4749 O.2       1 RES1    0.0000
      4 O4         6.0070    3.3001   21.6158 O.2       1 RES1    0.0000
      5 O5         7.5111    3.2497   23.1353 O.2       1 RES1    0.0000
      6 O6         1.2050    4.6218   17.6259 O.3       2 RES2    0.0000
      7 O7         1.0455    7.0915   19.9808 O.3       2 RES2    0.0000
      8 O8         2.5225    7.8772   21.4772 O.2       2 RES2    0.0000
      9 O9        -2.3917    7.3028   26.2713 O.2       2 RES2    0.0000
     10 O10       -3.8741    7.3205   24.7325 O.2       2 RES2    0.0000
     11 N1         6.3532    3.2986   22.7812 N.pl3     1 RES1    0.0000
     12 N2        -2.7165    7.3028   25.1080 N.pl3     2 RES2    0.0000
     13 C1         2.9728    6.5200   28.9085 C.3       1 RES1    0.0000
     14 H1         3.5528    5.7868   28.6475 H         1 RES1    0.0000
     15 H2         3.5076    7.3291   28.9379 H         1 RES1    0.0000
     16 C2         1.8953    6.6781   27.9028 C.3       1 RES1    0.0000
     17 H3         2.2013    7.0000   27.0307 H         1 RES1    0.0000
     18 C3         0.7011    5.7620   27.8426 C.3       1 RES1    0.0000
     19 H4         0.3661    5.6003   26.9362 H         1 RES1    0.0000
     20 C4         0.4981    4.6189   28.7791 C.2       1 RES1    0.0000
     21 C5         1.6338    3.6496   28.9918 C.3       1 RES1    0.0000
     22 H5         1.2551    2.7456   28.9904 H         1 RES1    0.0000
     23 C6         2.3923    3.8283   30.2968 C.ar      1 RES1    0.0000
     24 C7         2.7513    5.0642   30.8183 C.ar      1 RES1    0.0000
     25 C8         0.5523    7.1887   28.3098 C.3       1 RES1    0.0000
     26 H6         0.1085    7.8141   27.7166 H         1 RES1    0.0000
     27 H7         0.3948    7.3404   29.2564 H         1 RES1    0.0000
     28 C9        -0.6736    4.3970   29.3782 C.2       1 RES1    0.0000
     29 C10       -1.8487    5.3209   29.2232 C.3       1 RES1    0.0000
     30 H8        -1.6860    5.9272   28.4970 H         1 RES1    0.0000
     31 H9        -1.9722    5.8194   30.0333 H         1 RES1    0.0000
     32 H10       -2.6382    4.8069   29.0394 H         1 RES1    0.0000
     33 C11       -0.9513    3.2128   30.2604 C.3       1 RES1    0.0000
     34 H11       -0.1823    2.6378   30.2748 H         1 RES1    0.0000
     35 H12       -1.7071    2.7285   29.9178 H         1 RES1    0.0000
     36 H13       -1.1421    3.5149   31.1497 H         1 RES1    0.0000
     37 C12        2.6991    2.6931   31.0370 C.ar      1 RES1    0.0000
     38 H14        2.4710    1.8550   30.7052 H         1 RES1    0.0000
     39 C13        3.3418    2.7895   32.2667 C.ar      1 RES1    0.0000
     40 H15        3.5302    2.0216   32.7560 H         1 RES1    0.0000
     41 C14        3.6944    4.0226   32.7574 C.ar      1 RES1    0.0000
     42 H16        4.1358    4.0871   33.5749 H         1 RES1    0.0000
     43 C15        3.4000    5.1536   32.0512 C.ar      1 RES1    0.0000
     44 H17        3.6326    5.9868   32.3920 H         1 RES1    0.0000
     45 C16        2.2522    3.2823   26.7276 C.2       1 RES1    0.0000
     46 C17        3.3594    3.3398   25.7260 C.ar      1 RES1    0.0000
     47 C18        4.6846    3.5029   26.0956 C.ar      1 RES1    0.0000
     48 H18        4.9042    3.6262   26.9922 H         1 RES1    0.0000
     49 C19        5.6850    3.4816   25.1329 C.ar      1 RES1    0.0000
     50 H19        6.5812    3.5702   25.3684 H         1 RES1    0.0000
     51 C20        5.3011    3.3235   23.8100 C.ar      1 RES1    0.0000
     52 C21        3.9992    3.1816   23.4219 C.ar      1 RES1    0.0000
     53 H20        3.7803    3.0838   22.5232 H         1 RES1    0.0000
     54 C22        3.0158    3.1852   24.3885 C.ar      1 RES1    0.0000
     55 H21        2.1244    3.0845   24.1470 H         1 RES1    0.0000
     56 C23        0.6214    4.3374   18.9047 C.3       2 RES2    0.0000
     57 H22        0.0603    3.5489   18.8347 H         2 RES2    0.0000
     58 H23        0.0603    5.0813   19.1741 H         2 RES2    0.0000
     59 C24        1.6696    4.1063   19.9479 C.3       2 RES2    0.0000
     60 H24        1.3244    3.7829   20.8049 H         2 RES2    0.0000
     61 C25        2.8918    4.9728   20.0529 C.3       2 RES2    0.0000
     62 H25        3.2092    5.1061   20.9694 H         2 RES2    0.0000
     63 C26        3.1621    6.1229   19.1440 C.2       2 RES2    0.0000
     64 C27        2.0693    7.1575   18.9285 C.3       2 RES2    0.0000
     65 H26        2.4845    8.0438   18.9677 H         2 RES2    0.0000
     66 C28        1.3333    7.0539   17.6200 C.ar      2 RES2    0.0000
     67 C29        0.9338    5.8421   17.0534 C.ar      2 RES2    0.0000
     68 C30        3.0043    3.5518   19.5657 C.3       2 RES2    0.0000
     69 H27        3.1821    3.4100   18.6212 H         2 RES2    0.0000
     70 H28        3.4111    2.9008   20.1610 H         2 RES2    0.0000
     71 C31        4.3533    6.2924   18.5628 C.2       2 RES2    0.0000
     72 C32        5.4807    5.3209   18.6996 C.3       2 RES2    0.0000
     73 H29        5.5265    4.7714   17.9143 H         2 RES2    0.0000
     74 H30        5.3336    4.7664   19.4681 H         2 RES2    0.0000
     75 H31        6.3055    5.8010   18.8032 H         2 RES2    0.0000
     76 C33        4.6797    7.4737   17.6959 C.3       2 RES2    0.0000
     77 H32        5.0624    8.1700   18.2363 H         2 RES2    0.0000
     78 H33        3.8767    7.7956   17.2774 H         2 RES2    0.0000
     79 H34        5.3080    7.2106   17.0184 H         2 RES2    0.0000
     80 C34        1.0794    8.2168   16.9131 C.ar      2 RES2    0.0000
     81 H35        1.3500    9.0330   17.2669 H         2 RES2    0.0000
     82 C35        0.4309    8.1906   15.6903 C.ar      2 RES2    0.0000
     83 H36        0.2576    8.9840   15.2371 H         2 RES2    0.0000
     84 C36        0.0422    6.9816   15.1437 C.ar      2 RES2    0.0000
     85 H37       -0.3842    6.9575   14.3167 H         2 RES2    0.0000
     86 C37        0.2881    5.8201   15.8240 C.ar      2 RES2    0.0000
     87 H38        0.0196    5.0082   15.4576 H         2 RES2    0.0000
     88 C38        1.4223    7.4815   21.2067 C.2       2 RES2    0.0000
     89 C39        0.3048    7.3886   22.1866 C.ar      2 RES2    0.0000
     90 C40        0.6268    7.5496   23.5301 C.ar      2 RES2    0.0000
     91 H39        1.5112    7.6871   23.7796 H         2 RES2    0.0000
     92 C41       -0.3636    7.5049   24.4959 C.ar      2 RES2    0.0000
     93 H40       -0.1597    7.5992   25.3999 H         2 RES2    0.0000
     94 C42       -1.6595    7.3156   24.0767 C.ar      2 RES2    0.0000
     95 C43       -2.0194    7.1504   22.7633 C.ar      2 RES2    0.0000
     96 H41       -2.9079    7.0263   22.5197 H         2 RES2    0.0000
     97 C44       -1.0108    7.1745   21.8121 C.ar      2 RES2    0.0000
     98 H42       -1.2204    7.0461   20.9134 H         2 RES2    0.0000
@<TRIPOS>BOND
     1    1   13 1
     2    2   21 1
     3    3   45 2
     4    4   11 2
     5    5   11 2
     6    6   56 1
     7    7   64 1
     8    8   88 2
     9    9   12 2
    10   10   12 2
    11   11   51 1
    12   12   94 1
    13   13   14 1
    14   15   13 1
    15   16   13 1
    16   17   16 1
    17   18   16 1
    18   19   18 1
    19   20   18 1
    20   21   20 1
    21   22   21 1
    22   23   21 1
    23   24    1 1
    24   25   16 1
    25   26   25 1
    26   27   25 1
    27   28   20 2
    28   29   28 1
    29   30   29 1
    30   31   29 1
    31   32   29 1
    32   33   28 1
    33   34   33 1
    34   35   33 1
    35   36   33 1
    36   37   23 ar
    37   38   37 1
    38   39   37 ar
    39   40   39 1
    40   41   39 ar
    41   42   41 1
    42   43   24 ar
    43   44   43 1
    44   45    2 1
    45   46   45 1
    46   47   46 ar
    47   48   47 1
    48   49   47 ar
    49   50   49 1
    50   51   49 ar
    51   52   51 ar
    52   53   52 1
    53   54   46 ar
    54   55   54 1
    55   56   57 1
    56   58   56 1
    57   59   56 1
    58   60   59 1
    59   61   59 1
    60   62   61 1
    61   63   61 1
    62   64   63 1
    63   65   64 1
    64   66   64 1
    65   67    6 1
    66   68   59 1
    67   69   68 1
    68   70   68 1
    69   71   63 2
    70   72   71 1
    71   73   72 1
    72   74   72 1
    73   75   72 1
    74   76   71 1
    75   77   76 1
    76   78   76 1
    77   79   76 1
    78   80   66 ar
    79   81   80 1
    80   82   80 ar
    81   83   82 1
    82   84   82 ar
    83   85   84 1
    84   86   67 ar
    85   87   86 1
    86   88    7 1
    87   89   88 1
    88   90   89 ar
    89   91   90 1
    90   92   90 ar
    91   93   92 1
    92   94   92 ar
    93   95   94 ar
    94   96   95 1
    95   97   89 ar
    96   98   97 1
    97   18   25 1
    98   23   24 ar
    99   41   43 ar
   100   52   54 ar
   101   61   68 1
   102   66   67 ar
   103   84   86 ar
   104   95   97 ar
@<TRIPOS>SUBSTRUCTURE
     1 RES1 1
     2 RES2 6

@<TRIPOS>CRYSIN
  15.0668    7.0908   34.9957  90.0000  90.0000  90.0000  29 1

