# MOL2 file generated by ConQuest
# Please check atom types

@<TRIPOS>MOLECULE
ISPCHX
    36    36     1
SMALL
NO_CHARGES
****
Generated from CSD

@<TRIPOS>ATOM
      1 O1         2.2937    1.8816    3.3058 O.2       1 RES1    0.0000
      2 O2         6.6561   -0.1618    5.1676 O.2       1 RES1    0.0000
      3 O3         5.4757    1.0330    6.4407 O.2       1 RES1    0.0000
      4 N1         5.6423    0.3923    5.4311 N.pl3     1 RES1    0.0000
      5 C1         2.4388    1.0151    2.4695 C.2       1 RES1    0.0000
      6 C2         1.2770    0.4205    1.8254 C.2       1 RES1    0.0000
      7 C3         1.4447   -0.5278    0.9281 C.2       1 RES1    0.0000
      8 C4         2.7384   -1.0772    0.5262 C.3       1 RES1    0.0000
      9 C5         3.8162   -0.8994    1.5856 C.3       1 RES1    0.0000
     10 C6         3.8290    0.5786    2.0612 C.3       1 RES1    0.0000
     11 C7        -0.0815    0.9662    2.2044 C.3       1 RES1    0.0000
     12 C8         5.1500   -1.3849    1.1164 C.2       1 RES1    0.0000
     13 C9         5.7098   -2.4404    1.6727 C.2       1 RES1    0.0000
     14 C10        5.7942   -0.6971   -0.0237 C.3       1 RES1    0.0000
     15 C11        4.9096    0.8702    3.1111 C.3       1 RES1    0.0000
     16 C12        5.3094    2.3379    3.2029 C.3       1 RES1    0.0000
     17 C13        4.5112    0.3321    4.4681 C.3       1 RES1    0.0000
     18 H1         0.8531   -0.8486    0.5602 H         1 RES1    0.0000
     19 H2         2.5914   -1.9794    0.3592 H         1 RES1    0.0000
     20 H3         3.0498   -0.6510   -0.3110 H         1 RES1    0.0000
     21 H4         3.4746   -1.4215    2.2938 H         1 RES1    0.0000
     22 H5         4.1080    1.0829    1.2945 H         1 RES1    0.0000
     23 H6        -0.7719    0.5457    1.8024 H         1 RES1    0.0000
     24 H7        -0.2405    0.7931    3.2377 H         1 RES1    0.0000
     25 H8        -0.3787    1.8872    2.3072 H         1 RES1    0.0000
     26 H9         5.2324   -2.9005    2.3231 H         1 RES1    0.0000
     27 H10        6.5587   -2.7547    1.2794 H         1 RES1    0.0000
     28 H11        5.0003   -0.6238   -0.6844 H         1 RES1    0.0000
     29 H12        6.7839   -1.1845   -0.3766 H         1 RES1    0.0000
     30 H13        5.9888    0.2314    0.1994 H         1 RES1    0.0000
     31 H14        5.6807    0.3791    2.8943 H         1 RES1    0.0000
     32 H15        6.0869    2.4244    3.8510 H         1 RES1    0.0000
     33 H16        5.5558    2.6380    2.3365 H         1 RES1    0.0000
     34 H17        4.6035    2.8111    3.4443 H         1 RES1    0.0000
     35 H18        3.5844    0.7451    4.9460 H         1 RES1    0.0000
     36 H19        4.1917   -0.4497    4.4309 H         1 RES1    0.0000
@<TRIPOS>BOND
     1    1    5 2
     2    2    4 2
     3    3    4 2
     4    4   17 1
     5    5    6 1
     6    6    7 2
     7    7    8 1
     8    8    9 1
     9    9   10 1
    10   10    5 1
    11   11    6 1
    12   12    9 1
    13   13   12 2
    14   14   12 1
    15   15   10 1
    16   16   15 1
    17   17   15 1
    18   18    7 1
    19   19    8 1
    20   20    8 1
    21   21    9 1
    22   22   10 1
    23   23   11 1
    24   24   11 1
    25   25   11 1
    26   26   13 1
    27   27   13 1
    28   28   14 1
    29   29   14 1
    30   30   14 1
    31   31   15 1
    32   32   16 1
    33   33   16 1
    34   34   16 1
    35   35   17 1
    36   36   17 1
@<TRIPOS>SUBSTRUCTURE
     1 RES1 1

@<TRIPOS>CRYSIN
   8.8810    9.4080    8.4810  90.0000 111.1000  90.0000   4 1

