# MOL2 file generated by ConQuest
# Please check atom types

@<TRIPOS>MOLECULE
ISUHOV
    73    57     2
SMALL
NO_CHARGES
****
Generated from CSD

@<TRIPOS>ATOM
      1 O1         3.2916    0.0598    7.0096 O.2       1 RES1    0.0000
      2 N1         4.8755    1.4964   11.6351 N.pl3     1 RES1    0.0000
      3 C1         3.8900    1.1016    6.8330 C.2       1 RES1    0.0000
      4 O2         3.9966    1.7266    5.6704 O.3       1 RES1    0.0000
      5 N2         6.9604    4.6556    8.5074 N.pl3     1 RES1    0.0000
      6 C2         4.5846    1.8342    7.9368 C.ar      1 RES1    0.0000
      7 O3         4.3626    0.4001   11.7581 O.2       1 RES1    0.0000
      8 C3         4.4112    1.3769    9.2064 C.ar      1 RES1    0.0000
      9 H1         3.8398    0.6339    9.3687 H         1 RES1    0.0000
     10 C4         5.0620    1.9849   10.2567 C.ar      1 RES1    0.0000
     11 O4         5.2671    2.1823   12.5641 O.2       1 RES1    0.0000
     12 C5         5.8946    3.0968   10.0712 C.ar      1 RES1    0.0000
     13 H2         6.3211    3.5411   10.7934 H         1 RES1    0.0000
     14 O5         7.4212    5.2054    9.4703 O.2       1 RES1    0.0000
     15 C6         6.0488    3.4917    8.7749 C.ar      1 RES1    0.0000
     16 O6         7.1566    4.9570    7.3608 O.2       1 RES1    0.0000
     17 C7         5.4272    2.9202    7.6961 C.ar      1 RES1    0.0000
     18 H3         5.5639    3.2553    6.8170 H         1 RES1    0.0000
     19 C8         3.2976    1.0808    4.5524 C.3       1 RES1    0.0000
     20 H4         2.3529    0.9207    4.8002 H         1 RES1    0.0000
     21 H5         3.7184    0.2063    4.3598 H         1 RES1    0.0000
     22 C9         3.1710    1.7770    0.8898 C.3       1 RES1    0.0000
     23 H6         3.4819    0.9353    0.4511 H         1 RES1    0.0000
     24 C10        2.4622    1.4029    2.2200 C.3       1 RES1    0.0000
     25 H7         2.4527    0.4032    2.2913 H         1 RES1    0.0000
     26 C11        1.0475    1.8913    2.3645 C.3       1 RES1    0.0000
     27 H8         0.4337    1.2559    1.9187 H         1 RES1    0.0000
     28 H9         0.8091    1.9241    3.3256 H         1 RES1    0.0000
     29 C12        0.8742    3.2475    1.7653 C.2       1 RES1    0.0000
     30 H10        0.3443    3.8996    2.2129 H         1 RES1    0.0000
     31 C13        1.4357    3.5437    0.6508 C.2       1 RES1    0.0000
     32 H11        1.3602    4.4208    0.2978 H         1 RES1    0.0000
     33 C14        2.2075    2.5097   -0.0927 C.3       1 RES1    0.0000
     34 H12        2.7290    2.9373   -0.8167 H         1 RES1    0.0000
     35 H13        1.5858    1.8565   -0.5011 H         1 RES1    0.0000
     36 C15        3.3572    1.9485    3.3327 C.3       1 RES1    0.0000
     37 H14        3.0541    2.8692    3.5716 H         1 RES1    0.0000
     38 C16        4.3954    2.5668    1.3177 C.3       1 RES1    0.0000
     39 H15        4.1848    3.5343    1.3712 H         1 RES1    0.0000
     40 H16        5.1346    2.4400    0.6722 H         1 RES1    0.0000
     41 C17        4.7820    2.0316    2.6908 C.3       1 RES1    0.0000
     42 H17        5.1178    1.0953    2.5677 H         1 RES1    0.0000
     43 C18        5.8162    2.7903    3.4557 C.3       1 RES1    0.0000
     44 H18        5.9447    2.3533    4.3348 H         1 RES1    0.0000
     45 H19        5.4742    3.7047    3.6251 H         1 RES1    0.0000
     46 C19        7.1594    2.8994    2.7710 C.3       1 RES1    0.0000
     47 H20        7.3971    2.0207    2.3805 H         1 RES1    0.0000
     48 H21        7.0967    3.5535    2.0310 H         1 RES1    0.0000
     49 C20        8.2487    3.3306    3.7250 C.3       1 RES1    0.0000
     50 H22        7.9552    4.1677    4.1601 H         1 RES1    0.0000
     51 H23        9.0525    3.5473    3.1865 H         1 RES1    0.0000
     52 C21        8.6771    2.3538    4.8323 C.3       1 RES1    0.0000
     53 H24        9.4648    2.7082    5.2853 H         1 RES1    0.0000
     54 H25        8.8892    1.4871    4.4258 H         1 RES1    0.0000
     55 H26        7.9422    2.2488    5.4671 H         1 RES1    0.0000
     56 H27        2.9976    2.8443    3.5895 Du        2 SUP2    0.0000
     57 H28        4.1969    3.5380    1.2839 Du        2 SUP2    0.0000
     58 H29        5.1461    2.3839    0.6990 Du        2 SUP2    0.0000
     59 C22        4.7877    2.1719    2.7371 Du        2 SUP2    0.0000
     60 H30        5.2444    1.2850    2.6926 Du        2 SUP2    0.0000
     61 C23        5.6805    3.1072    3.4843 Du        2 SUP2    0.0000
     62 H31        5.7739    2.7825    4.4151 Du        2 SUP2    0.0000
     63 H32        5.2488    3.9983    3.5217 Du        2 SUP2    0.0000
     64 C24        7.0654    3.2735    2.8887 Du        2 SUP2    0.0000
     65 H33        6.9886    3.3847    1.9133 Du        2 SUP2    0.0000
     66 H34        7.4816    4.0924    3.2614 Du        2 SUP2    0.0000
     67 C25        7.9523    2.0888    3.1918 Du        2 SUP2    0.0000
     68 H35        8.7198    2.1205    2.5642 Du        2 SUP2    0.0000
     69 H36        7.4423    1.2668    2.9832 Du        2 SUP2    0.0000
     70 C26        8.5184    1.9225    4.6005 Du        2 SUP2    0.0000
     71 H37        9.1016    1.1571    4.6451 Du        2 SUP2    0.0000
     72 H38        7.7776    1.8295    5.2407 Du        2 SUP2    0.0000
     73 H39        9.0281    2.7440    4.8395 Du        2 SUP2    0.0000
@<TRIPOS>BOND
     1    1    3 2
     2    2    7 2
     3    3    4 1
     4    4   19 1
     5    5   14 2
     6    6    3 1
     7    8    6 ar
     8    9    8 1
     9   10    2 1
    10   11    2 2
    11   12   10 ar
    12   13   12 1
    13   15    5 1
    14   16    5 2
    15   17    6 ar
    16   18   17 1
    17   19   20 1
    18   21   19 1
    19   22   23 1
    20   24   22 1
    21   25   24 1
    22   26   24 1
    23   27   26 1
    24   28   26 1
    25   29   26 1
    26   30   29 1
    27   31   29 2
    28   32   31 1
    29   33   22 1
    30   34   33 1
    31   35   33 1
    32   36   19 1
    33   37   36 1
    34   38   22 1
    35   39   38 1
    36   40   38 1
    37   41   36 1
    38   42   41 1
    39   43   41 1
    40   44   43 1
    41   45   43 1
    42   46   43 1
    43   47   46 1
    44   48   46 1
    45   49   46 1
    46   50   49 1
    47   51   49 1
    48   52   49 1
    49   53   52 1
    50   54   52 1
    51   55   52 1
    52    8   10 ar
    53   12   15 ar
    54   15   17 ar
    55   24   36 1
    56   31   33 1
    57   38   41 1
@<TRIPOS>SUBSTRUCTURE
     1 RES1 1
     2 SUP2 56

@<TRIPOS>CRYSIN
  10.8660    5.1960   18.6170  90.0000 106.7030  90.0000   4 1

