# MOL2 file generated by ConQuest
# Please check atom types

@<TRIPOS>MOLECULE
ISUPIV
    52    52     2
SMALL
NO_CHARGES
****
Generated from CSD

@<TRIPOS>ATOM
      1 O1         7.0508    2.7507    6.5621 O.3       1 RES1    0.0000
      2 O2         5.7132    1.5476    0.3881 O.3       2 RES2    0.0000
      3 C1         6.4631    1.8072    7.3570 C.ar      1 RES1    0.0000
      4 C2         7.2731    1.1542    8.2927 C.ar      1 RES1    0.0000
      5 C3         6.7078    0.1430    9.0677 C.ar      1 RES1    0.0000
      6 C4         5.3756   -0.2057    8.9406 C.ar      1 RES1    0.0000
      7 C5         4.5729    0.4734    8.0402 C.ar      1 RES1    0.0000
      8 C6         5.1119    1.4859    7.2529 C.ar      1 RES1    0.0000
      9 C7         8.7365    1.5152    8.4629 C.3       1 RES1    0.0000
     10 C8         9.6096    0.3378    8.1293 C.2       1 RES1    0.0000
     11 C9         9.6620   -0.1418    6.7159 C.3       1 RES1    0.0000
     12 N1        10.2253   -0.2111    9.1060 N.2       1 RES1    0.0000
     13 O3        10.9923   -1.3299    8.6805 O.3       1 RES1    0.0000
     14 C10       11.4897   -1.9982    9.8398 C.3       1 RES1    0.0000
     15 C11        6.8581    2.1943    0.7636 C.ar      2 RES2    0.0000
     16 C12        6.9649    2.6012    2.0995 C.ar      2 RES2    0.0000
     17 C13        8.1024    3.2949    2.4924 C.ar      2 RES2    0.0000
     18 C14        9.1285    3.5796    1.6026 C.ar      2 RES2    0.0000
     19 C15        9.0269    3.1343    0.2899 C.ar      2 RES2    0.0000
     20 C16        7.8997    2.4424   -0.1258 C.ar      2 RES2    0.0000
     21 C17        5.8657    2.3124    3.1034 C.3       2 RES2    0.0000
     22 C18        5.1475    3.5760    3.5000 C.2       2 RES2    0.0000
     23 C19        4.3830    4.3324    2.4601 C.3       2 RES2    0.0000
     24 N2         5.2839    3.9386    4.7204 N.2       2 RES2    0.0000
     25 O4         4.5935    5.1471    5.0016 O.3       2 RES2    0.0000
     26 C20        4.8060    5.4632    6.3806 C.3       2 RES2    0.0000
     27 H1         6.4741    3.0851    6.0508 H         1 RES1    0.0000
     28 H2         7.2502   -0.3168    9.6978 H         1 RES1    0.0000
     29 H3         5.0130   -0.9083    9.4684 H         1 RES1    0.0000
     30 H4         3.6529    0.2487    7.9594 H         1 RES1    0.0000
     31 H5         4.5576    1.9590    6.6433 H         1 RES1    0.0000
     32 H6         8.9623    2.2740    7.8680 H         1 RES1    0.0000
     33 H7         8.9019    1.7969    9.3976 H         1 RES1    0.0000
     34 H8        10.5668   -0.0153    6.3613 H         1 RES1    0.0000
     35 H9         9.0241    0.3672    6.1741 H         1 RES1    0.0000
     36 H10        9.4294   -1.0938    6.6855 H         1 RES1    0.0000
     37 H11       12.0338   -1.3768   10.3667 H         1 RES1    0.0000
     38 H12       12.0389   -2.7622    9.5654 H         1 RES1    0.0000
     39 H13       10.7372   -2.3153   10.3827 H         1 RES1    0.0000
     40 H14        5.7634    1.3387   -0.4235 H         2 RES2    0.0000
     41 H15        8.1799    3.5825    3.3947 H         2 RES2    0.0000
     42 H16        9.8896    4.0724    1.8868 H         2 RES2    0.0000
     43 H17        9.7322    3.3046   -0.3242 H         2 RES2    0.0000
     44 H18        7.8380    2.1365   -1.0227 H         2 RES2    0.0000
     45 H19        5.2181    1.6755    2.7087 H         2 RES2    0.0000
     46 H20        6.2577    1.8907    3.9083 H         2 RES2    0.0000
     47 H21        4.6816    5.2658    2.4496 H         2 RES2    0.0000
     48 H22        3.4266    4.2973    2.6687 H         2 RES2    0.0000
     49 H23        4.5408    3.9293    1.5809 H         2 RES2    0.0000
     50 H24        5.7615    5.6162    6.5371 H         2 RES2    0.0000
     51 H25        4.4992    4.7177    6.9378 H         2 RES2    0.0000
     52 H26        4.3043    6.2723    6.6113 H         2 RES2    0.0000
@<TRIPOS>BOND
     1    1    3 1
     2    2   15 1
     3    3    4 ar
     4    4    5 ar
     5    5    6 ar
     6    6    7 ar
     7    7    8 ar
     8    8    3 ar
     9    9    4 1
    10   10    9 1
    11   11   10 1
    12   12   10 2
    13   13   12 1
    14   14   13 1
    15   15   16 ar
    16   16   17 ar
    17   17   18 ar
    18   18   19 ar
    19   19   20 ar
    20   20   15 ar
    21   21   16 1
    22   22   21 1
    23   23   22 1
    24   24   22 2
    25   25   24 1
    26   26   25 1
    27   27    1 1
    28   28    5 1
    29   29    6 1
    30   30    7 1
    31   31    8 1
    32   32    9 1
    33   33    9 1
    34   34   11 1
    35   35   11 1
    36   36   11 1
    37   37   14 1
    38   38   14 1
    39   39   14 1
    40   40    2 1
    41   41   17 1
    42   42   18 1
    43   43   19 1
    44   44   20 1
    45   45   21 1
    46   46   21 1
    47   47   23 1
    48   48   23 1
    49   49   23 1
    50   50   26 1
    51   51   26 1
    52   52   26 1
@<TRIPOS>SUBSTRUCTURE
     1 RES1 1
     2 RES2 2

@<TRIPOS>CRYSIN
   9.3723    9.4254   12.3080  89.7146  68.5508  77.0903   2 1

