# MOL2 file generated by ConQuest
# Please check atom types

@<TRIPOS>MOLECULE
ISUQES01
    25    26     1
SMALL
NO_CHARGES
****
Generated from CSD

@<TRIPOS>ATOM
      1 C1         5.1496    0.5135    8.4400 C.ar      1 RES1    0.0000
      2 C2         4.5754   -0.2423    7.4216 C.ar      1 RES1    0.0000
      3 C3         5.2616   -0.3713    6.2161 C.ar      1 RES1    0.0000
      4 C4         6.4889    0.2648    6.0326 C.ar      1 RES1    0.0000
      5 C5         7.0488    1.0221    7.0606 C.ar      1 RES1    0.0000
      6 C6         6.3816    1.1393    8.2803 C.ar      1 RES1    0.0000
      7 C7         3.3855    1.5117    9.9198 C.2       1 RES1    0.0000
      8 C8         3.8448    0.5932   11.7743 C.2       1 RES1    0.0000
      9 C9         4.7515    0.0623   10.8807 C.2       1 RES1    0.0000
     10 C10        2.7575    2.3511    8.8724 C.3       1 RES1    0.0000
     11 C11        5.7653   -0.9082   11.0268 C.1       1 RES1    0.0000
     12 N1         4.4437    0.6738    9.6835 N.pl3     1 RES1    0.0000
     13 N2         3.0068    1.4731   11.1880 N.2       1 RES1    0.0000
     14 N3         3.7463    0.2734   13.1703 N.pl3     1 RES1    0.0000
     15 N4         6.6026   -1.6998   11.1422 N.1       1 RES1    0.0000
     16 O1         2.8743    0.8236   13.8308 O.2       1 RES1    0.0000
     17 O2         4.5489   -0.5385   13.6172 O.2       1 RES1    0.0000
     18 H1         6.7983    1.6944    9.1052 H         1 RES1    0.0000
     19 H2         3.6261   -0.7068    7.5799 H         1 RES1    0.0000
     20 H3         4.8284   -0.9614    5.4307 H         1 RES1    0.0000
     21 H4         6.9913    0.1629    5.0955 H         1 RES1    0.0000
     22 H5         7.9792    1.5240    6.9265 H         1 RES1    0.0000
     23 H6         1.9397    2.8515    9.3067 H         1 RES1    0.0000
     24 H7         2.4106    1.7609    8.0578 H         1 RES1    0.0000
     25 H8         3.4521    3.0509    8.5209 H         1 RES1    0.0000
@<TRIPOS>BOND
     1    1    2 ar
     2    2    3 ar
     3    3    4 ar
     4    4    5 ar
     5    5    6 ar
     6    6    1 ar
     7    7   10 1
     8    8    9 2
     9    9   11 1
    10   10   23 1
    11   11   15 3
    12   12    1 1
    13   13    7 2
    14   14    8 1
    15   16   14 2
    16   17   14 2
    17   18    6 1
    18   19    2 1
    19   20    3 1
    20   21    4 1
    21   22    5 1
    22   24   10 1
    23   25   10 1
    24    7   12 1
    25    8   13 1
    26    9   12 1
@<TRIPOS>SUBSTRUCTURE
     1 RES1 1

@<TRIPOS>CRYSIN
   9.8484    9.3614   11.6488  90.0000 103.5726  90.0000 231 1

