# MOL2 file generated by ConQuest
# Please check atom types

@<TRIPOS>MOLECULE
ISUQES
    25    26     1
SMALL
NO_CHARGES
****
Generated from CSD

@<TRIPOS>ATOM
      1 N1         5.8580    0.6889    4.0362 N.pl3     1 RES1    0.0000
      2 C1         6.5590    0.5096    2.7797 C.ar      1 RES1    0.0000
      3 C2         5.9961   -0.2589    1.7914 C.ar      1 RES1    0.0000
      4 H1         5.1548   -0.6789    1.9317 H         1 RES1    0.0000
      5 C3         6.6644   -0.3914    0.5962 C.ar      1 RES1    0.0000
      6 H2         6.3262   -0.9501   -0.0738 H         1 RES1    0.0000
      7 C4         7.8606    0.2442    0.3941 C.ar      1 RES1    0.0000
      8 H3         8.2432    0.1577   -0.4327 H         1 RES1    0.0000
      9 C5         8.4108    1.0083    1.3815 C.ar      1 RES1    0.0000
     10 H4         9.2070    1.4618    1.2958 H         1 RES1    0.0000
     11 C6         7.7694    1.1397    2.5946 C.ar      1 RES1    0.0000
     12 H5         8.1500    1.6137    3.2990 H         1 RES1    0.0000
     13 C7         4.8090    1.5374    4.2706 C.2       1 RES1    0.0000
     14 C8         4.1932    2.3753    3.2169 C.3       1 RES1    0.0000
     15 H6         3.4801    2.8937    3.5966 H         1 RES1    0.0000
     16 H7         3.8452    1.8118    2.5223 H         1 RES1    0.0000
     17 H8         4.8558    2.9649    2.8482 H         1 RES1    0.0000
     18 N2         4.4376    1.5079    5.5351 N.2       1 RES1    0.0000
     19 C9         5.2667    0.6267    6.1129 C.2       1 RES1    0.0000
     20 N3         5.1720    0.3210    7.5183 N.pl3     1 RES1    0.0000
     21 O1         4.3198    0.8753    8.1800 O.2       1 RES1    0.0000
     22 O2         5.9708   -0.4876    7.9668 O.2       1 RES1    0.0000
     23 C10        6.1583    0.0825    5.2377 C.2       1 RES1    0.0000
     24 C11        7.1730   -0.9000    5.3795 C.1       1 RES1    0.0000
     25 N4         7.9876   -1.6846    5.4983 N.1       1 RES1    0.0000
@<TRIPOS>BOND
     1    1    2 1
     2    2    3 ar
     3    3    4 1
     4    5    3 ar
     5    6    5 1
     6    7    5 ar
     7    8    7 1
     8    9    7 ar
     9   10    9 1
    10   11    2 ar
    11   12   11 1
    12   13    1 1
    13   14   13 1
    14   15   14 1
    15   16   14 1
    16   17   14 1
    17   18   13 2
    18   19   18 1
    19   20   19 1
    20   21   20 2
    21   22   20 2
    22   23    1 1
    23   24   23 1
    24   25   24 3
    25    9   11 ar
    26   19   23 2
@<TRIPOS>SUBSTRUCTURE
     1 RES1 1

@<TRIPOS>CRYSIN
   9.8976    9.6168   11.6700  90.0000 103.3130  90.0000 231 1

