# MOL2 file generated by ConQuest
# Please check atom types

@<TRIPOS>MOLECULE
ISURET
    33    34     1
SMALL
NO_CHARGES
****
Generated from CSD

@<TRIPOS>ATOM
      1 N1         8.6174    5.7507    4.1132 N.2       1 RES1    0.0000
      2 N2         8.1678    3.6622    3.1875 N.3       1 RES1    0.0000
      3 O1         9.6492    5.0295    4.7466 O.3       1 RES1    0.0000
      4 O2         5.6414    5.0148    2.8923 O.2       1 RES1    0.0000
      5 O3         8.4392   -0.4964    3.5952 O.3       1 RES1    0.0000
      6 O4         8.8368    1.4643    4.5426 O.2       1 RES1    0.0000
      7 C1         6.6952    7.0511    2.3637 C.ar      1 RES1    0.0000
      8 C2         5.4896    7.7315    2.3017 C.ar      1 RES1    0.0000
      9 H1         4.7093    7.3161    2.5901 H         1 RES1    0.0000
     10 C3         5.4418    9.0016    1.8225 C.ar      1 RES1    0.0000
     11 H2         4.6292    9.4520    1.7835 H         1 RES1    0.0000
     12 C4         6.5773    9.6188    1.3987 C.ar      1 RES1    0.0000
     13 H3         6.5318   10.4883    1.0703 H         1 RES1    0.0000
     14 C5         7.7875    8.9754    1.4490 C.ar      1 RES1    0.0000
     15 H4         8.5611    9.4072    1.1678 H         1 RES1    0.0000
     16 C6         7.8450    7.6709    1.9262 C.ar      1 RES1    0.0000
     17 H5         8.6567    7.2187    1.9497 H         1 RES1    0.0000
     18 C7         7.9308    4.9988    3.3248 C.2       1 RES1    0.0000
     19 C8         6.6728    5.6518    2.8314 C.2       1 RES1    0.0000
     20 C9         7.7060    2.7936    2.2075 C.ar      1 RES1    0.0000
     21 C10        7.2181    3.2613    0.9884 C.ar      1 RES1    0.0000
     22 H6         7.2165    4.1756    0.8158 H         1 RES1    0.0000
     23 C11        6.7421    2.3945    0.0431 C.ar      1 RES1    0.0000
     24 H7         6.4024    2.7271   -0.7563 H         1 RES1    0.0000
     25 C12        6.7582    1.0350    0.2606 C.ar      1 RES1    0.0000
     26 H8         6.4087    0.4530   -0.3746 H         1 RES1    0.0000
     27 C13        7.2912    0.5528    1.4141 C.ar      1 RES1    0.0000
     28 H9         7.3338   -0.3674    1.5434 H         1 RES1    0.0000
     29 C14        7.7770    1.4023    2.4089 C.ar      1 RES1    0.0000
     30 C15        8.3854    0.8160    3.6033 C.2       1 RES1    0.0000
     31 H10        9.9371    5.7412    5.4182 H         1 RES1    0.0000
     32 H11        8.6784    3.3262    3.7969 H         1 RES1    0.0000
     33 H12        8.8755   -0.8164    4.3818 H         1 RES1    0.0000
@<TRIPOS>BOND
     1    1    3 1
     2    2   18 1
     3    3   31 1
     4    4   19 2
     5    5   30 1
     6    6   30 2
     7    7    8 ar
     8    8    9 1
     9   10    8 ar
    10   11   10 1
    11   12   10 ar
    12   13   12 1
    13   14   12 ar
    14   15   14 1
    15   16    7 ar
    16   17   16 1
    17   18    1 2
    18   19    7 1
    19   20    2 1
    20   21   20 ar
    21   22   21 1
    22   23   21 ar
    23   24   23 1
    24   25   23 ar
    25   26   25 1
    26   27   25 ar
    27   28   27 1
    28   29   20 ar
    29   30   29 1
    30   32    2 1
    31   33    5 1
    32   14   16 ar
    33   18   19 1
    34   27   29 ar
@<TRIPOS>SUBSTRUCTURE
     1 RES1 1

@<TRIPOS>CRYSIN
  20.6850   13.1680   10.4880  90.0000 101.9210  90.0000  15 1

