# MOL2 file generated by ConQuest
# Please check atom types

@<TRIPOS>MOLECULE
ISUTIZ
    32    33     1
SMALL
NO_CHARGES
****
Generated from CSD

@<TRIPOS>ATOM
      1 O1         4.6394    0.5149   12.3859 O.3       1 RES1    0.0000
      2 O2         5.3630   -1.8422   13.0482 O.2       1 RES1    0.0000
      3 O3         5.3051   -2.3729   15.1287 O.2       1 RES1    0.0000
      4 O4         5.7205    2.1827    9.4840 O.2       1 RES1    0.0000
      5 N1         5.0123   -1.6235   14.2071 N.pl3     1 RES1    0.0000
      6 N2         6.2947    0.2006   10.4695 N.am      1 RES1    0.0000
      7 C1         4.2429   -0.4267   14.5238 C.ar      1 RES1    0.0000
      8 C2         4.0911    0.6314   13.6148 C.ar      1 RES1    0.0000
      9 C3         3.3763    1.7537   14.0238 C.ar      1 RES1    0.0000
     10 C4         2.8620    1.8166   15.2953 C.ar      1 RES1    0.0000
     11 C5         3.0111    0.7803   16.1841 C.ar      1 RES1    0.0000
     12 C6         3.6946   -0.3511   15.7952 C.ar      1 RES1    0.0000
     13 C7         7.2288   -0.3511    9.5692 C.ar      1 RES1    0.0000
     14 C8         7.7641    0.3498    8.5019 C.ar      1 RES1    0.0000
     15 C9         8.6992   -0.2705    7.6822 C.ar      1 RES1    0.0000
     16 C10        9.1079   -1.5679    7.9241 C.ar      1 RES1    0.0000
     17 C11        8.5579   -2.2636    8.9765 C.ar      1 RES1    0.0000
     18 C12        7.6232   -1.6706    9.7977 C.ar      1 RES1    0.0000
     19 C13        4.7160    1.6725   11.5526 C.3       1 RES1    0.0000
     20 C14        5.6319    1.3709   10.3920 C.2       1 RES1    0.0000
     21 H1         3.2442    2.4765   13.4222 H         1 RES1    0.0000
     22 H2         2.3917    2.5962   15.5661 H         1 RES1    0.0000
     23 H3         2.6462    0.8431   17.0584 H         1 RES1    0.0000
     24 H4         3.7903   -1.0792   16.3981 H         1 RES1    0.0000
     25 H5         5.0681    2.4388   12.0707 H         1 RES1    0.0000
     26 H6         3.8144    1.9091   11.2189 H         1 RES1    0.0000
     27 H7         6.1199   -0.2870   11.1815 H         1 RES1    0.0000
     28 H8         7.4947    1.2445    8.3311 H         1 RES1    0.0000
     29 H9         9.0630    0.2050    6.9444 H         1 RES1    0.0000
     30 H10        9.7620   -1.9753    7.3692 H         1 RES1    0.0000
     31 H11        8.8253   -3.1610    9.1389 H         1 RES1    0.0000
     32 H12        7.2469   -2.1604   10.5190 H         1 RES1    0.0000
@<TRIPOS>BOND
     1    1    8 1
     2    2    5 2
     3    3    5 2
     4    4   20 2
     5    5    7 1
     6    6   13 1
     7    7    8 ar
     8    8    9 ar
     9    9   10 ar
    10   10   11 ar
    11   11   12 ar
    12   12    7 ar
    13   13   14 ar
    14   14   15 ar
    15   15   16 ar
    16   16   17 ar
    17   17   18 ar
    18   18   13 ar
    19   19    1 1
    20   20    6 1
    21   21    9 1
    22   22   10 1
    23   23   11 1
    24   24   12 1
    25   25   19 1
    26   26   19 1
    27   27    6 1
    28   28   14 1
    29   29   15 1
    30   30   16 1
    31   31   17 1
    32   32   18 1
    33   19   20 1
@<TRIPOS>SUBSTRUCTURE
     1 RES1 1

@<TRIPOS>CRYSIN
   8.5855    6.6129   22.0221  90.0000  91.8330  90.0000 231 1

