# MOL2 file generated by ConQuest
# Please check atom types

@<TRIPOS>MOLECULE
ISUXUQ
    72    74     2
SMALL
NO_CHARGES
****
Generated from CSD

@<TRIPOS>ATOM
      1 O1        -0.4766   11.9914    1.4471 O.3       1 RES1    0.0000
      2 O2         1.7541   13.7136    4.5563 O.3       1 RES1    0.0000
      3 O3        -0.5835   14.7133    2.8632 O.2       1 RES1    0.0000
      4 O4         0.3241   15.3619    1.0597 O.2       1 RES1    0.0000
      5 N1         1.8006   10.9952    4.0532 N.ar      1 RES1    0.0000
      6 N2         3.7105   15.5971    2.2891 N.ar      1 RES1    0.0000
      7 N3         0.2078   14.6057    2.0234 N.pl3     1 RES1    0.0000
      8 C1         2.4957    9.9165    4.4267 C.ar      1 RES1    0.0000
      9 H1         2.8210    9.8701    5.3178 H         1 RES1    0.0000
     10 C2         2.7622    8.8627    3.5655 C.ar      1 RES1    0.0000
     11 H2         3.2544    8.1053    3.8589 H         1 RES1    0.0000
     12 C3         2.2904    8.9451    2.2635 C.ar      1 RES1    0.0000
     13 H3         2.4802    8.2526    1.6413 H         1 RES1    0.0000
     14 C4         1.5427   10.0407    1.8782 C.ar      1 RES1    0.0000
     15 H4         1.1912   10.1031    0.9978 H         1 RES1    0.0000
     16 C5         1.3141   11.0444    2.8024 C.ar      1 RES1    0.0000
     17 C6         0.4227   12.2395    2.5132 C.3       1 RES1    0.0000
     18 H5        -0.1133   12.4349    3.3349 H         1 RES1    0.0000
     19 C7         1.2209   13.5140    2.1418 C.3       1 RES1    0.0000
     20 C8         2.2506   13.9151    3.2517 C.3       1 RES1    0.0000
     21 H6         3.0578   13.3360    3.1418 H         1 RES1    0.0000
     22 C9         2.6983   15.3536    3.1236 C.ar      1 RES1    0.0000
     23 C10        2.0881   16.3786    3.8525 C.ar      1 RES1    0.0000
     24 H7         1.3790   16.1843    4.4544 H         1 RES1    0.0000
     25 C11        2.5290   17.6713    3.6871 C.ar      1 RES1    0.0000
     26 H8         2.1179   18.3821    4.1652 H         1 RES1    0.0000
     27 C12        3.5707   17.9276    2.8238 C.ar      1 RES1    0.0000
     28 H9         3.8936   18.8106    2.6946 H         1 RES1    0.0000
     29 C13        4.1292   16.8628    2.1546 C.ar      1 RES1    0.0000
     30 H10        4.8512   17.0348    1.5634 H         1 RES1    0.0000
     31 C14        1.9864   13.2885    0.7726 C.3       1 RES1    0.0000
     32 H11        1.3779   12.8833    0.1195 H         1 RES1    0.0000
     33 H12        2.7513   12.6921    0.9199 H         1 RES1    0.0000
     34 H13        2.3054   14.1492    0.4311 H         1 RES1    0.0000
     35 O5         6.3434    8.2761   -1.2016 O.3       2 RES2    0.0000
     36 O6         4.3373    9.4952   -4.6529 O.3       2 RES2    0.0000
     37 O7         6.7140   10.6411   -3.0180 O.2       2 RES2    0.0000
     38 O8         5.5537   11.8143   -1.6488 O.2       2 RES2    0.0000
     39 N4         4.1242    6.8733   -3.6658 N.ar      2 RES2    0.0000
     40 N5         2.2279   11.6914   -2.8344 N.ar      2 RES2    0.0000
     41 N6         5.7599   10.7956   -2.2838 N.pl3     2 RES2    0.0000
     42 C15        3.3250    5.8137   -3.8365 C.ar      2 RES2    0.0000
     43 H14        3.0092    5.6153   -4.7095 H         2 RES2    0.0000
     44 C16        2.9498    5.0085   -2.7992 C.ar      2 RES2    0.0000
     45 H15        2.3836    4.2615   -2.9572 H         2 RES2    0.0000
     46 C17        3.3889    5.2786   -1.5378 C.ar      2 RES2    0.0000
     47 H16        3.1325    4.7274   -0.8068 H         2 RES2    0.0000
     48 C18        4.2289    6.3895   -1.3393 C.ar      2 RES2    0.0000
     49 H17        4.5632    6.6021   -0.4760 H         2 RES2    0.0000
     50 C19        4.5538    7.1555   -2.4278 C.ar      2 RES2    0.0000
     51 C20        5.4876    8.3581   -2.3329 C.3       2 RES2    0.0000
     52 H18        6.0503    8.3932   -3.1589 H         2 RES2    0.0000
     53 C21        4.7065    9.6822   -2.2101 C.3       2 RES2    0.0000
     54 C22        3.7445    9.8849   -3.4363 C.3       2 RES2    0.0000
     55 H19        2.9392    9.3097   -3.2912 H         2 RES2    0.0000
     56 C23        3.2753   11.3114   -3.5815 C.ar      2 RES2    0.0000
     57 C24        3.9192   12.1881   -4.4459 C.ar      2 RES2    0.0000
     58 H20        4.6407   11.8877   -4.9859 H         2 RES2    0.0000
     59 C25        3.4999   13.4984   -4.5099 C.ar      2 RES2    0.0000
     60 H21        3.9398   14.1184   -5.0809 H         2 RES2    0.0000
     61 C26        2.4310   13.8993   -3.7309 C.ar      2 RES2    0.0000
     62 H22        2.1217   14.7975   -3.7554 H         2 RES2    0.0000
     63 C27        1.8246   12.9666   -2.9209 C.ar      2 RES2    0.0000
     64 H23        1.0815   13.2415   -2.3958 H         2 RES2    0.0000
     65 C28        3.9622    9.7932   -0.8932 C.3       2 RES2    0.0000
     66 H24        4.5833    9.6350   -0.1526 H         2 RES2    0.0000
     67 H25        3.2456    9.1251   -0.8666 H         2 RES2    0.0000
     68 H26        3.5765   10.6899   -0.8111 H         2 RES2    0.0000
     69 H27        1.7653   12.8503    4.6209 H         1 RES1    0.0000
     70 H28       -0.9920   11.5294    1.7075 H         1 RES1    0.0000
     71 H29        6.8687    7.7361   -1.5261 H         2 RES2    0.0000
     72 H30        4.2428    8.6152   -4.6529 H         2 RES2    0.0000
@<TRIPOS>BOND
     1    1   17 1
     2    2   20 1
     3    3    7 2
     4    4    7 2
     5    5    8 ar
     6    6   22 ar
     7    7   19 1
     8    8    9 1
     9   10    8 ar
    10   11   10 1
    11   12   10 ar
    12   13   12 1
    13   14   12 ar
    14   15   14 1
    15   16    5 ar
    16   17   16 1
    17   18   17 1
    18   19   17 1
    19   20   19 1
    20   21   20 1
    21   22   20 1
    22   23   22 ar
    23   24   23 1
    24   25   23 ar
    25   26   25 1
    26   27   25 ar
    27   28   27 1
    28   29    6 ar
    29   30   29 1
    30   31   19 1
    31   32   31 1
    32   33   31 1
    33   34   31 1
    34   35   51 1
    35   36   54 1
    36   37   41 2
    37   38   41 2
    38   39   42 ar
    39   40   56 ar
    40   41   53 1
    41   42   43 1
    42   44   42 ar
    43   45   44 1
    44   46   44 ar
    45   47   46 1
    46   48   46 ar
    47   49   48 1
    48   50   39 ar
    49   51   50 1
    50   52   51 1
    51   53   51 1
    52   54   53 1
    53   55   54 1
    54   56   54 1
    55   57   56 ar
    56   58   57 1
    57   59   57 ar
    58   60   59 1
    59   61   59 ar
    60   62   61 1
    61   63   40 ar
    62   64   63 1
    63   65   53 1
    64   66   65 1
    65   67   65 1
    66   68   65 1
    67   69    2 1
    68   70    1 1
    69   71   35 1
    70   72   36 1
    71   14   16 ar
    72   27   29 ar
    73   48   50 ar
    74   61   63 ar
@<TRIPOS>SUBSTRUCTURE
     1 RES1 1
     2 RES2 35

@<TRIPOS>CRYSIN
  11.8218   21.9776   11.7001  90.0000 114.2010  90.0000  14 1

