# MOL2 file generated by ConQuest
# Please check atom types

@<TRIPOS>MOLECULE
ITAYOT
    70    74     2
SMALL
NO_CHARGES
****
Generated from CSD

@<TRIPOS>ATOM
      1 N1        -1.6197    0.9269   -6.6306 N.pl3     1 RES1    0.0000
      2 O1         0.7604    2.1843    3.9363 O.3       1 RES1    0.0000
      3 O2         0.8290    1.3410   -0.7887 O.3       1 RES1    0.0000
      4 O3        -0.4604    1.8098    1.5036 O.2       1 RES1    0.0000
      5 O4         2.7093    0.8580   -1.9068 O.2       1 RES1    0.0000
      6 O5        -2.8138    1.1316   -6.5529 O.2       1 RES1    0.0000
      7 O6        -1.0405    0.6893   -7.6730 O.2       1 RES1    0.0000
      8 C1         1.6804    2.3771    4.9344 C.ar      1 RES1    0.0000
      9 C2         1.3998    2.5552    6.2698 C.ar      1 RES1    0.0000
     10 H1         0.5283    2.5565    6.5936 H         1 RES1    0.0000
     11 C3         2.4823    2.7316    7.0942 C.ar      1 RES1    0.0000
     12 H2         2.3375    2.8573    8.0037 H         1 RES1    0.0000
     13 C4         3.7870    2.7278    6.6169 C.ar      1 RES1    0.0000
     14 H3         4.4929    2.8532    7.2077 H         1 RES1    0.0000
     15 C5         4.0456    2.5421    5.2835 C.ar      1 RES1    0.0000
     16 H4         4.9184    2.5401    4.9631 H         1 RES1    0.0000
     17 C6         2.9648    2.3552    4.4221 C.ar      1 RES1    0.0000
     18 C7         2.8198    2.1319    3.0254 C.2       1 RES1    0.0000
     19 H5         3.5056    2.0687    2.3998 H         1 RES1    0.0000
     20 C8         1.5055    2.0307    2.7836 C.2       1 RES1    0.0000
     21 C9         0.7493    1.7668    1.5572 C.2       1 RES1    0.0000
     22 C10        1.6192    1.3773    0.4019 C.3       1 RES1    0.0000
     23 H6         2.3387    2.0185    0.3004 H         1 RES1    0.0000
     24 H7         2.0098    0.5048    0.5641 H         1 RES1    0.0000
     25 C11        1.5250    1.0532   -1.8970 C.2       1 RES1    0.0000
     26 C12        0.6657    1.0274   -3.1015 C.ar      1 RES1    0.0000
     27 C13        1.2490    0.6467   -4.2966 C.ar      1 RES1    0.0000
     28 H8         2.1493    0.4140   -4.3173 H         1 RES1    0.0000
     29 C14        0.5048    0.6086   -5.4593 C.ar      1 RES1    0.0000
     30 H9         0.8941    0.3603   -6.2665 H         1 RES1    0.0000
     31 C15       -0.8225    0.9467   -5.3937 C.ar      1 RES1    0.0000
     32 C16       -1.4403    1.3212   -4.2188 C.ar      1 RES1    0.0000
     33 H10       -2.3428    1.5450   -4.2038 H         1 RES1    0.0000
     34 C17       -0.6825    1.3555   -3.0698 C.ar      1 RES1    0.0000
     35 H11       -1.0780    1.5995   -2.2646 H         1 RES1    0.0000
     36 N2         9.0925   11.0588   14.3061 N.pl3     2 RES2    0.0000
     37 O7         6.7118    8.8512    3.9007 O.3       2 RES2    0.0000
     38 O8         6.6218    9.6412    8.6307 O.3       2 RES2    0.0000
     39 O9         7.9187    9.2456    6.3407 O.2       2 RES2    0.0000
     40 O10        4.7461    9.5436    9.8496 O.2       2 RES2    0.0000
     41 O11        8.5151   11.1599   15.3725 O.2       2 RES2    0.0000
     42 O12       10.2923   11.1999   14.1753 O.2       2 RES2    0.0000
     43 C18        5.7939    8.7051    2.8986 C.ar      2 RES2    0.0000
     44 C19        6.0814    8.5029    1.5687 C.ar      2 RES2    0.0000
     45 H12        6.9564    8.4464    1.2600 H         2 RES2    0.0000
     46 C20        5.0028    8.3898    0.7226 C.ar      2 RES2    0.0000
     47 H13        5.1538    8.2578   -0.1852 H         2 RES2    0.0000
     48 C21        3.6940    8.4674    1.1865 C.ar      2 RES2    0.0000
     49 H14        2.9906    8.3719    0.5858 H         2 RES2    0.0000
     50 C22        3.4258    8.6804    2.5033 C.ar      2 RES2    0.0000
     51 H15        2.5497    8.7518    2.8070 H         2 RES2    0.0000
     52 C23        4.5051    8.7919    3.3919 C.ar      2 RES2    0.0000
     53 C24        4.6439    9.0002    4.7927 C.2       2 RES2    0.0000
     54 H16        3.9567    9.1014    5.4104 H         2 RES2    0.0000
     55 C25        5.9638    9.0219    5.0467 C.2       2 RES2    0.0000
     56 C26        6.7110    9.2007    6.2897 C.2       2 RES2    0.0000
     57 C27        5.8298    9.2645    7.5007 C.3       2 RES2    0.0000
     58 H17        5.1231    9.9147    7.3612 H         2 RES2    0.0000
     59 H18        5.4207    8.3991    7.6583 H         2 RES2    0.0000
     60 C28        5.9316    9.7380    9.7739 C.2       2 RES2    0.0000
     61 C29        6.7941   10.1037   10.9215 C.ar      2 RES2    0.0000
     62 C30        6.2024   10.1416   12.1790 C.ar      2 RES2    0.0000
     63 H19        5.2987    9.9451   12.2726 H         2 RES2    0.0000
     64 C31        6.9530   10.4677   13.2818 C.ar      2 RES2    0.0000
     65 H20        6.5624   10.5066   14.1250 H         2 RES2    0.0000
     66 C32        8.2861   10.7347   13.1192 C.ar      2 RES2    0.0000
     67 C33        8.8968   10.7019   11.8901 C.ar      2 RES2    0.0000
     68 H21        9.8030   10.8923   11.8070 H         2 RES2    0.0000
     69 C34        8.1462   10.3847   10.7855 C.ar      2 RES2    0.0000
     70 H22        8.5443   10.3581    9.9446 H         2 RES2    0.0000
@<TRIPOS>BOND
     1    1    6 2
     2    2    8 1
     3    3   22 1
     4    4   21 2
     5    5   25 2
     6    7    1 2
     7    8    9 ar
     8    9   10 1
     9   11    9 ar
    10   12   11 1
    11   13   11 ar
    12   14   13 1
    13   15   13 ar
    14   16   15 1
    15   17    8 ar
    16   18   17 1
    17   19   18 1
    18   20    2 1
    19   21   20 1
    20   22   21 1
    21   23   22 1
    22   24   22 1
    23   25    3 1
    24   26   25 1
    25   27   26 ar
    26   28   27 1
    27   29   27 ar
    28   30   29 1
    29   31    1 1
    30   32   31 ar
    31   33   32 1
    32   34   26 ar
    33   35   34 1
    34   36   41 2
    35   37   43 1
    36   38   57 1
    37   39   56 2
    38   40   60 2
    39   42   36 2
    40   43   44 ar
    41   44   45 1
    42   46   44 ar
    43   47   46 1
    44   48   46 ar
    45   49   48 1
    46   50   48 ar
    47   51   50 1
    48   52   43 ar
    49   53   52 1
    50   54   53 1
    51   55   37 1
    52   56   55 1
    53   57   56 1
    54   58   57 1
    55   59   57 1
    56   60   38 1
    57   61   60 1
    58   62   61 ar
    59   63   62 1
    60   64   62 ar
    61   65   64 1
    62   66   36 1
    63   67   66 ar
    64   68   67 1
    65   69   61 ar
    66   70   69 1
    67   15   17 ar
    68   18   20 2
    69   29   31 ar
    70   32   34 ar
    71   50   52 ar
    72   53   55 2
    73   64   66 ar
    74   67   69 ar
@<TRIPOS>SUBSTRUCTURE
     1 RES1 1
     2 RES2 36

@<TRIPOS>CRYSIN
   6.5424   13.1970   16.9730  79.6940  87.2110  85.7150   2 1

