# MOL2 file generated by ConQuest
# Please check atom types

@<TRIPOS>MOLECULE
ITECIV
    44    45     1
SMALL
NO_CHARGES
****
Generated from CSD

@<TRIPOS>ATOM
      1 N1         2.7133    4.8101   12.2183 N.am      1 RES1    0.0000
      2 O1         1.5076    6.6596   11.8428 O.2       1 RES1    0.0000
      3 O2         3.7709    5.5998   12.6650 O.3       1 RES1    0.0000
      4 C1         1.6390    5.4534   11.7781 C.2       1 RES1    0.0000
      5 C2         0.5660    4.5726   11.2220 C.ar      1 RES1    0.0000
      6 C3        -0.1430    3.7446   12.0863 C.ar      1 RES1    0.0000
      7 H1         0.1121    3.6828   12.9780 H         1 RES1    0.0000
      8 C4        -1.2205    3.0142   11.6327 C.ar      1 RES1    0.0000
      9 H2        -1.6999    2.4758   12.2199 H         1 RES1    0.0000
     10 C5        -1.5837    3.0858   10.3090 C.ar      1 RES1    0.0000
     11 H3        -2.3022    2.5864    9.9961 H         1 RES1    0.0000
     12 C6        -0.8844    3.8967    9.4474 C.ar      1 RES1    0.0000
     13 H4        -1.1402    3.9398    8.5545 H         1 RES1    0.0000
     14 C7         0.1941    4.6531    9.8807 C.ar      1 RES1    0.0000
     15 C8         0.9607    5.4966    8.9079 C.2       1 RES1    0.0000
     16 C9         2.2213    5.2013    8.6856 C.2       1 RES1    0.0000
     17 C10        3.4667    4.8898    8.4980 C.2       1 RES1    0.0000
     18 C11        4.5570    5.4827    9.3439 C.3       1 RES1    0.0000
     19 H5         4.1771    6.1114    9.9612 H         1 RES1    0.0000
     20 H6         5.1913    5.9317    8.7795 H         1 RES1    0.0000
     21 H7         5.0007    4.7841    9.8301 H         1 RES1    0.0000
     22 C12        3.8959    3.9195    7.4390 C.3       1 RES1    0.0000
     23 H8         4.5814    4.3416    6.8999 H         1 RES1    0.0000
     24 H9         4.3010    3.1533    7.8758 H         1 RES1    0.0000
     25 C13        2.8576    3.4396    6.5570 C.3       1 RES1    0.0000
     26 H10        2.5282    4.1676    6.0251 H         1 RES1    0.0000
     27 H11        2.1395    3.0728    7.0780 H         1 RES1    0.0000
     28 H12        3.2152    2.7597    5.9818 H         1 RES1    0.0000
     29 C14        0.2826    6.6360    8.2439 C.ar      1 RES1    0.0000
     30 C15       -0.9906    7.0313    8.6039 C.ar      1 RES1    0.0000
     31 H13       -1.4428    6.5669    9.2705 H         1 RES1    0.0000
     32 C16       -1.6010    8.1074    7.9890 C.ar      1 RES1    0.0000
     33 H14       -2.4587    8.3579    8.2429 H         1 RES1    0.0000
     34 C17       -0.9507    8.8085    7.0046 C.ar      1 RES1    0.0000
     35 H15       -1.3634    9.5356    6.5967 H         1 RES1    0.0000
     36 C18        0.2964    8.4335    6.6328 C.ar      1 RES1    0.0000
     37 H16        0.7413    8.9044    5.9649 H         1 RES1    0.0000
     38 C19        0.9118    7.3575    7.2371 C.ar      1 RES1    0.0000
     39 H17        1.7665    7.1094    6.9649 H         1 RES1    0.0000
     40 C20        4.0441    5.3298   14.0129 C.3       1 RES1    0.0000
     41 H18        4.2254    4.3928   14.1212 H         1 RES1    0.0000
     42 H19        3.2842    5.5722   14.5483 H         1 RES1    0.0000
     43 H20        4.8087    5.8382   14.2920 H         1 RES1    0.0000
     44 H21        2.9922    3.9203   11.9491 H         1 RES1    0.0000
@<TRIPOS>BOND
     1    1    3 1
     2    2    4 2
     3    3   40 1
     4    4    1 1
     5    5    4 1
     6    6    5 ar
     7    7    6 1
     8    8    6 ar
     9    9    8 1
    10   10    8 ar
    11   11   10 1
    12   12   10 ar
    13   13   12 1
    14   14    5 ar
    15   15   14 1
    16   16   15 2
    17   17   16 2
    18   18   17 1
    19   19   18 1
    20   20   18 1
    21   21   18 1
    22   22   17 1
    23   23   22 1
    24   24   22 1
    25   25   22 1
    26   26   25 1
    27   27   25 1
    28   28   25 1
    29   29   15 1
    30   30   29 ar
    31   31   30 1
    32   32   30 ar
    33   33   32 1
    34   34   32 ar
    35   35   34 1
    36   36   34 ar
    37   37   36 1
    38   38   29 ar
    39   39   38 1
    40   40   41 1
    41   42   40 1
    42   43   40 1
    43   44    1 1
    44   12   14 ar
    45   36   38 ar
@<TRIPOS>SUBSTRUCTURE
     1 RES1 1

@<TRIPOS>CRYSIN
   9.2428    8.1334   12.1422  90.0000  97.6770  90.0000   4 1

