# MOL2 file generated by ConQuest
# Please check atom types

@<TRIPOS>MOLECULE
ITEMAX
    58    60     1
SMALL
USER_CHARGES
****
Generated from CSD

@<TRIPOS>ATOM
      1 N1        15.8814    1.8426    0.3491 N.pl3     1 RES1    0.0000
      2 H1        15.9093    2.2760   -0.4162 H         1 RES1    0.0000
      3 O1        17.3621    2.8376   -1.5410 O.2       1 RES1    0.0000
      4 O2        19.5052    2.8630   -1.3468 O.2       1 RES1    0.0000
      5 C1        18.3924    0.2268    2.5641 C.2       1 RES1    0.0000
      6 O3        10.7196    4.3857   -2.2127 O.3       1 RES1    0.0000
      7 N2        20.8811    0.1219    2.3954 N.pl3     1 RES1    0.0000
      8 C2        19.5995    0.6124    1.9445 C.2       1 RES1    0.0000
      9 N3        18.3990    2.5346   -0.9144 N.pl3     1 RES1    0.0000
     10 O4        18.7604   -0.8424    4.6612 O.2       1 RES1   -1.0000
     11 O5        16.6612   -0.4588    3.8046 O.3       1 RES1    0.0000
     12 O6        20.9141   -0.9452    2.9942 O.2       1 RES1    0.0000
     13 N4        16.1367    0.2013    2.7433 N.2       1 RES1    0.0000
     14 N5        18.1318   -0.3878    3.7063 N.pl3     1 RES1    1.0000
     15 C3        19.5199    1.3764    0.8462 C.2       1 RES1    0.0000
     16 H2        20.3295    1.6636    0.4370 H         1 RES1    0.0000
     17 C4        14.5408    1.6615    0.9260 C.3       1 RES1    0.0000
     18 H3        14.5207    2.0175    1.8497 H         1 RES1    0.0000
     19 H4        14.3146    0.6983    0.9572 H         1 RES1    0.0000
     20 C5        13.5709    3.7658   -0.0555 C.ar      1 RES1    0.0000
     21 H5        14.2505    4.2554    0.3942 H         1 RES1    0.0000
     22 C6        18.2990    1.7759    0.2659 C.2       1 RES1    0.0000
     23 C7        13.5481    2.3936    0.0751 C.ar      1 RES1    0.0000
     24 C8        17.1442    0.6230    2.0069 C.2       1 RES1    0.0000
     25 O7        21.8670    0.7852    2.0948 O.2       1 RES1    0.0000
     26 C9        17.0526    1.4453    0.8185 C.2       1 RES1    0.0000
     27 C10       11.5932    2.2930   -1.3803 C.ar      1 RES1    0.0000
     28 C11       12.5557    1.6773   -0.5977 C.ar      1 RES1    0.0000
     29 H6        12.5406    0.7311   -0.5156 H         1 RES1    0.0000
     30 C12       12.6451    6.0069   -0.9156 C.3       1 RES1    0.0000
     31 C13       11.6571    3.6842   -1.4670 C.ar      1 RES1    0.0000
     32 C14       12.6371    4.4652   -0.8208 C.ar      1 RES1    0.0000
     33 C15       13.7788    6.6077   -0.0671 C.3       1 RES1    0.0000
     34 H7        13.6628    6.3385    0.8694 H         1 RES1    0.0000
     35 H8        13.7522    7.5846   -0.1306 H         1 RES1    0.0000
     36 H9        14.6420    6.2813   -0.3965 H         1 RES1    0.0000
     37 C16       10.5053    1.4665   -2.0948 C.3       1 RES1    0.0000
     38 C17        9.1322    1.8289   -1.5133 C.3       1 RES1    0.0000
     39 H10        9.1351    1.6689   -0.5468 H         1 RES1    0.0000
     40 H11        8.4432    1.2736   -1.9341 H         1 RES1    0.0000
     41 H12        8.9438    2.7740   -1.6879 H         1 RES1    0.0000
     42 C18       12.8592    6.4752   -2.3491 C.3       1 RES1    0.0000
     43 H13       13.7079    6.1160   -2.6867 H         1 RES1    0.0000
     44 H14       12.8883    7.4543   -2.3722 H         1 RES1    0.0000
     45 H15       12.1226    6.1563   -2.9110 H         1 RES1    0.0000
     46 C19       10.7077   -0.0275   -1.8589 C.3       1 RES1    0.0000
     47 H16       11.5818   -0.2988   -2.2081 H         1 RES1    0.0000
     48 H17       10.0010   -0.5298   -2.3179 H         1 RES1    0.0000
     49 H18       10.6673   -0.2151   -0.8971 H         1 RES1    0.0000
     50 C20       11.3371    6.6013   -0.3491 C.3       1 RES1    0.0000
     51 H19       10.5748    6.2654   -0.8647 H         1 RES1    0.0000
     52 H20       11.3683    7.5783   -0.4104 H         1 RES1    0.0000
     53 H21       11.2391    6.3364    0.5896 H         1 RES1    0.0000
     54 C21       10.5357    1.6954   -3.6034 C.3       1 RES1    0.0000
     55 H22       10.3022    2.6278   -3.7965 H         1 RES1    0.0000
     56 H23        9.8902    1.0999   -4.0370 H         1 RES1    0.0000
     57 H24       11.4350    1.5068   -3.9433 H         1 RES1    0.0000
     58 H25       10.2531    3.8781   -2.6474 H         1 RES1    0.0000
@<TRIPOS>BOND
     1    1    2 1
     2    3    9 2
     3    4    9 2
     4    5    8 1
     5    6   31 1
     6    7    8 1
     7    8   15 2
     8    9   22 1
     9   10   14 1
    10   11   13 1
    11   12    7 2
    12   13   24 2
    13   14    5 2
    14   15   16 1
    15   17    1 1
    16   18   17 1
    17   19   17 1
    18   20   21 1
    19   22   15 1
    20   23   17 1
    21   24    5 1
    22   25    7 2
    23   26    1 1
    24   27   28 ar
    25   28   23 ar
    26   29   28 1
    27   30   32 1
    28   31   27 ar
    29   32   20 ar
    30   33   30 1
    31   34   33 1
    32   35   33 1
    33   36   33 1
    34   37   27 1
    35   38   37 1
    36   39   38 1
    37   40   38 1
    38   41   38 1
    39   42   30 1
    40   43   42 1
    41   44   42 1
    42   45   42 1
    43   46   37 1
    44   47   46 1
    45   48   46 1
    46   49   46 1
    47   50   30 1
    48   51   50 1
    49   52   50 1
    50   53   50 1
    51   54   37 1
    52   55   54 1
    53   56   54 1
    54   57   54 1
    55   58    6 1
    56   11   14 1
    57   20   23 ar
    58   22   26 2
    59   24   26 1
    60   31   32 ar
@<TRIPOS>SUBSTRUCTURE
     1 RES1 1

@<TRIPOS>CRYSIN
  18.0770   10.5960   11.5610  90.0000  90.4660  90.0000  14 1

