# MOL2 file generated by ConQuest
# Please check atom types

@<TRIPOS>MOLECULE
ITEPOM
   188   200     4
SMALL
NO_CHARGES
****
Generated from CSD

@<TRIPOS>ATOM
      1 C1         4.9854   11.8155   -1.5180 C.ar      1 RES1    0.0000
      2 C2         4.9042   12.4843   -0.3327 C.ar      1 RES1    0.0000
      3 H1         4.1711   13.0276   -0.1552 H         1 RES1    0.0000
      4 C3         5.9327   12.3510    0.6234 C.ar      1 RES1    0.0000
      5 C4         5.7382   13.2053    1.8492 C.2       1 RES1    0.0000
      6 C5         7.6289   12.2466    3.3155 C.3       1 RES1    0.0000
      7 H2         8.4707   12.7089    3.1240 H         1 RES1    0.0000
      8 C6         7.5428   11.9932    4.8237 C.3       1 RES1    0.0000
      9 H3         6.6406   11.6954    5.0627 H         1 RES1    0.0000
     10 C7         8.2621    9.7727    4.5735 C.3       1 RES1    0.0000
     11 H4         7.3225    9.5271    4.7007 H         1 RES1    0.0000
     12 C8         9.1388    8.6651    5.1284 C.3       1 RES1    0.0000
     13 H5        10.0743    8.9080    5.0487 H         1 RES1    0.0000
     14 H6         8.9373    8.5162    6.0649 H         1 RES1    0.0000
     15 C9         9.0807    7.5940    2.9660 C.3       1 RES1    0.0000
     16 C10        8.5285    9.9294    3.1002 C.3       1 RES1    0.0000
     17 H7         9.4562   10.2116    2.9604 H         1 RES1    0.0000
     18 C11        7.5941   10.9535    2.5229 C.3       1 RES1    0.0000
     19 H8         6.6817   10.5956    2.5257 H         1 RES1    0.0000
     20 C12        6.9796   11.4994    0.3145 C.ar      1 RES1    0.0000
     21 C13        7.0808   10.8803   -0.9463 C.ar      1 RES1    0.0000
     22 H9         7.8279   10.3683   -1.1545 H         1 RES1    0.0000
     23 C14        6.0761   11.0344   -1.8660 C.ar      1 RES1    0.0000
     24 H10        6.1240   10.6243   -2.6991 H         1 RES1    0.0000
     25 C15        7.4334   13.2079    6.8350 C.3       1 RES1    0.0000
     26 H11        7.5747   14.0856    7.2012 H         1 RES1    0.0000
     27 H12        7.9607   12.5705    7.3228 H         1 RES1    0.0000
     28 H13        6.5042   12.9832    6.9063 H         1 RES1    0.0000
     29 C16       10.5453    7.7508    2.6362 C.3       1 RES1    0.0000
     30 H14       10.8869    8.5423    3.0611 H         1 RES1    0.0000
     31 H15       10.6521    7.8370    1.6843 H         1 RES1    0.0000
     32 H16       11.0284    6.9853    2.9493 H         1 RES1    0.0000
     33 C17        8.4897    6.3532    2.3482 C.3       1 RES1    0.0000
     34 H17        8.5096    6.4289    1.3922 H         1 RES1    0.0000
     35 H18        7.5813    6.2513    2.6418 H         1 RES1    0.0000
     36 H19        9.0045    5.5851    2.6138 H         1 RES1    0.0000
     37 N1         6.5261   13.1191    2.9535 N.am      1 RES1    0.0000
     38 H20        6.3329   13.6990    3.5601 H         1 RES1    0.0000
     39 N2         3.8458   11.8834   -2.4433 N.pl3     1 RES1    0.0000
     40 O1         8.5075   11.0133    5.2318 O.3       1 RES1    0.0000
     41 O2         8.8730    7.4744    4.3722 O.3       1 RES1    0.0000
     42 O3         8.2975    8.6831    2.4391 O.3       1 RES1    0.0000
     43 O4         8.0021   11.1998    1.1671 O.3       1 RES1    0.0000
     44 O5         2.8772   12.5679   -2.1162 O.2       1 RES1    0.0000
     45 O6         3.9065   11.2278   -3.4902 O.2       1 RES1    0.0000
     46 O7         4.8211   14.0417    1.8353 O.2       1 RES1    0.0000
     47 O8         7.8267   13.1974    5.4485 O.3       1 RES1    0.0000
     48 C18        0.1659   15.5067    8.9764 C.ar      2 RES2    0.0000
     49 C19        0.1585   15.5538    7.5842 C.ar      2 RES2    0.0000
     50 H21       -0.1704   16.3035    7.1425 H         2 RES2    0.0000
     51 C20        0.6532   14.4592    6.8490 C.ar      2 RES2    0.0000
     52 C21        0.4997   14.6447    5.3548 C.2       2 RES2    0.0000
     53 C22        1.3395   12.3354    4.6475 C.3       2 RES2    0.0000
     54 H22        0.5661   11.7528    4.7985 H         2 RES2    0.0000
     55 C23        2.0155   11.9331    3.3406 C.3       2 RES2    0.0000
     56 H23        2.6971   12.5888    3.0862 H         2 RES2    0.0000
     57 C24        3.5974   10.5956    4.4295 C.3       2 RES2    0.0000
     58 H24        4.2713   11.2826    4.2464 H         2 RES2    0.0000
     59 C25        4.2376    9.2319    4.4323 C.3       2 RES2    0.0000
     60 H25        3.5565    8.5449    4.5245 H         2 RES2    0.0000
     61 H26        4.7069    9.0830    3.5964 H         2 RES2    0.0000
     62 C26        4.6059    9.4749    6.8155 C.3       2 RES2    0.0000
     63 C27        2.9605   10.8385    5.7741 C.3       2 RES2    0.0000
     64 H27        2.2860   10.1463    5.9391 H         2 RES2    0.0000
     65 C28        2.3028   12.1917    5.8258 C.3       2 RES2    0.0000
     66 H28        2.9760   12.9049    5.8119 H         2 RES2    0.0000
     67 C29        1.1291   13.3699    7.5814 C.ar      2 RES2    0.0000
     68 C30        1.1335   13.3699    8.9736 C.ar      2 RES2    0.0000
     69 H29        1.4590   12.6253    9.4265 H         2 RES2    0.0000
     70 C31        0.6710   14.4357    9.6837 C.ar      2 RES2    0.0000
     71 H30        0.6957   14.4383   10.6132 H         2 RES2    0.0000
     72 C32        1.4676   11.9122    1.0315 C.3       2 RES2    0.0000
     73 H31        1.7720   12.7978    0.8149 H         2 RES2    0.0000
     74 H32        0.7534   11.6771    0.4403 H         2 RES2    0.0000
     75 H33        2.1888   11.2931    0.9337 H         2 RES2    0.0000
     76 C33        3.6834    8.3751    7.2795 C.3       2 RES2    0.0000
     77 H34        4.1741    7.5522    7.3382 H         2 RES2    0.0000
     78 H35        2.9638    8.2732    6.6533 H         2 RES2    0.0000
     79 H36        3.3201    8.6024    8.1349 H         2 RES2    0.0000
     80 C34        5.7977    9.6238    7.7352 C.3       2 RES2    0.0000
     81 H37        6.2416    8.7748    7.8274 H         2 RES2    0.0000
     82 H38        5.5017    9.9268    8.5976 H         2 RES2    0.0000
     83 H39        6.4051   10.2638    7.3662 H         2 RES2    0.0000
     84 N3         0.8710   13.7095    4.4630 N.am      2 RES2    0.0000
     85 H40        0.8266   13.9629    3.6426 H         2 RES2    0.0000
     86 N4        -0.4236   16.6588    9.6934 N.pl3     2 RES2    0.0000
     87 O9         2.5833   10.6251    3.4245 O.3       2 RES2    0.0000
     88 O10        5.1626    9.1591    5.5351 O.3       2 RES2    0.0000
     89 O11        3.9736   10.7539    6.7763 O.3       2 RES2    0.0000
     90 O12        1.5791   12.2021    7.0671 O.3       2 RES2    0.0000
     91 O13       -0.9188   17.5679    9.0491 O.2       2 RES2    0.0000
     92 O14       -0.3880   16.6379   10.9207 O.2       2 RES2    0.0000
     93 O15        0.0281   15.7162    4.9369 O.2       2 RES2    0.0000
     94 O16        0.9962   11.8853    2.3860 O.3       2 RES2    0.0000
     95 C35        8.5681   13.8009   -1.8450 C.ar      3 RES3    0.0000
     96 C36        9.0678   14.1013   -0.6080 C.ar      3 RES3    0.0000
     97 H41        9.7639   13.5893   -0.2614 H         3 RES3    0.0000
     98 C37        8.5469   15.1671    0.1538 C.ar      3 RES3    0.0000
     99 C38        9.1479   15.2873    1.5305 C.2       3 RES3    0.0000
    100 C39        7.3775   16.8416    2.4628 C.3       3 RES3    0.0000
    101 H42        6.5686   16.2878    2.4601 H         3 RES3    0.0000
    102 C40        7.4069   17.6802    3.7418 C.3       3 RES3    0.0000
    103 H43        8.2978   18.0642    3.8760 H         3 RES3    0.0000
    104 C41        6.7083   19.6290    2.6194 C.3       3 RES3    0.0000
    105 H44        7.6376   19.9346    2.6851 H         3 RES3    0.0000
    106 C42        5.7729   20.8097    2.6487 C.3       3 RES3    0.0000
    107 H45        4.8533   20.4989    2.6543 H         3 RES3    0.0000
    108 H46        5.9230   21.3296    3.4525 H         3 RES3    0.0000
    109 C43        5.9021   20.9377    0.2432 C.3       3 RES3    0.0000
    110 C44        6.4973   18.8818    1.3223 C.3       3 RES3    0.0000
    111 H47        5.5639   18.5867    1.2608 H         3 RES3    0.0000
    112 C45        7.4021   17.7011    1.1993 C.3       3 RES3    0.0000
    113 H48        8.3175   17.9963    1.0120 H         3 RES3    0.0000
    114 C46        7.5125   15.8960   -0.4375 C.ar      3 RES3    0.0000
    115 C47        7.0029   15.5642   -1.6871 C.ar      3 RES3    0.0000
    116 H49        6.2978   16.0553   -2.0407 H         3 RES3    0.0000
    117 C48        7.5259   14.5140   -2.4069 C.ar      3 RES3    0.0000
    118 H50        7.1893   14.2920   -3.2456 H         3 RES3    0.0000
    119 C49        7.3405   17.4216    6.0760 C.3       3 RES3    0.0000
    120 H51        7.2265   16.7502    6.7540 H         3 RES3    0.0000
    121 H52        6.7163   18.1373    6.2312 H         3 RES3    0.0000
    122 H53        8.2327   17.7638    6.1054 H         3 RES3    0.0000
    123 C50        4.5121   20.5668   -0.1733 C.3       3 RES3    0.0000
    124 H54        4.5454   20.0600   -0.9924 H         3 RES3    0.0000
    125 H55        3.9955   21.3636   -0.3075 H         3 RES3    0.0000
    126 H56        4.1023   20.0365    0.5158 H         3 RES3    0.0000
    127 C51        6.5501   21.9043   -0.7170 C.3       3 RES3    0.0000
    128 H57        6.6110   21.5020   -1.5865 H         3 RES3    0.0000
    129 H58        7.4341   22.1237   -0.4053 H         3 RES3    0.0000
    130 H59        6.0204   22.7037   -0.7688 H         3 RES3    0.0000
    131 N5         8.5587   15.9704    2.5174 N.am      3 RES3    0.0000
    132 H60        8.9222   15.8879    3.2917 H         3 RES3    0.0000
    133 N6         9.1183   12.6724   -2.5914 N.pl3     3 RES3    0.0000
    134 O17        6.4139   18.7230    3.6887 O.3       3 RES3    0.0000
    135 O18        6.0067   21.6149    1.4942 O.3       3 RES3    0.0000
    136 O19        6.7814   19.7922    0.2600 O.3       3 RES3    0.0000
    137 O20        6.8783   16.9858    0.0825 O.3       3 RES3    0.0000
    138 O21       10.0121   12.0141   -2.0715 O.2       3 RES3    0.0000
    139 O22        8.6557   12.4268   -3.7013 O.2       3 RES3    0.0000
    140 O23       10.1898   14.6475    1.7752 O.2       3 RES3    0.0000
    141 O24        7.0896   16.8408    4.7817 O.3       3 RES3    0.0000
    142 C52        3.8227   16.0161    8.6283 C.ar      4 RES4    0.0000
    143 C53        4.0206   15.4832    7.3871 C.ar      4 RES4    0.0000
    144 H61        4.2967   14.6003    7.2963 H         4 RES4    0.0000
    145 C54        3.8041   16.2774    6.2508 C.ar      4 RES4    0.0000
    146 C55        4.1169   15.5511    4.9481 C.2       4 RES4    0.0000
    147 C56        3.3161   17.3589    3.3099 C.3       4 RES4    0.0000
    148 H62        4.0853   17.9466    3.1645 H         4 RES4    0.0000
    149 C57        2.6172   17.1368    1.9680 C.3       4 RES4    0.0000
    150 H63        1.9076   16.4655    2.0505 H         4 RES4    0.0000
    151 C58        1.1175   18.8975    2.3580 C.3       4 RES4    0.0000
    152 H64        0.4166   18.2288    2.5104 H         4 RES4    0.0000
    153 C59        0.5169   20.1436    1.7612 C.3       4 RES4    0.0000
    154 H65        1.2195   20.7706    1.5263 H         4 RES4    0.0000
    155 H66        0.0262   19.9189    0.9547 H         4 RES4    0.0000
    156 C60        0.2341   21.0318    3.9808 C.3       4 RES4    0.0000
    157 C61        1.7823   19.2502    3.6691 C.3       4 RES4    0.0000
    158 H67        2.4957   19.9007    3.5000 H         4 RES4    0.0000
    159 C62        2.3767   18.0250    4.3135 C.3       4 RES4    0.0000
    160 H68        1.6720   17.4059    4.5944 H         4 RES4    0.0000
    161 C63        3.3733   17.5914    6.4465 C.ar      4 RES4    0.0000
    162 C64        3.1999   18.1138    7.7352 C.ar      4 RES4    0.0000
    163 H69        2.9437   18.9994    7.8526 H         4 RES4    0.0000
    164 C65        3.4133   17.3014    8.8282 C.ar      4 RES4    0.0000
    165 H70        3.2809   17.6253    9.6906 H         4 RES4    0.0000
    166 C66        3.0953   16.1285   -0.1146 C.3       4 RES4    0.0000
    167 H71        3.8124   15.7000   -0.5871 H         4 RES4    0.0000
    168 H72        2.7147   16.8181   -0.6709 H         4 RES4    0.0000
    169 H73        2.4218   15.4911    0.0978 H         4 RES4    0.0000
    170 C67        1.2180   22.1708    3.8886 C.3       4 RES4    0.0000
    171 H74        1.5527   22.3771    4.7650 H         4 RES4    0.0000
    172 H75        0.7801   22.9440    3.5223 H         4 RES4    0.0000
    173 H76        1.9527   21.9174    3.3127 H         4 RES4    0.0000
    174 C68       -0.9321   21.3636    4.8838 C.3       4 RES4    0.0000
    175 H77       -0.6032   21.6300    5.7434 H         4 RES4    0.0000
    176 H78       -1.4895   20.5877    4.9760 H         4 RES4    0.0000
    177 H79       -1.4484   22.0767    4.5008 H         4 RES4    0.0000
    178 N7         3.8089   16.0553    3.7390 N.am      4 RES4    0.0000
    179 H80        3.9253   15.4989    3.0932 H         4 RES4    0.0000
    180 N8         4.0478   15.1384    9.7941 N.pl3     4 RES4    0.0000
    181 O25        2.0923   18.3787    1.4607 O.3       4 RES4    0.0000
    182 O26       -0.3631   20.7369    2.7172 O.3       4 RES4    0.0000
    183 O27        0.8183   19.8330    4.5329 O.3       4 RES4    0.0000
    184 O28        3.1210   18.4984    5.4485 O.3       4 RES4    0.0000
    185 O29        4.5670   14.0438    9.6222 O.2       4 RES4    0.0000
    186 O30        3.6924   15.5694   10.8941 O.2       4 RES4    0.0000
    187 O31        4.6490   14.4534    5.0291 O.2       4 RES4    0.0000
    188 O32        3.5997   16.7076    1.0972 O.3       4 RES4    0.0000
@<TRIPOS>BOND
     1    1    2 ar
     2    2    3 1
     3    4    2 ar
     4    5    4 1
     5    6    7 1
     6    8    6 1
     7    9    8 1
     8   10   11 1
     9   12   10 1
    10   13   12 1
    11   14   12 1
    12   15   29 1
    13   16   10 1
    14   17   16 1
    15   18    6 1
    16   19   18 1
    17   20    4 ar
    18   21   20 ar
    19   22   21 1
    20   23    1 ar
    21   24   23 1
    22   25   26 1
    23   27   25 1
    24   28   25 1
    25   29   30 1
    26   31   29 1
    27   32   29 1
    28   33   15 1
    29   34   33 1
    30   35   33 1
    31   36   33 1
    32   37    5 1
    33   38   37 1
    34   39    1 1
    35   40    8 1
    36   41   12 1
    37   42   15 1
    38   43   18 1
    39   44   39 2
    40   45   39 2
    41   46    5 2
    42   47    8 1
    43   48   49 ar
    44   49   50 1
    45   51   49 ar
    46   52   51 1
    47   53   54 1
    48   55   53 1
    49   56   55 1
    50   57   58 1
    51   59   57 1
    52   60   59 1
    53   61   59 1
    54   62   76 1
    55   63   57 1
    56   64   63 1
    57   65   53 1
    58   66   65 1
    59   67   51 ar
    60   68   67 ar
    61   69   68 1
    62   70   48 ar
    63   71   70 1
    64   72   73 1
    65   74   72 1
    66   75   72 1
    67   76   77 1
    68   78   76 1
    69   79   76 1
    70   80   62 1
    71   81   80 1
    72   82   80 1
    73   83   80 1
    74   84   52 1
    75   85   84 1
    76   86   48 1
    77   87   55 1
    78   88   59 1
    79   89   62 1
    80   90   65 1
    81   91   86 2
    82   92   86 2
    83   93   52 2
    84   94   55 1
    85   95   96 ar
    86   96   97 1
    87   98   96 ar
    88   99   98 1
    89  100  101 1
    90  102  100 1
    91  103  102 1
    92  104  105 1
    93  106  104 1
    94  107  106 1
    95  108  106 1
    96  109  123 1
    97  110  104 1
    98  111  110 1
    99  112  100 1
   100  113  112 1
   101  114   98 ar
   102  115  114 ar
   103  116  115 1
   104  117   95 ar
   105  118  117 1
   106  119  120 1
   107  121  119 1
   108  122  119 1
   109  123  124 1
   110  125  123 1
   111  126  123 1
   112  127  109 1
   113  128  127 1
   114  129  127 1
   115  130  127 1
   116  131   99 1
   117  132  131 1
   118  133   95 1
   119  134  102 1
   120  135  106 1
   121  136  109 1
   122  137  112 1
   123  138  133 2
   124  139  133 2
   125  140   99 2
   126  141  102 1
   127  142  143 ar
   128  143  144 1
   129  145  143 ar
   130  146  145 1
   131  147  148 1
   132  149  147 1
   133  150  149 1
   134  151  152 1
   135  153  151 1
   136  154  153 1
   137  155  153 1
   138  156  170 1
   139  157  151 1
   140  158  157 1
   141  159  147 1
   142  160  159 1
   143  161  145 ar
   144  162  161 ar
   145  163  162 1
   146  164  142 ar
   147  165  164 1
   148  166  167 1
   149  168  166 1
   150  169  166 1
   151  170  171 1
   152  172  170 1
   153  173  170 1
   154  174  156 1
   155  175  174 1
   156  176  174 1
   157  177  174 1
   158  178  146 1
   159  179  178 1
   160  180  142 1
   161  181  149 1
   162  182  153 1
   163  183  156 1
   164  184  159 1
   165  185  180 2
   166  186  180 2
   167  187  146 2
   168  188  149 1
   169    6   37 1
   170   10   40 1
   171   15   41 1
   172   16   42 1
   173   16   18 1
   174   20   43 1
   175   21   23 ar
   176   25   47 1
   177   53   84 1
   178   57   87 1
   179   62   88 1
   180   63   89 1
   181   63   65 1
   182   67   90 1
   183   68   70 ar
   184   72   94 1
   185  100  131 1
   186  104  134 1
   187  109  135 1
   188  110  136 1
   189  110  112 1
   190  114  137 1
   191  115  117 ar
   192  119  141 1
   193  147  178 1
   194  151  181 1
   195  156  182 1
   196  157  183 1
   197  157  159 1
   198  161  184 1
   199  162  164 ar
   200  166  188 1
@<TRIPOS>SUBSTRUCTURE
     1 RES1 1
     2 RES2 48
     3 RES3 95
     4 RES4 142

@<TRIPOS>CRYSIN
  10.2276   26.1232   13.9809  90.0000  91.2520  90.0000   4 1

