# MOL2 file generated by ConQuest
# Please check atom types

@<TRIPOS>MOLECULE
ITICAR
    34    35     1
SMALL
NO_CHARGES
****
Generated from CSD

@<TRIPOS>ATOM
      1 C1         4.7967    9.6959    1.7615 C.ar      1 RES1    0.0000
      2 C2         5.4051    8.4831    1.9672 C.ar      1 RES1    0.0000
      3 H1         5.8760    8.0469    1.2672 H         1 RES1    0.0000
      4 C3         5.3137    7.9131    3.2279 C.ar      1 RES1    0.0000
      5 H2         5.7017    7.0602    3.3879 H         1 RES1    0.0000
      6 C4         4.6600    8.5735    4.2601 C.ar      1 RES1    0.0000
      7 C5         4.0615    9.8016    4.0154 C.ar      1 RES1    0.0000
      8 H3         3.6106   10.2529    4.7194 H         1 RES1    0.0000
      9 C6         4.1153   10.3735    2.7581 C.ar      1 RES1    0.0000
     10 H4         3.6959   11.2069    2.5823 H         1 RES1    0.0000
     11 C7         4.6853    7.9610    5.6015 C.2       1 RES1    0.0000
     12 H5         4.8666    7.0301    5.6606 H         1 RES1    0.0000
     13 C8         4.5678    7.8182    7.9163 C.3       1 RES1    0.0000
     14 H6         5.2630    8.2103    8.5005 H         1 RES1    0.0000
     15 H7         4.8320    6.8868    7.7087 H         1 RES1    0.0000
     16 C9         3.2395    7.8144    8.6449 C.3       1 RES1    0.0000
     17 H8         2.9553    8.7483    8.8060 H         1 RES1    0.0000
     18 H9         2.5566    7.3833    8.0731 H         1 RES1    0.0000
     19 C10        3.3125    7.0840    9.9643 C.ar      1 RES1    0.0000
     20 C11        3.9632    7.6484   11.0591 C.ar      1 RES1    0.0000
     21 H10        4.3458    8.5145   10.9760 H         1 RES1    0.0000
     22 C12        4.0646    6.9782   12.2630 C.ar      1 RES1    0.0000
     23 H11        4.5094    7.3870   12.9966 H         1 RES1    0.0000
     24 C13        3.5184    5.7090   12.4067 C.ar      1 RES1    0.0000
     25 C14        2.8424    5.1421   11.3372 C.ar      1 RES1    0.0000
     26 H12        2.4414    4.2862   11.4294 H         1 RES1    0.0000
     27 C15        2.7525    5.8259   10.1304 C.ar      1 RES1    0.0000
     28 H13        2.2969    5.4212    9.4019 H         1 RES1    0.0000
     29 N1         4.8981   10.3235    0.4356 N.pl3     1 RES1    0.0000
     30 N2         4.4817    8.5890    6.6759 N.2       1 RES1    0.0000
     31 O1         4.2682   11.3464    0.2296 O.2       1 RES1    0.0000
     32 O2         5.6141    9.7884   -0.4024 O.2       1 RES1    0.0000
     33 O3         3.6790    5.0856   13.6121 O.3       1 RES1    0.0000
     34 H14        3.4800    4.1479   13.6035 H         1 RES1    0.0000
@<TRIPOS>BOND
     1    1    2 ar
     2    2    3 1
     3    4    2 ar
     4    5    4 1
     5    6    4 ar
     6    7    6 ar
     7    8    7 1
     8    9    1 ar
     9   10    9 1
    10   11    6 1
    11   12   11 1
    12   13   14 1
    13   15   13 1
    14   16   13 1
    15   17   16 1
    16   18   16 1
    17   19   16 1
    18   20   19 ar
    19   21   20 1
    20   22   20 ar
    21   23   22 1
    22   24   22 ar
    23   25   24 ar
    24   26   25 1
    25   27   19 ar
    26   28   27 1
    27   29    1 1
    28   30   11 2
    29   31   29 2
    30   32   29 2
    31   33   24 1
    32   34   33 1
    33    7    9 ar
    34   13   30 1
    35   25   27 ar
@<TRIPOS>SUBSTRUCTURE
     1 RES1 1

@<TRIPOS>CRYSIN
   7.6821   12.5694   13.6994  90.0000  90.0000  90.0000  19 1

