# MOL2 file generated by ConQuest
# Please check atom types

@<TRIPOS>MOLECULE
ITIFIA
   127   126     2
SMALL
NO_CHARGES
****
Generated from CSD

@<TRIPOS>ATOM
      1 C1         5.6360    4.3998    3.9192 C.ar      1 RES1    0.0000
      2 C2         4.4673    4.2627    4.6787 C.ar      1 RES1    0.0000
      3 C3         4.1924    5.1331    5.7477 C.ar      1 RES1    0.0000
      4 C4         5.1033    6.1659    6.0407 C.ar      1 RES1    0.0000
      5 C5         6.2749    6.3245    5.2844 C.ar      1 RES1    0.0000
      6 C6         6.5453    5.4375    4.2270 C.ar      1 RES1    0.0000
      7 C7         5.9432    3.4384    2.8253 C.ar      1 RES1    0.0000
      8 C8         7.0830    2.6493    2.8819 C.ar      1 RES1    0.0000
      9 H1         7.6154    2.6845    3.6570 H         1 RES1    0.0000
     10 C9         7.4656    1.8190    1.8606 C.ar      1 RES1    0.0000
     11 H2         8.2360    1.2884    1.9534 H         1 RES1    0.0000
     12 C10        6.7144    1.7534    0.6716 C.ar      1 RES1    0.0000
     13 C11        5.5518    2.5259    0.6248 C.ar      1 RES1    0.0000
     14 H3         5.0087    2.4897   -0.1427 H         1 RES1    0.0000
     15 C12        5.1802    3.3385    1.6737 C.ar      1 RES1    0.0000
     16 H4         4.3864    3.8378    1.6055 H         1 RES1    0.0000
     17 N1         7.1085    0.9477   -0.3831 N.3       1 RES1    0.0000
     18 C13        8.5812    0.5884   -0.5013 C.3       1 RES1    0.0000
     19 H5         8.8714    0.6667   -1.4360 H         1 RES1    0.0000
     20 H6         9.1199    1.2003    0.0446 H         1 RES1    0.0000
     21 C14        8.7619   -0.8273   -0.0205 C.3       1 RES1    0.0000
     22 H7         8.5064   -0.8870    0.9143 H         1 RES1    0.0000
     23 H8         9.6910   -1.0857   -0.1204 H         1 RES1    0.0000
     24 H9         8.2037   -1.4206   -0.5486 H         1 RES1    0.0000
     25 C15        6.3839    0.9360   -1.6341 C.3       1 RES1    0.0000
     26 H10        5.4230    0.9663   -1.4450 H         1 RES1    0.0000
     27 H11        6.5702    0.0950   -2.1005 H         1 RES1    0.0000
     28 C16        6.7424    2.0883   -2.5376 C.3       1 RES1    0.0000
     29 H12        6.5322    2.9253   -2.0916 H         1 RES1    0.0000
     30 H13        6.2340    2.0237   -3.3627 H         1 RES1    0.0000
     31 H14        7.6904    2.0589   -2.7383 H         1 RES1    0.0000
     32 C17        3.4731    3.1809    4.3723 C.ar      1 RES1    0.0000
     33 C18        3.7139    1.8621    4.7251 C.ar      1 RES1    0.0000
     34 H15        4.5323    1.6301    5.1243 H         1 RES1    0.0000
     35 C19        2.7622    0.8811    4.4950 C.ar      1 RES1    0.0000
     36 H16        2.9189   -0.0078    4.7541 H         1 RES1    0.0000
     37 C20        1.5844    1.2326    3.8787 C.ar      1 RES1    0.0000
     38 C21        1.3298    2.5230    3.4835 C.ar      1 RES1    0.0000
     39 H17        0.5266    2.7413    3.0460 H         1 RES1    0.0000
     40 C22        2.2772    3.4912    3.7426 C.ar      1 RES1    0.0000
     41 H18        2.1080    4.3802    3.4875 H         1 RES1    0.0000
     42 C23        2.9874    4.9431    6.6161 C.ar      1 RES1    0.0000
     43 C24        2.9799    3.9357    7.5704 C.ar      1 RES1    0.0000
     44 H19        3.6944    3.3258    7.5994 H         1 RES1    0.0000
     45 C25        1.9498    3.8065    8.4793 C.ar      1 RES1    0.0000
     46 H20        1.9814    3.1143    9.1157 H         1 RES1    0.0000
     47 C26        0.8735    4.6729    8.4767 C.ar      1 RES1    0.0000
     48 C27        0.8487    5.6510    7.4906 C.ar      1 RES1    0.0000
     49 H21        0.1140    6.2345    7.4389 H         1 RES1    0.0000
     50 C28        1.8974    5.7831    6.5710 C.ar      1 RES1    0.0000
     51 H22        1.8563    6.4547    5.9136 H         1 RES1    0.0000
     52 N2        -0.1581    4.5163    9.4476 N.3       1 RES1    0.0000
     53 C29        0.2717    4.2265   10.8154 C.3       1 RES1    0.0000
     54 H23        0.8762    3.4550   10.7971 H         1 RES1    0.0000
     55 H24       -0.5135    3.9749   11.3456 H         1 RES1    0.0000
     56 C30        0.9903    5.4042   11.5209 C.3       1 RES1    0.0000
     57 H25        1.7879    5.6412   11.0245 H         1 RES1    0.0000
     58 H26        1.2369    5.1399   12.4204 H         1 RES1    0.0000
     59 H27        0.3944    6.1689   11.5597 H         1 RES1    0.0000
     60 C31       -1.2789    5.4072    9.3477 C.3       1 RES1    0.0000
     61 H28       -1.5534    5.4581    8.4066 H         1 RES1    0.0000
     62 H29       -0.9888    6.3040    9.6197 H         1 RES1    0.0000
     63 C32       -2.4765    5.0175   10.1798 C.3       1 RES1    0.0000
     64 H30       -2.7150    4.0972    9.9899 H         1 RES1    0.0000
     65 H31       -3.2242    5.5971    9.9631 H         1 RES1    0.0000
     66 H32       -2.2609    5.1096   11.1226 H         1 RES1    0.0000
     67 C33        4.7868    7.1401    7.1312 C.ar      1 RES1    0.0000
     68 C34        4.6875    6.7416    8.4553 C.ar      1 RES1    0.0000
     69 H33        4.8391    5.8419    8.6832 H         1 RES1    0.0000
     70 C35        4.3690    7.6560    9.4476 C.ar      1 RES1    0.0000
     71 H34        4.2959    7.3838   10.3466 H         1 RES1    0.0000
     72 C36        4.1620    8.9611    9.0939 C.ar      1 RES1    0.0000
     73 C37        4.2715    9.4016    7.8050 C.ar      1 RES1    0.0000
     74 H35        4.1331   10.3062    7.5950 H         1 RES1    0.0000
     75 C38        4.5902    8.4853    6.8203 C.ar      1 RES1    0.0000
     76 H36        4.6752    8.7721    5.9315 H         1 RES1    0.0000
     77 C39        7.2089    7.4455    5.6229 C.ar      1 RES1    0.0000
     78 C40        7.8580    7.4847    6.8395 C.ar      1 RES1    0.0000
     79 H37        7.7378    6.7729    7.4433 H         1 RES1    0.0000
     80 C41        8.6783    8.5371    7.2030 C.ar      1 RES1    0.0000
     81 H38        9.1243    8.5107    8.0320 H         1 RES1    0.0000
     82 C42        8.8556    9.6356    6.3641 C.ar      1 RES1    0.0000
     83 C43        8.1960    9.5945    5.1341 C.ar      1 RES1    0.0000
     84 H39        8.2880   10.3170    4.5400 H         1 RES1    0.0000
     85 C44        7.4168    8.5244    4.7724 C.ar      1 RES1    0.0000
     86 H40        7.0122    8.5205    3.9246 H         1 RES1    0.0000
     87 N3         9.6653   10.7253    6.7151 N.3       1 RES1    0.0000
     88 C45       10.3225   10.7233    8.0240 C.3       1 RES1    0.0000
     89 H41        9.7241   10.3239    8.6921 H         1 RES1    0.0000
     90 H42       10.5100   11.6456    8.2996 H         1 RES1    0.0000
     91 C46       11.5896    9.9548    7.9736 C.3       1 RES1    0.0000
     92 H43       11.4109    9.0580    7.6485 H         1 RES1    0.0000
     93 H44       11.9734    9.9068    8.8615 H         1 RES1    0.0000
     94 H45       12.2115   10.3973    7.3764 H         1 RES1    0.0000
     95 C47        9.3747   12.0430    6.1772 C.3       1 RES1    0.0000
     96 H46        9.3195   11.9833    5.2001 H         1 RES1    0.0000
     97 H47       10.1152   12.6471    6.3998 H         1 RES1    0.0000
     98 C48        8.0714   12.6403    6.7124 C.3       1 RES1    0.0000
     99 H48        7.3372   12.0362    6.5202 H         1 RES1    0.0000
    100 H49        7.9076   13.4949    6.2838 H         1 RES1    0.0000
    101 H50        8.1438   12.7666    7.6708 H         1 RES1    0.0000
    102 C49        7.7743    5.6187    3.3957 C.ar      1 RES1    0.0000
    103 C50        9.0462    5.6754    3.9786 C.ar      1 RES1    0.0000
    104 H51        9.1347    5.5883    4.9102 H         1 RES1    0.0000
    105 C51       10.1691    5.8566    3.2008 C.ar      1 RES1    0.0000
    106 H52       11.0219    5.8947    3.5946 H         1 RES1    0.0000
    107 C52       10.0271    5.9809    1.8365 C.ar      1 RES1    0.0000
    108 C53        8.7978    5.9290    1.2336 C.ar      1 RES1    0.0000
    109 H53        8.7204    6.0152    0.2988 H         1 RES1    0.0000
    110 C54        7.6787    5.7479    2.0154 C.ar      1 RES1    0.0000
    111 H54        6.8332    5.7117    1.6055 H         1 RES1    0.0000
    112 N4         0.5892    0.1743    3.6285 N.pl3     1 RES1    0.0000
    113 O1         0.8086   -0.9536    4.0562 O.2       1 RES1    0.0000
    114 O2        -0.4030    0.4768    2.9764 O.2       1 RES1    0.0000
    115 N5         3.8010    9.9234   10.1357 N.pl3     1 RES1    0.0000
    116 O3         3.6090    9.5152   11.2604 O.2       1 RES1    0.0000
    117 O4         3.6954   11.0963    9.8284 O.2       1 RES1    0.0000
    118 N6        11.2258    6.1630    1.0043 N.pl3     1 RES1    0.0000
    119 O5        12.3222    6.0210    1.5328 O.2       1 RES1    0.0000
    120 O6        11.0692    6.4332   -0.1820 O.2       1 RES1    0.0000
    121 C55        7.9327   -0.2653   -0.1606 Du        2 SUP2    0.0000
    122 H55        7.7185   -0.9683   -0.8072 Du        2 SUP2    0.0000
    123 H56        7.8160   -0.6148    0.7492 Du        2 SUP2    0.0000
    124 C56        9.3195    0.2741   -0.3657 Du        2 SUP2    0.0000
    125 H57        9.9650   -0.4435   -0.2453 Du        2 SUP2    0.0000
    126 H58        9.4934    0.9781    0.2720 Du        2 SUP2    0.0000
    127 H59        9.3972    0.6246   -1.2666 Du        2 SUP2    0.0000
@<TRIPOS>BOND
     1    1    2 ar
     2    2    3 ar
     3    3    4 ar
     4    4    5 ar
     5    5    6 ar
     6    6    1 ar
     7    7    1 1
     8    8    7 ar
     9    9    8 1
    10   10    8 ar
    11   11   10 1
    12   12   10 ar
    13   13   12 ar
    14   14   13 1
    15   15    7 ar
    16   16   15 1
    17   17   12 1
    18   18   17 1
    19   19   18 1
    20   20   18 1
    21   21   18 1
    22   22   21 1
    23   23   21 1
    24   24   21 1
    25   25   17 1
    26   26   25 1
    27   27   25 1
    28   28   25 1
    29   29   28 1
    30   30   28 1
    31   31   28 1
    32   32    2 1
    33   33   32 ar
    34   34   33 1
    35   35   33 ar
    36   36   35 1
    37   37   35 ar
    38   38   37 ar
    39   39   38 1
    40   40   32 ar
    41   41   40 1
    42   42    3 1
    43   43   42 ar
    44   44   43 1
    45   45   43 ar
    46   46   45 1
    47   47   45 ar
    48   48   47 ar
    49   49   48 1
    50   50   42 ar
    51   51   50 1
    52   52   47 1
    53   53   52 1
    54   54   53 1
    55   55   53 1
    56   56   53 1
    57   57   56 1
    58   58   56 1
    59   59   56 1
    60   60   52 1
    61   61   60 1
    62   62   60 1
    63   63   60 1
    64   64   63 1
    65   65   63 1
    66   66   63 1
    67   67    4 1
    68   68   67 ar
    69   69   68 1
    70   70   68 ar
    71   71   70 1
    72   72   70 ar
    73   73   72 ar
    74   74   73 1
    75   75   67 ar
    76   76   75 1
    77   77    5 1
    78   78   77 ar
    79   79   78 1
    80   80   78 ar
    81   81   80 1
    82   82   80 ar
    83   83   82 ar
    84   84   83 1
    85   85   77 ar
    86   86   85 1
    87   87   82 1
    88   88   87 1
    89   89   88 1
    90   90   88 1
    91   91   88 1
    92   92   91 1
    93   93   91 1
    94   94   91 1
    95   95   87 1
    96   96   95 1
    97   97   95 1
    98   98   95 1
    99   99   98 1
   100  100   98 1
   101  101   98 1
   102  102    6 1
   103  103  102 ar
   104  104  103 1
   105  105  103 ar
   106  106  105 1
   107  107  105 ar
   108  108  107 ar
   109  109  108 1
   110  110  102 ar
   111  111  110 1
   112  112   37 1
   113  113  112 2
   114  114  112 2
   115  115   72 1
   116  116  115 2
   117  117  115 2
   118  118  107 1
   119  119  118 2
   120  120  118 2
   121   13   15 ar
   122   38   40 ar
   123   48   50 ar
   124   73   75 ar
   125   83   85 ar
   126  108  110 ar
@<TRIPOS>SUBSTRUCTURE
     1 RES1 1
     2 SUP2 121

@<TRIPOS>CRYSIN
  10.8747    9.7903   44.8801  90.0000  96.4320  90.0000  14 1

