# MOL2 file generated by ConQuest
# Please check atom types

@<TRIPOS>MOLECULE
ITIFOG
   214   210     2
SMALL
NO_CHARGES
****
Generated from CSD

@<TRIPOS>ATOM
      1 O1        16.3808   -2.7996   20.1446 O.2       1 RES1    0.0000
      2 O2        14.3643   -2.9598   20.8927 O.2       1 RES1    0.0000
      3 O3         4.8164   11.7048   18.8131 O.2       1 RES1    0.0000
      4 O4         5.9807   13.3905   18.1206 O.2       1 RES1    0.0000
      5 O5        19.7254   10.8382    9.8456 O.2       1 RES1    0.0000
      6 O6        19.9867   11.1172   10.3725 Du        2 SUP2    0.0000
      7 O7        20.7480    9.0287   10.0485 O.2       1 RES1    0.0000
      8 N1        15.2663   -2.3386   20.3505 N.pl3     1 RES1    0.0000
      9 N2         6.7873    3.8506   23.3375 N.3       1 RES1    0.0000
     10 N3         5.8628   12.2053   18.4160 N.pl3     1 RES1    0.0000
     11 N4        12.7883   14.5711   11.6741 N.3       1 RES1    0.0000
     12 N5        19.9414    9.8277   10.4828 N.pl3     1 RES1    0.0000
     13 N6        21.2516    1.6598   13.7571 N.3       1 RES1    0.0000
     14 C1        13.8153    5.3292   17.6327 C.ar      1 RES1    0.0000
     15 C2        12.6636    6.0770   17.9707 C.ar      1 RES1    0.0000
     16 C3        12.4180    7.3104   17.3237 C.ar      1 RES1    0.0000
     17 C4        13.3060    7.7889   16.3395 C.ar      1 RES1    0.0000
     18 C5        14.4641    7.0534   16.0220 C.ar      1 RES1    0.0000
     19 C6        14.7156    5.8151   16.6562 C.ar      1 RES1    0.0000
     20 C7        14.0599    4.0637   18.2449 C.1       1 RES1    0.0000
     21 C8        14.2584    2.9726   18.6907 C.1       1 RES1    0.0000
     22 C9        14.5019    1.6317   19.1245 C.ar      1 RES1    0.0000
     23 C10       15.7463    1.0359   18.8794 C.ar      1 RES1    0.0000
     24 C11       15.9995   -0.2592   19.2772 C.ar      1 RES1    0.0000
     25 C12       14.9924   -0.9580   19.9174 C.ar      1 RES1    0.0000
     26 C13       13.7481   -0.4152   20.1652 C.ar      1 RES1    0.0000
     27 C14       13.5052    0.8903   19.7656 C.ar      1 RES1    0.0000
     28 C15       11.7313    5.5930   18.9287 C.1       1 RES1    0.0000
     29 C16       10.8940    5.2414   19.7144 C.1       1 RES1    0.0000
     30 C17        9.8717    4.8748   20.6415 C.ar      1 RES1    0.0000
     31 C18        9.9263    3.6947   21.3971 C.ar      1 RES1    0.0000
     32 C19        8.9334    3.3727   22.2922 C.ar      1 RES1    0.0000
     33 C20        7.8031    4.1981   22.4763 C.ar      1 RES1    0.0000
     34 C21        7.7558    5.3888   21.7173 C.ar      1 RES1    0.0000
     35 C22        8.7602    5.7063   20.8320 C.ar      1 RES1    0.0000
     36 C23        6.8051    2.5602   24.0250 C.3       1 RES1    0.0000
     37 C24        7.6146    2.5057   25.3130 C.3       1 RES1    0.0000
     38 C25        7.6340    1.0848   25.8714 C.3       1 RES1    0.0000
     39 C26        8.3988    0.9579   27.1757 C.3       1 RES1    0.0000
     40 C27        8.4694   -0.4578   27.7442 C.3       1 RES1    0.0000
     41 C28        9.1741   -1.4409   26.8332 C.3       1 RES1    0.0000
     42 C29        5.6205    4.7006   23.4859 C.3       1 RES1    0.0000
     43 C30        5.8057    5.9136   24.3932 C.3       1 RES1    0.0000
     44 C31        4.5681    6.8064   24.3888 C.3       1 RES1    0.0000
     45 C32        4.7459    8.0890   25.1828 C.3       1 RES1    0.0000
     46 C33        3.4936    8.9535   25.2437 C.3       1 RES1    0.0000
     47 C34        3.7129   10.2478   26.0132 C.3       1 RES1    0.0000
     48 C35       11.2629    8.0805   17.6348 C.1       1 RES1    0.0000
     49 C36       10.3292    8.8008   17.8327 C.1       1 RES1    0.0000
     50 C37        9.2062    9.6704   18.0139 C.ar      1 RES1    0.0000
     51 C38        7.9829    9.1555   18.4505 C.ar      1 RES1    0.0000
     52 C39        6.8855    9.9856   18.5901 C.ar      1 RES1    0.0000
     53 C40        7.0344   11.3300   18.2843 C.ar      1 RES1    0.0000
     54 C41        8.2273   11.8699   17.8440 C.ar      1 RES1    0.0000
     55 C42        9.3166   11.0328   17.7062 C.ar      1 RES1    0.0000
     56 C43       13.0361    9.0045   15.6405 C.1       1 RES1    0.0000
     57 C44       12.8705    9.9920   14.9834 C.1       1 RES1    0.0000
     58 C45       12.7763   11.1362   14.1312 C.ar      1 RES1    0.0000
     59 C46       12.0503   12.2845   14.4758 C.ar      1 RES1    0.0000
     60 C47       12.0357   13.3988   13.6624 C.ar      1 RES1    0.0000
     61 C48       12.7582   13.4381   12.4526 C.ar      1 RES1    0.0000
     62 C49       13.4579   12.2615   12.0922 C.ar      1 RES1    0.0000
     63 C50       13.4624   11.1580   12.9109 C.ar      1 RES1    0.0000
     64 C51       12.0958   15.7963   12.0780 C.3       1 RES1    0.0000
     65 C52       10.6195   15.8272   11.7064 C.3       1 RES1    0.0000
     66 C53        9.9745   17.1846   11.9828 C.3       1 RES1    0.0000
     67 C54        8.4673   17.1546   11.7948 C.3       1 RES1    0.0000
     68 C55        7.7793   18.5069   11.9437 C.3       1 RES1    0.0000
     69 C56        6.2629   18.3959   11.9216 C.3       1 RES1    0.0000
     70 C57       13.2912   14.5677   10.3062 C.3       1 RES1    0.0000
     71 C58       18.1804   13.9582   10.3989 C.3       1 RES1    0.0000
     72 C59       19.5845   14.4494   10.1706 C.3       1 RES1    0.0000
     73 C60       14.5666   15.1712    9.9885 C.3       1 RES1    0.0000
     74 H1        14.6154   16.0671   10.4048 H         1 RES1    0.0000
     75 H2        14.6382   15.2871    9.0075 H         1 RES1    0.0000
     76 C61       15.7198   14.3325   10.4752 C.3       1 RES1    0.0000
     77 H3        15.6551   13.4328   10.0682 H         1 RES1    0.0000
     78 H4        15.6465   14.2250   11.4570 H         1 RES1    0.0000
     79 C62       17.0910   14.9239   10.1447 C.3       1 RES1    0.0000
     80 H5        17.1091   15.1941    9.1928 H         1 RES1    0.0000
     81 H6        17.2376   15.7334   10.6955 H         1 RES1    0.0000
     82 C63       15.0599   14.8919   10.7431 Du        2 SUP2    0.0000
     83 H7        15.1477   15.7689   11.1935 Du        2 SUP2    0.0000
     84 H8        15.3985   14.1880   11.3516 Du        2 SUP2    0.0000
     85 C64       15.8388   14.8837    9.4410 Du        2 SUP2    0.0000
     86 H9        15.4496   15.5707    8.8426 Du        2 SUP2    0.0000
     87 H10       15.7100   14.0054    9.0075 Du        2 SUP2    0.0000
     88 C65       17.3411   15.1454    9.5532 Du        2 SUP2    0.0000
     89 H11       17.4801   16.0157   10.0036 Du        2 SUP2    0.0000
     90 H12       17.7201   15.2149    8.6404 Du        2 SUP2    0.0000
     91 C66       15.4070    7.5725   15.0835 C.1       1 RES1    0.0000
     92 C67       16.2202    8.0232   14.3362 C.1       1 RES1    0.0000
     93 C68       17.1997    8.5148   13.4135 C.ar      1 RES1    0.0000
     94 C69       17.0171    9.7482   12.7664 C.ar      1 RES1    0.0000
     95 C70       17.9308   10.1977   11.8381 C.ar      1 RES1    0.0000
     96 C71       19.0162    9.3957   11.5437 C.ar      1 RES1    0.0000
     97 C72       19.2546    8.1946   12.1798 C.ar      1 RES1    0.0000
     98 C73       18.3482    7.7638   13.1298 C.ar      1 RES1    0.0000
     99 C74       15.8537    5.0530   16.2530 C.1       1 RES1    0.0000
    100 C75       16.7963    4.4426   15.8331 C.1       1 RES1    0.0000
    101 C76       17.9063    3.7222   15.3036 C.ar      1 RES1    0.0000
    102 C77       18.3530    3.9404   13.9963 C.ar      1 RES1    0.0000
    103 C78       19.4473    3.2748   13.4797 C.ar      1 RES1    0.0000
    104 C79       20.1588    2.3314   14.2507 C.ar      1 RES1    0.0000
    105 C80       19.6837    2.0902   15.5545 C.ar      1 RES1    0.0000
    106 C81       18.5984    2.7701   16.0643 C.ar      1 RES1    0.0000
    107 C82       21.8033    1.9716   12.4485 C.3       1 RES1    0.0000
    108 C83       22.7587    3.1566   12.4825 C.3       1 RES1    0.0000
    109 C84       23.2983    3.5292   11.1060 C.3       1 RES1    0.0000
    110 C85       22.2776    4.2034   10.1840 C.3       1 RES1    0.0000
    111 C86       21.6790    5.4940   10.7404 C.3       1 RES1    0.0000
    112 C87       22.7242    6.4985   11.1905 C.3       1 RES1    0.0000
    113 C88       22.1173    0.8530   14.6211 C.3       1 RES1    0.0000
    114 C89       21.7932   -0.6323   14.6062 C.3       1 RES1    0.0000
    115 C90       22.8088   -1.4342   15.4061 C.3       1 RES1    0.0000
    116 C91       22.5837   -2.9318   15.3376 C.3       1 RES1    0.0000
    117 C92       23.5968   -3.7297   16.1442 C.3       1 RES1    0.0000
    118 C93       23.3969   -5.2241   16.0133 C.3       1 RES1    0.0000
    119 H13       16.4357    1.5485   18.4519 H         1 RES1    0.0000
    120 H14       16.8636   -0.6732   19.1437 H         1 RES1    0.0000
    121 H15       13.0677   -0.9372   20.5886 H         1 RES1    0.0000
    122 H16       12.6474    1.2604   19.9104 H         1 RES1    0.0000
    123 H17       10.7041    3.0877   21.2601 H         1 RES1    0.0000
    124 H18        9.0439    2.5575   22.7882 H         1 RES1    0.0000
    125 H19        7.0324    5.9898   21.7955 H         1 RES1    0.0000
    126 H20        8.6836    6.5100   20.3251 H         1 RES1    0.0000
    127 H21        5.8644    2.3219   24.2331 H         1 RES1    0.0000
    128 H22        7.1467    1.8491   23.3934 H         1 RES1    0.0000
    129 H23        7.2089    3.1280   25.9738 H         1 RES1    0.0000
    130 H24        8.5159    2.8403   25.1476 H         1 RES1    0.0000
    131 H25        6.6970    0.7746   25.9925 H         1 RES1    0.0000
    132 H26        8.0194    0.4860   25.2105 H         1 RES1    0.0000
    133 H27        9.3285    1.3004   27.0294 H         1 RES1    0.0000
    134 H28        7.9840    1.5563   27.8555 H         1 RES1    0.0000
    135 H29        7.5275   -0.7912   27.9082 H         1 RES1    0.0000
    136 H30        8.9503   -0.4445   28.6204 H         1 RES1    0.0000
    137 H31        9.2758   -2.3130   27.2622 H         1 RES1    0.0000
    138 H32       10.0573   -1.1267   26.5925 H         1 RES1    0.0000
    139 H33        8.6619   -1.5522   25.9789 H         1 RES1    0.0000
    140 H34        4.8839    4.1296   23.8217 H         1 RES1    0.0000
    141 H35        5.3146    5.0121   22.5995 H         1 RES1    0.0000
    142 H36        6.5957    6.4109   24.0903 H         1 RES1    0.0000
    143 H37        6.0013    5.6183   25.3108 H         1 RES1    0.0000
    144 H38        3.7804    6.2953   24.7227 H         1 RES1    0.0000
    145 H39        4.3451    7.0357   23.4699 H         1 RES1    0.0000
    146 H40        5.5107    8.6141   24.7686 H         1 RES1    0.0000
    147 H41        5.0118    7.8903   26.0995 H         1 RES1    0.0000
    148 H42        2.7520    8.4096   25.6831 H         1 RES1    0.0000
    149 H43        3.1706    9.1956   24.3215 H         1 RES1    0.0000
    150 H44        2.8657   10.7861   26.0401 H         1 RES1    0.0000
    151 H45        3.9726   10.0459   26.9325 H         1 RES1    0.0000
    152 H46        4.4306   10.7792   25.5998 H         1 RES1    0.0000
    153 H47        7.9122    8.2206   18.6372 H         1 RES1    0.0000
    154 H48        6.0424    9.6474   18.8446 H         1 RES1    0.0000
    155 H49        8.2970   12.7814   17.6360 H         1 RES1    0.0000
    156 H50       10.1736   11.3542   17.4116 H         1 RES1    0.0000
    157 H51       11.5560   12.3193   15.3021 H         1 RES1    0.0000
    158 H52       11.5189   14.1589   13.9286 H         1 RES1    0.0000
    159 H53       13.9678   12.2270   11.2734 H         1 RES1    0.0000
    160 H54       13.9333   10.3504   12.6571 H         1 RES1    0.0000
    161 H55       12.5746   16.5356   11.6236 H         1 RES1    0.0000
    162 H56       12.2143   15.9481   13.0668 H         1 RES1    0.0000
    163 H57       10.1486   15.1330   12.2134 H         1 RES1    0.0000
    164 H58       10.5266   15.5901   10.7499 H         1 RES1    0.0000
    165 H59       10.3915   17.8362   11.3635 H         1 RES1    0.0000
    166 H60       10.2042   17.4889   12.9036 H         1 RES1    0.0000
    167 H61        8.0428   16.5087   12.4548 H         1 RES1    0.0000
    168 H62        8.2682   16.7712   10.9165 H         1 RES1    0.0000
    169 H63        8.0991   19.1360   11.2054 H         1 RES1    0.0000
    170 H64        8.0786   18.9120   12.8067 H         1 RES1    0.0000
    171 H65        5.8350   19.2777   11.9517 H         1 RES1    0.0000
    172 H66        5.9536   17.9250   11.0813 H         1 RES1    0.0000
    173 H67        5.9601   17.8381   12.6979 H         1 RES1    0.0000
    174 H68       13.2841   13.6803    9.9475 H         1 RES1    0.0000
    175 H69       12.6360   15.1510    9.7538 H         1 RES1    0.0000
    176 H70       18.0571   13.6632   11.4060 H         1 RES1    0.0000
    177 H71       18.1145   13.0396    9.7912 H         1 RES1    0.0000
    178 H72       19.7553   15.2378   10.8621 H         1 RES1    0.0000
    179 H73       19.6479   14.6661    9.1792 H         1 RES1    0.0000
    180 H74       20.2474   13.6876   10.4099 H         1 RES1    0.0000
    181 H75       16.2383   10.2940   13.0039 H         1 RES1    0.0000
    182 H76       17.7750   11.0487   11.3720 H         1 RES1    0.0000
    183 H77       20.0289    7.7005   11.9789 H         1 RES1    0.0000
    184 H78       18.5289    6.9519   13.6821 H         1 RES1    0.0000
    185 H79       17.8963    4.5716   13.4441 H         1 RES1    0.0000
    186 H80       19.7211    3.4551   12.6112 H         1 RES1    0.0000
    187 H81       20.1226    1.4370   16.1469 H         1 RES1    0.0000
    188 H82       18.3072    2.5943   16.9662 H         1 RES1    0.0000
    189 H83       22.2929    1.1612   12.1251 H         1 RES1    0.0000
    190 H84       21.0757    2.1164   11.8106 H         1 RES1    0.0000
    191 H85       23.5042    2.9231   13.0719 H         1 RES1    0.0000
    192 H86       22.2756    3.9386   12.8934 H         1 RES1    0.0000
    193 H87       24.0903    4.1540   11.1918 H         1 RES1    0.0000
    194 H88       23.6164    2.7047   10.6785 H         1 RES1    0.0000
    195 H89       21.5653    3.5746    9.9611 H         1 RES1    0.0000
    196 H90       22.7352    4.4430    9.2863 H         1 RES1    0.0000
    197 H91       21.0718    5.2876   11.5029 H         1 RES1    0.0000
    198 H92       21.0661    5.9107   10.0087 H         1 RES1    0.0000
    199 H93       23.1799    6.1650   12.0384 H         1 RES1    0.0000
    200 H94       23.4193    6.6770   10.4847 H         1 RES1    0.0000
    201 H95       22.2663    7.4488   11.4485 H         1 RES1    0.0000
    202 H96       23.0314    0.9987   14.3060 H         1 RES1    0.0000
    203 H97       22.0833    1.1818   15.5792 H         1 RES1    0.0000
    204 H98       21.8090   -0.9311   13.6872 H         1 RES1    0.0000
    205 H99       20.8854   -0.7738   14.9740 H         1 RES1    0.0000
    206 H100      22.8274   -1.1477   16.3526 H         1 RES1    0.0000
    207 H101      23.7325   -1.2199   15.0964 H         1 RES1    0.0000
    208 H102      21.6677   -3.1309   15.6454 H         1 RES1    0.0000
    209 H103      22.6120   -3.2292   14.3859 H         1 RES1    0.0000
    210 H104      24.5023   -3.4789   15.8443 H         1 RES1    0.0000
    211 H105      23.5588   -3.4879   17.1396 H         1 RES1    0.0000
    212 H106      22.4832   -5.4873   16.3033 H         1 RES1    0.0000
    213 H107      23.4930   -5.4960   15.0675 H         1 RES1    0.0000
    214 H108      24.0747   -5.7448   16.5498 H         1 RES1    0.0000
@<TRIPOS>BOND
     1    1    8 2
     2    2    8 2
     3    3   10 2
     4    4   10 2
     5    5   12 2
     6    7   12 2
     7    8   25 1
     8    9   33 1
     9   10   53 1
    10   11   61 1
    11   12   96 1
    12   13  104 1
    13   14   15 ar
    14   15   16 ar
    15   16   17 ar
    16   17   18 ar
    17   18   19 ar
    18   19   14 ar
    19   20   14 1
    20   21   20 3
    21   22   21 1
    22   23   22 ar
    23   24   23 ar
    24   25   24 ar
    25   26   25 ar
    26   27   22 ar
    27   28   15 1
    28   29   28 3
    29   30   29 1
    30   31   30 ar
    31   32   31 ar
    32   33   32 ar
    33   34   33 ar
    34   35   30 ar
    35   36    9 1
    36   37   36 1
    37   38   37 1
    38   39   38 1
    39   40   39 1
    40   41   40 1
    41   42    9 1
    42   43   42 1
    43   44   43 1
    44   45   44 1
    45   46   45 1
    46   47   46 1
    47   48   16 1
    48   49   48 3
    49   50   49 1
    50   51   50 ar
    51   52   51 ar
    52   53   52 ar
    53   54   53 ar
    54   55   50 ar
    55   56   17 1
    56   57   56 3
    57   58   57 1
    58   59   58 ar
    59   60   59 ar
    60   61   60 ar
    61   62   61 ar
    62   63   58 ar
    63   64   11 1
    64   65   64 1
    65   66   65 1
    66   67   66 1
    67   68   67 1
    68   69   68 1
    69   70   11 1
    70   71   72 1
    71   72  178 1
    72   73   70 1
    73   74   73 1
    74   75   73 1
    75   76   73 1
    76   77   76 1
    77   78   76 1
    78   79   71 1
    79   80   79 1
    80   81   79 1
    81   91   18 1
    82   92   91 3
    83   93   92 1
    84   94   93 ar
    85   95   94 ar
    86   96   95 ar
    87   97   96 ar
    88   98   93 ar
    89   99   19 1
    90  100   99 3
    91  101  100 1
    92  102  101 ar
    93  103  102 ar
    94  104  103 ar
    95  105  104 ar
    96  106  101 ar
    97  107   13 1
    98  108  107 1
    99  109  108 1
   100  110  109 1
   101  111  110 1
   102  112  111 1
   103  113   13 1
   104  114  113 1
   105  115  114 1
   106  116  115 1
   107  117  116 1
   108  118  117 1
   109  119   23 1
   110  120   24 1
   111  121   26 1
   112  122   27 1
   113  123   31 1
   114  124   32 1
   115  125   34 1
   116  126   35 1
   117  127   36 1
   118  128   36 1
   119  129   37 1
   120  130   37 1
   121  131   38 1
   122  132   38 1
   123  133   39 1
   124  134   39 1
   125  135   40 1
   126  136   40 1
   127  137   41 1
   128  138   41 1
   129  139   41 1
   130  140   42 1
   131  141   42 1
   132  142   43 1
   133  143   43 1
   134  144   44 1
   135  145   44 1
   136  146   45 1
   137  147   45 1
   138  148   46 1
   139  149   46 1
   140  150   47 1
   141  151   47 1
   142  152   47 1
   143  153   51 1
   144  154   52 1
   145  155   54 1
   146  156   55 1
   147  157   59 1
   148  158   60 1
   149  159   62 1
   150  160   63 1
   151  161   64 1
   152  162   64 1
   153  163   65 1
   154  164   65 1
   155  165   66 1
   156  166   66 1
   157  167   67 1
   158  168   67 1
   159  169   68 1
   160  170   68 1
   161  171   69 1
   162  172   69 1
   163  173   69 1
   164  174   70 1
   165  175   70 1
   166  176   71 1
   167  177   71 1
   168  179   72 1
   169  180   72 1
   170  181   94 1
   171  182   95 1
   172  183   97 1
   173  184   98 1
   174  185  102 1
   175  186  103 1
   176  187  105 1
   177  188  106 1
   178  189  107 1
   179  190  107 1
   180  191  108 1
   181  192  108 1
   182  193  109 1
   183  194  109 1
   184  195  110 1
   185  196  110 1
   186  197  111 1
   187  198  111 1
   188  199  112 1
   189  200  112 1
   190  201  112 1
   191  202  113 1
   192  203  113 1
   193  204  114 1
   194  205  114 1
   195  206  115 1
   196  207  115 1
   197  208  116 1
   198  209  116 1
   199  210  117 1
   200  211  117 1
   201  212  118 1
   202  213  118 1
   203  214  118 1
   204   26   27 ar
   205   34   35 ar
   206   54   55 ar
   207   62   63 ar
   208   76   79 1
   209   97   98 ar
   210  105  106 ar
@<TRIPOS>SUBSTRUCTURE
     1 RES1 1
     2 SUP2 6

@<TRIPOS>CRYSIN
  13.4314   17.8844   18.4020  68.7460  75.8930  69.3280   2 1

