# MOL2 file generated by ConQuest
# Please check atom types

@<TRIPOS>MOLECULE
ITIKAY
    34    34     1
SMALL
NO_CHARGES
****
Generated from CSD

@<TRIPOS>ATOM
      1 C1         7.4230   11.2086   -0.9800 C.ar      1 RES1    0.0000
      2 C2         8.4768   10.5972   -1.6270 C.ar      1 RES1    0.0000
      3 H1         8.3275    9.9215   -2.2777 H         1 RES1    0.0000
      4 C3         9.7555   11.0013   -1.2968 C.ar      1 RES1    0.0000
      5 C4        10.0206   11.9945   -0.3441 C.ar      1 RES1    0.0000
      6 H2        10.9118   12.2490   -0.1345 H         1 RES1    0.0000
      7 C5         8.9491   12.5862    0.2755 C.ar      1 RES1    0.0000
      8 H3         9.0961   13.2671    0.9211 H         1 RES1    0.0000
      9 C6         7.6748   12.2070   -0.0260 C.ar      1 RES1    0.0000
     10 C7         7.3517   15.7429    3.1816 C.3       1 RES1    0.0000
     11 H4         7.3762   16.5367    3.7548 H         1 RES1    0.0000
     12 H5         7.6458   15.9830    2.2777 H         1 RES1    0.0000
     13 H6         7.9510   15.0581    3.5471 H         1 RES1    0.0000
     14 C8         5.9460   15.2024    3.1273 C.2       1 RES1    0.0000
     15 C9         5.6118   14.1554    2.1492 C.2       1 RES1    0.0000
     16 C10        4.2440   13.6503    1.8788 C.2       1 RES1    0.0000
     17 C11        1.9516   13.8471    2.2679 C.3       1 RES1    0.0000
     18 H7         1.8313   13.7277    1.2917 H         1 RES1    0.0000
     19 H8         1.3099   14.5359    2.5750 H         1 RES1    0.0000
     20 C12        1.6775   12.5652    2.9636 C.3       1 RES1    0.0000
     21 H9         2.2100   11.8515    2.5522 H         1 RES1    0.0000
     22 H10        0.7263   12.3487    2.8876 H         1 RES1    0.0000
     23 H11        1.9204   12.6492    3.9093 H         1 RES1    0.0000
     24 N1         6.5386   12.7371    0.5946 N.pl3     1 RES1    0.0000
     25 H12        5.7388   12.4445    0.3766 H         1 RES1    0.0000
     26 N2         6.6745   13.6844    1.5120 N.2       1 RES1    0.0000
     27 N3        10.8962   10.3755   -1.9651 N.pl3     1 RES1    0.0000
     28 O1         5.0956   15.6104    3.9070 O.2       1 RES1    0.0000
     29 O2         6.1191   10.9186   -1.2133 O.3       1 RES1    0.0000
     30 H13        6.0618   10.3964   -1.8691 H         1 RES1    0.0000
     31 O3         3.3034   14.2826    2.5420 O.3       1 RES1    0.0000
     32 O4         4.0190   12.7738    1.0528 O.2       1 RES1    0.0000
     33 O5        10.6578    9.4964   -2.7999 O.2       1 RES1    0.0000
     34 O6        12.0234   10.7336   -1.6743 O.2       1 RES1    0.0000
@<TRIPOS>BOND
     1    1    2 ar
     2    2    3 1
     3    4    2 ar
     4    5    4 ar
     5    6    5 1
     6    7    5 ar
     7    8    7 1
     8    9    1 ar
     9   10   11 1
    10   12   10 1
    11   13   10 1
    12   14   10 1
    13   15   14 1
    14   16   15 1
    15   17   18 1
    16   19   17 1
    17   20   17 1
    18   21   20 1
    19   22   20 1
    20   23   20 1
    21   24    9 1
    22   25   24 1
    23   26   15 2
    24   27    4 1
    25   28   14 2
    26   29    1 1
    27   30   29 1
    28   31   16 1
    29   32   16 2
    30   33   27 2
    31   34   27 2
    32    7    9 ar
    33   17   31 1
    34   24   26 1
@<TRIPOS>SUBSTRUCTURE
     1 RES1 1

@<TRIPOS>CRYSIN
  22.2780   13.1202    4.6379  90.0000  90.0000  90.0000  33 1

