# MOL2 file generated by ConQuest
# Please check atom types

@<TRIPOS>MOLECULE
ITINEE
    33    34     1
SMALL
NO_CHARGES
****
Generated from CSD

@<TRIPOS>ATOM
      1 C1         6.8714    3.0724    6.2079 C.3       1 RES1    0.0000
      2 N1         6.0005    1.8922    6.6929 N.pl3     1 RES1    0.0000
      3 O1         5.8433    1.7863    7.8917 O.2       1 RES1    0.0000
      4 O2         5.5019    1.1944    5.8407 O.2       1 RES1    0.0000
      5 N2         5.9113    4.2231    6.5242 N.pl3     1 RES1    0.0000
      6 O3         6.1497    4.8877    7.4998 O.2       1 RES1    0.0000
      7 O4         4.9361    4.3289    5.7951 O.2       1 RES1    0.0000
      8 C2         7.0909    2.9086    4.7114 C.3       1 RES1    0.0000
      9 H1         7.4412    2.0217    4.5301 H         1 RES1    0.0000
     10 H2         6.2420    2.9967    4.2489 H         1 RES1    0.0000
     11 N3         8.0199    3.9049    4.2107 N.pl3     1 RES1    0.0000
     12 N4         7.7137    5.2241    4.3278 N.2       1 RES1    0.0000
     13 N5         8.7014    5.8947    3.8186 N.2       1 RES1    0.0000
     14 C3         9.6305    5.0119    3.3707 C.2       1 RES1    0.0000
     15 C4        10.9224    5.4666    2.8220 C.2       1 RES1    0.0000
     16 O5        11.1769    6.6776    2.7548 O.2       1 RES1    0.0000
     17 O6        11.7191    4.5033    2.4936 O.3       1 RES1    0.0000
     18 H3        12.6271    4.7895    2.2068 H         1 RES1    0.0000
     19 C5         9.1972    3.7358    3.6231 C.2       1 RES1    0.0000
     20 H4         9.6280    2.9358    3.4266 H         1 RES1    0.0000
     21 C6         8.0976    3.2255    7.0966 C.3       1 RES1    0.0000
     22 H5         8.4640    4.1166    6.9863 H         1 RES1    0.0000
     23 H6         7.8347    3.1232    8.0247 H         1 RES1    0.0000
     24 N6         9.1181    2.2410    6.7739 N.pl3     1 RES1    0.0000
     25 N7         8.8367    0.9165    6.9236 N.2       1 RES1    0.0000
     26 N8         9.9000    0.2501    6.5886 N.2       1 RES1    0.0000
     27 C7        10.8650    1.1436    6.2472 C.2       1 RES1    0.0000
     28 C8        12.1916    0.6859    5.8088 C.2       1 RES1    0.0000
     29 O7        12.4103   -0.5150    5.6158 O.2       1 RES1    0.0000
     30 O8        13.0518    1.6373    5.6416 O.3       1 RES1    0.0000
     31 H7        13.9558    1.4073    5.2904 H         1 RES1    0.0000
     32 C9        10.3820    2.4155    6.3741 C.2       1 RES1    0.0000
     33 H8        10.8288    3.2167    6.2184 H         1 RES1    0.0000
@<TRIPOS>BOND
     1    1    2 1
     2    2    3 2
     3    4    2 2
     4    5    1 1
     5    6    5 2
     6    7    5 2
     7    8    1 1
     8    9    8 1
     9   10    8 1
    10   11    8 1
    11   12   11 1
    12   13   12 2
    13   14   13 1
    14   15   14 1
    15   16   15 2
    16   17   15 1
    17   18   17 1
    18   19   11 1
    19   20   19 1
    20   21    1 1
    21   22   21 1
    22   23   21 1
    23   24   21 1
    24   25   24 1
    25   26   25 2
    26   27   26 1
    27   28   27 1
    28   29   28 2
    29   30   28 1
    30   31   30 1
    31   32   24 1
    32   33   32 1
    33   14   19 2
    34   27   32 2
@<TRIPOS>SUBSTRUCTURE
     1 RES1 1

@<TRIPOS>CRYSIN
  29.7164    5.9130   16.3778  90.0000 112.6440  90.0000  15 1

