# MOL2 file generated by ConQuest
# Please check atom types

@<TRIPOS>MOLECULE
ITIXUE01
    16    15     2
SMALL
NO_CHARGES
****
Generated from CSD

@<TRIPOS>ATOM
      1 N1         4.0020   10.5041    4.6656 N.pl3     1 RES1    0.0000
      2 H1         3.6188   10.4855    3.9305 H         1 RES1    0.0000
      3 C1         5.2090   11.0910    4.9081 C.2       1 RES1    0.0000
      4 H2         5.6898   11.5714    4.2616 H         1 RES1    0.0000
      5 N2         5.6202   10.9164    6.1437 N.2       1 RES1    0.0000
      6 H3         6.4021   11.1755    6.4480 Du        2 SUP2    0.0000
      7 C2         4.6363   10.1737    6.7586 C.2       1 RES1    0.0000
      8 N3         4.7151    9.8042    8.1081 N.pl3     1 RES1    0.0000
      9 O1         3.7959    9.1318    8.5870 O.2       1 RES1    0.0000
     10 O2         5.7092   10.1733    8.7618 O.2       1 RES1    0.0000
     11 C3         3.6332    9.9161    5.8328 C.2       1 RES1    0.0000
     12 O3         2.5181    9.2268    6.0346 O.3       1 RES1    0.0000
     13 C4         1.6485    9.0530    4.8836 C.3       1 RES1    0.0000
     14 H4         0.9213    8.5456    5.2187 H         1 RES1    0.0000
     15 H5         2.1401    8.6010    4.1530 H         1 RES1    0.0000
     16 H6         1.2966    9.9267    4.5645 H         1 RES1    0.0000
@<TRIPOS>BOND
     1    1    2 1
     2    3    1 1
     3    4    3 1
     4    5    3 2
     5    7    5 1
     6    8    7 1
     7    9    8 2
     8   10    8 2
     9   11    1 1
    10   12   11 1
    11   13   12 1
    12   14   13 1
    13   15   13 1
    14   16   13 1
    15    7   11 2
@<TRIPOS>SUBSTRUCTURE
     1 RES1 1
     2 SUP2 6

@<TRIPOS>CRYSIN
   7.5542   11.3112   13.4773  90.0000  95.9200  90.0000  15 1

