# MOL2 file generated by ConQuest
# Please check atom types

@<TRIPOS>MOLECULE
ITOSIU
    27    27     1
SMALL
NO_CHARGES
****
Generated from CSD

@<TRIPOS>ATOM
      1 C1         3.2335    4.7945    9.4879 C.3       1 RES1    0.0000
      2 H1         3.1576    5.7515    9.5160 H         1 RES1    0.0000
      3 H2         2.6490    4.4465    8.8115 H         1 RES1    0.0000
      4 H3         4.1397    4.5512    9.2843 H         1 RES1    0.0000
      5 C2         2.8518    4.2249   10.8156 C.2       1 RES1    0.0000
      6 O1         1.9203    3.4549   10.9614 O.2       1 RES1    0.0000
      7 C3         3.7384    4.5664   12.0153 C.3       1 RES1    0.0000
      8 H4         4.3557    3.8232   12.0857 H         1 RES1    0.0000
      9 O2         4.4223    5.7939   11.7936 O.3       1 RES1    0.0000
     10 H5         5.1565    5.7209   12.2215 H         1 RES1    0.0000
     11 C4         2.9066    4.6591   13.3027 C.3       1 RES1    0.0000
     12 H6         2.3558    3.8306   13.3238 H         1 RES1    0.0000
     13 O3         2.0345    5.7879   13.2288 O.3       1 RES1    0.0000
     14 H7         2.4542    6.4201   12.8510 H         1 RES1    0.0000
     15 C5         3.7946    4.7081   14.5286 C.ar      1 RES1    0.0000
     16 C6         3.9032    5.8541   15.3159 C.ar      1 RES1    0.0000
     17 H8         3.4096    6.6378   15.1095 H         1 RES1    0.0000
     18 C7         4.7533    5.8731   16.4117 C.ar      1 RES1    0.0000
     19 H9         4.8427    6.6952   16.9584 H         1 RES1    0.0000
     20 C8         5.4802    4.7331   16.7056 C.ar      1 RES1    0.0000
     21 C9         5.3977    3.5765   15.9455 C.ar      1 RES1    0.0000
     22 H10        5.9153    2.7877   16.1814 H         1 RES1    0.0000
     23 C10        4.5374    3.5747   14.8598 C.ar      1 RES1    0.0000
     24 H11        4.4072    2.7896   14.3418 H         1 RES1    0.0000
     25 N1         6.3560    4.7361   17.8864 N.pl3     1 RES1    0.0000
     26 O4         7.0730    3.7652   18.0801 O.2       1 RES1    0.0000
     27 O5         6.3148    5.7087   18.6320 O.2       1 RES1    0.0000
@<TRIPOS>BOND
     1    1    2 1
     2    3    1 1
     3    4    1 1
     4    5    1 1
     5    6    5 2
     6    7    5 1
     7    8    7 1
     8    9    7 1
     9   10    9 1
    10   11    7 1
    11   12   11 1
    12   13   11 1
    13   14   13 1
    14   15   11 1
    15   16   15 ar
    16   17   16 1
    17   18   16 ar
    18   19   18 1
    19   20   18 ar
    20   21   20 ar
    21   22   21 1
    22   23   15 ar
    23   24   23 1
    24   25   20 1
    25   26   25 2
    26   27   25 2
    27   21   23 ar
@<TRIPOS>SUBSTRUCTURE
     1 RES1 1

@<TRIPOS>CRYSIN
   4.6835    9.2616   23.4038  90.0000  90.0000  90.0000  19 1

