# MOL2 file generated by ConQuest
# Please check atom types

@<TRIPOS>MOLECULE
ITOXIA
   144   156     3
SMALL
NO_CHARGES
****
Generated from CSD

@<TRIPOS>ATOM
      1 C1         5.7093    2.1288   18.9026 C.ar      1 RES1    0.0000
      2 C2         7.0794    1.8746   18.9832 C.ar      1 RES1    0.0000
      3 H1         7.4096    0.9951   18.8383 H         1 RES1    0.0000
      4 C3         7.9510    2.8977   19.2714 C.ar      1 RES1    0.0000
      5 H2         8.8845    2.7210   19.3022 H         1 RES1    0.0000
      6 C4         7.4908    4.1838   19.5177 C.ar      1 RES1    0.0000
      7 H3         8.0990    4.8853   19.7155 H         1 RES1    0.0000
      8 C5         6.1249    4.4253   19.4711 C.ar      1 RES1    0.0000
      9 H4         5.7992    5.2984   19.6586 H         1 RES1    0.0000
     10 C6         5.2283    3.4175   19.1546 C.ar      1 RES1    0.0000
     11 C7         3.7731    3.7352   18.9699 C.3       1 RES1    0.0000
     12 H5         3.4824    4.3706   19.6712 H         1 RES1    0.0000
     13 H6         3.6391    4.1686   18.0898 H         1 RES1    0.0000
     14 C8         3.4500    1.2773   18.7485 C.2       1 RES1    0.0000
     15 C9         2.4309    0.3368   18.7734 C.2       1 RES1    0.0000
     16 C10        1.2900    1.1044   19.1964 C.2       1 RES1    0.0000
     17 C11        1.6172    2.4325   19.3663 C.2       1 RES1    0.0000
     18 C12        2.5962   -1.1159   18.5568 C.ar      1 RES1    0.0000
     19 C13        1.9527   -2.0487   19.3632 C.ar      1 RES1    0.0000
     20 H7         1.3675   -1.7538   20.0508 H         1 RES1    0.0000
     21 C14        2.1607   -3.4035   19.1713 C.ar      1 RES1    0.0000
     22 H8         1.7090   -4.0275   19.7261 H         1 RES1    0.0000
     23 C15        3.0174   -3.8699   18.1836 C.ar      1 RES1    0.0000
     24 C16        3.6565   -2.9409   17.3752 C.ar      1 RES1    0.0000
     25 H9         4.2481   -3.2370   16.6939 H         1 RES1    0.0000
     26 C17        3.4366   -1.5785   17.5565 C.ar      1 RES1    0.0000
     27 H10        3.8696   -0.9557   16.9849 H         1 RES1    0.0000
     28 C18        3.2618   -5.3556   17.9879 C.3       1 RES1    0.0000
     29 H11        3.0702   -5.8309   18.8236 H         1 RES1    0.0000
     30 H12        4.1981   -5.5030   17.7355 H         1 RES1    0.0000
     31 H13        2.6763   -5.6936   17.2780 H         1 RES1    0.0000
     32 C19        0.8047    3.6322   19.6736 C.ar      1 RES1    0.0000
     33 C20        0.0491    3.7110   20.8421 C.ar      1 RES1    0.0000
     34 H14        0.0483    2.9853   21.4551 H         1 RES1    0.0000
     35 C21       -0.7047    4.8472   21.1137 C.ar      1 RES1    0.0000
     36 H15       -1.2270    4.8879   21.9064 H         1 RES1    0.0000
     37 C22       -0.6975    5.9211   20.2361 C.ar      1 RES1    0.0000
     38 H16       -1.2085    6.6976   20.4303 H         1 RES1    0.0000
     39 C23        0.0562    5.8576   19.0802 C.ar      1 RES1    0.0000
     40 H17        0.0605    6.5909   18.4757 H         1 RES1    0.0000
     41 C24        0.8079    4.7227   18.7981 C.ar      1 RES1    0.0000
     42 H18        1.3273    4.6871   18.0033 H         1 RES1    0.0000
     43 N1         4.8101    1.1235   18.5712 N.pl3     1 RES1    0.0000
     44 H19        5.1521    0.3559   18.3913 H         1 RES1    0.0000
     45 N2         2.9603    2.5240   19.0446 N.pl3     1 RES1    0.0000
     46 N3        -0.0366    0.5516   19.3282 N.pl3     1 RES1    0.0000
     47 O1        -0.3897   -0.2796   18.5092 O.2       1 RES1    0.0000
     48 O2        -0.7342    0.9304   20.2754 O.2       1 RES1    0.0000
     49 C25       10.0509    8.1249   12.0265 C.ar      2 RES2    0.0000
     50 C26       11.4266    7.8618   11.9685 C.ar      2 RES2    0.0000
     51 H20       11.7338    6.9671   11.8884 H         2 RES2    0.0000
     52 C27       12.3336    8.8925   12.0271 C.ar      2 RES2    0.0000
     53 H21       13.2641    8.7031   11.9811 H         2 RES2    0.0000
     54 C28       11.9033   10.2091   12.1545 C.ar      2 RES2    0.0000
     55 H22       12.5325   10.9208   12.1751 H         2 RES2    0.0000
     56 C29       10.5369   10.4697   12.2496 C.ar      2 RES2    0.0000
     57 H23       10.2374   11.3644   12.3628 H         2 RES2    0.0000
     58 C30        9.6138    9.4453   12.1817 C.ar      2 RES2    0.0000
     59 C31        8.1458    9.7859   12.2382 C.3       2 RES2    0.0000
     60 H24        7.9782   10.3896   13.0059 H         2 RES2    0.0000
     61 H25        7.8878   10.2638   11.4097 H         2 RES2    0.0000
     62 C32        7.7739    7.3089   12.0773 C.2       2 RES2    0.0000
     63 C33        6.7118    6.4282   11.9737 C.2       2 RES2    0.0000
     64 C34        5.5650    7.2937   12.2323 C.2       2 RES2    0.0000
     65 C35        5.9622    8.5824   12.4925 C.2       2 RES2    0.0000
     66 C36        6.8224    4.9730   11.8061 C.ar      2 RES2    0.0000
     67 C37        7.6426    4.2473   12.6734 C.ar      2 RES2    0.0000
     68 H26        8.1253    4.7061   13.3496 H         2 RES2    0.0000
     69 C38        7.7662    2.8672   12.5682 C.ar      2 RES2    0.0000
     70 H27        8.3289    2.3982   13.1746 H         2 RES2    0.0000
     71 C39        7.0759    2.1656   11.5853 C.ar      2 RES2    0.0000
     72 C40        6.2864    2.8964   10.7042 C.ar      2 RES2    0.0000
     73 H28        5.8235    2.4414   10.0117 H         2 RES2    0.0000
     74 C41        6.1604    4.2728   10.8130 C.ar      2 RES2    0.0000
     75 H29        5.6106    4.7417   10.1972 H         2 RES2    0.0000
     76 C42        7.2010    0.6634   11.4751 C.3       2 RES2    0.0000
     77 H30        6.3246    0.2771   11.2642 H         2 RES2    0.0000
     78 H31        7.5233    0.2987   12.3248 H         2 RES2    0.0000
     79 H32        7.8361    0.4397   10.7624 H         2 RES2    0.0000
     80 C43        5.2241    9.8177   12.7683 C.ar      2 RES2    0.0000
     81 C44        5.4680   10.5675   13.9240 C.ar      2 RES2    0.0000
     82 H33        6.0773   10.2422   14.5768 H         2 RES2    0.0000
     83 C45        4.8339   11.7711   14.1231 C.ar      2 RES2    0.0000
     84 H34        5.0150   12.2718   14.9100 H         2 RES2    0.0000
     85 C46        3.9322   12.2667   13.1898 C.ar      2 RES2    0.0000
     86 H35        3.5087   13.1055   13.3285 H         2 RES2    0.0000
     87 C47        3.6563   11.5169   12.0433 C.ar      2 RES2    0.0000
     88 H36        3.0343   11.8384   11.4013 H         2 RES2    0.0000
     89 C48        4.2927   10.3057   11.8474 C.ar      2 RES2    0.0000
     90 H37        4.0941    9.7948   11.0723 H         2 RES2    0.0000
     91 N4         9.1350    7.0751   11.9756 N.pl3     2 RES2    0.0000
     92 H38        9.3056    6.3825   11.4898 H         2 RES2    0.0000
     93 N5         7.3277    8.5773   12.3792 N.pl3     2 RES2    0.0000
     94 N6         4.2012    6.8781   12.2702 N.pl3     2 RES2    0.0000
     95 O3         3.8443    5.9732   11.5267 O.2       2 RES2    0.0000
     96 O4         3.4389    7.4526   13.0449 O.2       2 RES2    0.0000
     97 C49       13.3683   10.9615   15.2037 C.ar      3 RES3    0.0000
     98 C50       14.7368   11.2475   15.1468 C.ar      3 RES3    0.0000
     99 H39       15.0281   12.1333   14.9648 H         3 RES3    0.0000
    100 C51       15.6631   10.2447   15.3553 C.ar      3 RES3    0.0000
    101 H40       16.5916   10.4443   15.3127 H         3 RES3    0.0000
    102 C52       15.2470    8.9509   15.6261 C.ar      3 RES3    0.0000
    103 H41       15.8828    8.2583   15.7619 H         3 RES3    0.0000
    104 C53       13.8823    8.6815   15.6965 C.ar      3 RES3    0.0000
    105 H42       13.5961    7.7957   15.8821 H         3 RES3    0.0000
    106 C54       12.9304    9.6715   15.5025 C.ar      3 RES3    0.0000
    107 C55       11.4711    9.3157   15.5276 C.3       3 RES3    0.0000
    108 H43       11.2357    8.8200   14.7033 H         3 RES3    0.0000
    109 H44       11.2857    8.7285   16.3038 H         3 RES3    0.0000
    110 C56       11.1044   11.7914   15.2767 C.2       3 RES3    0.0000
    111 C57       10.0979   12.7090   15.4057 C.2       3 RES3    0.0000
    112 C58        8.9900   11.9401   15.9017 C.2       3 RES3    0.0000
    113 C59        9.3428   10.6171   16.0497 C.2       3 RES3    0.0000
    114 C60       10.2779   14.1769   15.2847 C.ar      3 RES3    0.0000
    115 C61        9.7103   15.0614   16.2024 C.ar      3 RES3    0.0000
    116 H45        9.1417   14.7246   16.8837 H         3 RES3    0.0000
    117 C62        9.9605   16.4175   16.1378 C.ar      3 RES3    0.0000
    118 H46        9.5465   16.9996   16.7635 H         3 RES3    0.0000
    119 C63       10.8073   16.9436   15.1736 C.ar      3 RES3    0.0000
    120 C64       11.3650   16.0832   14.2411 C.ar      3 RES3    0.0000
    121 H47       11.9367   16.4251   13.5647 H         3 RES3    0.0000
    122 C65       11.0906   14.7119   14.2920 C.ar      3 RES3    0.0000
    123 H48       11.4670   14.1362   13.6364 H         3 RES3    0.0000
    124 C66       11.1122   18.4281   15.1263 C.3       3 RES3    0.0000
    125 H49       10.5568   18.8551   14.4419 H         3 RES3    0.0000
    126 H50       12.0589   18.5615   14.9079 H         3 RES3    0.0000
    127 H51       10.9180   18.8297   16.0001 H         3 RES3    0.0000
    128 C67        8.5912    9.4059   16.4358 C.ar      3 RES3    0.0000
    129 C68        8.0350    9.2776   17.7064 C.ar      3 RES3    0.0000
    130 H52        8.1457    9.9728   18.3449 H         3 RES3    0.0000
    131 C69        7.3229    8.1401   18.0425 C.ar      3 RES3    0.0000
    132 H53        6.9603    8.0537   18.9164 H         3 RES3    0.0000
    133 C70        7.1339    7.1247   17.1200 C.ar      3 RES3    0.0000
    134 H54        6.6328    6.3532   17.3581 H         3 RES3    0.0000
    135 C71        7.6763    7.2365   15.8481 C.ar      3 RES3    0.0000
    136 H55        7.5469    6.5451   15.2115 H         3 RES3    0.0000
    137 C72        8.4093    8.3663   15.5128 C.ar      3 RES3    0.0000
    138 H56        8.7928    8.4375   14.6464 H         3 RES3    0.0000
    139 N7        12.4379   11.9655   14.9684 N.pl3     3 RES3    0.0000
    140 H57       12.8116   12.6976   14.7350 H         3 RES3    0.0000
    141 N8        10.6486   10.5345   15.6235 N.pl3     3 RES3    0.0000
    142 N9         7.6717   12.4447   16.0642 N.pl3     3 RES3    0.0000
    143 O5         7.3495   13.4329   15.4095 O.2       3 RES3    0.0000
    144 O6         6.8975   11.8816   16.8634 O.2       3 RES3    0.0000
@<TRIPOS>BOND
     1    1    2 ar
     2    2    3 1
     3    4    2 ar
     4    5    4 1
     5    6    4 ar
     6    7    6 1
     7    8    6 ar
     8    9    8 1
     9   10    1 ar
    10   11   10 1
    11   12   11 1
    12   13   11 1
    13   14   15 2
    14   15   16 1
    15   16   17 2
    16   17   32 1
    17   18   15 1
    18   19   18 ar
    19   20   19 1
    20   21   19 ar
    21   22   21 1
    22   23   21 ar
    23   24   23 ar
    24   25   24 1
    25   26   18 ar
    26   27   26 1
    27   28   23 1
    28   29   28 1
    29   30   28 1
    30   31   28 1
    31   32   33 ar
    32   33   34 1
    33   35   33 ar
    34   36   35 1
    35   37   35 ar
    36   38   37 1
    37   39   37 ar
    38   40   39 1
    39   41   32 ar
    40   42   41 1
    41   43    1 1
    42   44   43 1
    43   45   11 1
    44   46   16 1
    45   47   46 2
    46   48   46 2
    47   49   50 ar
    48   50   51 1
    49   52   50 ar
    50   53   52 1
    51   54   52 ar
    52   55   54 1
    53   56   54 ar
    54   57   56 1
    55   58   49 ar
    56   59   58 1
    57   60   59 1
    58   61   59 1
    59   62   63 2
    60   63   64 1
    61   64   65 2
    62   65   80 1
    63   66   63 1
    64   67   66 ar
    65   68   67 1
    66   69   67 ar
    67   70   69 1
    68   71   69 ar
    69   72   71 ar
    70   73   72 1
    71   74   66 ar
    72   75   74 1
    73   76   71 1
    74   77   76 1
    75   78   76 1
    76   79   76 1
    77   80   81 ar
    78   81   82 1
    79   83   81 ar
    80   84   83 1
    81   85   83 ar
    82   86   85 1
    83   87   85 ar
    84   88   87 1
    85   89   80 ar
    86   90   89 1
    87   91   49 1
    88   92   91 1
    89   93   59 1
    90   94   64 1
    91   95   94 2
    92   96   94 2
    93   97   98 ar
    94   98   99 1
    95  100   98 ar
    96  101  100 1
    97  102  100 ar
    98  103  102 1
    99  104  102 ar
   100  105  104 1
   101  106   97 ar
   102  107  106 1
   103  108  107 1
   104  109  107 1
   105  110  111 2
   106  111  112 1
   107  112  113 2
   108  113  128 1
   109  114  111 1
   110  115  114 ar
   111  116  115 1
   112  117  115 ar
   113  118  117 1
   114  119  117 ar
   115  120  119 ar
   116  121  120 1
   117  122  114 ar
   118  123  122 1
   119  124  119 1
   120  125  124 1
   121  126  124 1
   122  127  124 1
   123  128  129 ar
   124  129  130 1
   125  131  129 ar
   126  132  131 1
   127  133  131 ar
   128  134  133 1
   129  135  133 ar
   130  136  135 1
   131  137  128 ar
   132  138  137 1
   133  139   97 1
   134  140  139 1
   135  141  107 1
   136  142  112 1
   137  143  142 2
   138  144  142 2
   139    8   10 ar
   140   14   43 1
   141   14   45 1
   142   17   45 1
   143   24   26 ar
   144   39   41 ar
   145   56   58 ar
   146   62   91 1
   147   62   93 1
   148   65   93 1
   149   72   74 ar
   150   87   89 ar
   151  104  106 ar
   152  110  139 1
   153  110  141 1
   154  113  141 1
   155  120  122 ar
   156  135  137 ar
@<TRIPOS>SUBSTRUCTURE
     1 RES1 1
     2 RES2 49
     3 RES3 97

@<TRIPOS>CRYSIN
  21.0510   12.7090   21.1760  90.0000  95.2810  90.0000   9 1

