# MOL2 file generated by ConQuest
# Please check atom types

@<TRIPOS>MOLECULE
ITUNOC
    48    49     1
SMALL
NO_CHARGES
****
Generated from CSD

@<TRIPOS>ATOM
      1 N1         0.8653   13.8236   13.4433 N.3       1 RES1    0.0000
      2 O1        -0.0323   13.3743   12.6471 O.2       1 RES1    0.0000
      3 C1         1.4558   12.8251   14.3783 C.3       1 RES1    0.0000
      4 C2         2.2531   13.5499   15.4494 C.3       1 RES1    0.0000
      5 H1         1.6234   13.9731   16.0858 H         1 RES1    0.0000
      6 H2         2.7892   12.8880   15.9530 H         1 RES1    0.0000
      7 C3         3.1763   14.6072   14.9002 C.3       1 RES1    0.0000
      8 H3         3.7980   14.1869   14.2389 H         1 RES1    0.0000
      9 C4         2.3369   15.6517   14.1945 C.3       1 RES1    0.0000
     10 H4         2.9296   16.3752   13.8669 H         1 RES1    0.0000
     11 H5         1.7043   16.0505   14.8443 H         1 RES1    0.0000
     12 C5         1.5481   15.0810   13.0143 C.3       1 RES1    0.0000
     13 C6         2.3216   11.8515   13.5849 C.3       1 RES1    0.0000
     14 H6         1.8071   11.4983   12.8295 H         1 RES1    0.0000
     15 H7         2.5992   11.1131   14.1662 H         1 RES1    0.0000
     16 H8         3.1154   12.3192   13.2490 H         1 RES1    0.0000
     17 C7         0.3091   12.0740   15.0386 C.3       1 RES1    0.0000
     18 H9        -0.2611   12.7085   15.5224 H         1 RES1    0.0000
     19 H10        0.6703   11.4136   15.6664 H         1 RES1    0.0000
     20 H11       -0.2200   11.6153   14.3521 H         1 RES1    0.0000
     21 C8         2.4600   14.7855   11.8261 C.3       1 RES1    0.0000
     22 H12        3.2108   14.2292   12.1206 H         1 RES1    0.0000
     23 H13        2.8015   15.6269   11.4593 H         1 RES1    0.0000
     24 H14        1.9523   14.3099   11.1349 H         1 RES1    0.0000
     25 C9         0.4708   16.0652   12.5866 C.3       1 RES1    0.0000
     26 H15       -0.0069   15.7096   11.8089 H         1 RES1    0.0000
     27 H16        0.8849   16.9218   12.3513 H         1 RES1    0.0000
     28 H17       -0.1603   16.1997   13.3245 H         1 RES1    0.0000
     29 N2         3.9629   15.1540   16.0189 N.2       1 RES1    0.0000
     30 C10        4.4999   16.2433   16.0278 C.2       1 RES1    0.0000
     31 N3         5.1929   17.2338   16.0867 N.2       1 RES1    0.0000
     32 C11        4.7969   18.5478   16.5892 C.3       1 RES1    0.0000
     33 H18        5.3690   18.7511   17.3833 H         1 RES1    0.0000
     34 C12        5.0973   19.5847   15.5389 C.3       1 RES1    0.0000
     35 H19        4.5845   19.3784   14.7184 H         1 RES1    0.0000
     36 H20        6.0608   19.5538   15.3126 H         1 RES1    0.0000
     37 C13        4.7376   20.9842   16.0187 C.3       1 RES1    0.0000
     38 H21        5.3410   21.2400   16.7597 H         1 RES1    0.0000
     39 H22        4.8760   21.6272   15.2791 H         1 RES1    0.0000
     40 C14        3.3081   21.0695   16.4892 C.3       1 RES1    0.0000
     41 H23        2.6996   20.9435   15.7181 H         1 RES1    0.0000
     42 H24        3.1395   21.9681   16.8674 H         1 RES1    0.0000
     43 C15        3.0147   20.0204   17.5378 C.3       1 RES1    0.0000
     44 H25        2.0549   20.0561   17.7790 H         1 RES1    0.0000
     45 H26        3.5416   20.2154   18.3536 H         1 RES1    0.0000
     46 C16        3.3587   18.6239   17.0349 C.3       1 RES1    0.0000
     47 H27        3.2027   17.9665   17.7580 H         1 RES1    0.0000
     48 H28        2.7662   18.3921   16.2760 H         1 RES1    0.0000
@<TRIPOS>BOND
     1    1    2 1
     2    3    1 1
     3    4    3 1
     4    5    4 1
     5    6    4 1
     6    7    4 1
     7    8    7 1
     8    9    7 1
     9   10    9 1
    10   11    9 1
    11   12    1 1
    12   13    3 1
    13   14   13 1
    14   15   13 1
    15   16   13 1
    16   17    3 1
    17   18   17 1
    18   19   17 1
    19   20   17 1
    20   21   12 1
    21   22   21 1
    22   23   21 1
    23   24   21 1
    24   25   12 1
    25   26   25 1
    26   27   25 1
    27   28   25 1
    28   29    7 1
    29   30   29 2
    30   31   30 2
    31   32   31 1
    32   33   32 1
    33   34   32 1
    34   35   34 1
    35   36   34 1
    36   37   34 1
    37   38   37 1
    38   39   37 1
    39   40   37 1
    40   41   40 1
    41   42   40 1
    42   43   40 1
    43   44   43 1
    44   45   43 1
    45   46   32 1
    46   47   46 1
    47   48   46 1
    48    9   12 1
    49   43   46 1
@<TRIPOS>SUBSTRUCTURE
     1 RES1 1

@<TRIPOS>CRYSIN
   5.6463   20.1690   14.1004  90.0000  97.4430  90.0000  14 1

