# MOL2 file generated by ConQuest
# Please check atom types

@<TRIPOS>MOLECULE
ITUPAQ
    48    49     1
SMALL
NO_CHARGES
****
Generated from CSD

@<TRIPOS>ATOM
      1 O1        -0.3425    6.5251    8.1743 O.2       1 RES1    0.0000
      2 N1        -1.2631    7.4030    8.3825 N.3       1 RES1    0.0000
      3 N2        -4.4505   10.1620    9.0127 N.2       1 RES1    0.0000
      4 N3        -3.8705   12.1927   10.2133 N.2       1 RES1    0.0000
      5 C1        -1.8665    8.0192    7.1592 C.3       1 RES1    0.0000
      6 C2        -2.7104    9.2373    7.5524 C.3       1 RES1    0.0000
      7 H1        -2.1063    9.9915    7.7649 H         1 RES1    0.0000
      8 H2        -3.2687    9.5046    6.7802 H         1 RES1    0.0000
      9 C3        -3.6125    8.9775    8.7450 C.3       1 RES1    0.0000
     10 H3        -4.2083    8.2033    8.5350 H         1 RES1    0.0000
     11 C4        -2.7414    8.6146    9.9349 C.3       1 RES1    0.0000
     12 H4        -3.3158    8.5024   10.7327 H         1 RES1    0.0000
     13 H5        -2.1142    9.3583   10.1152 H         1 RES1    0.0000
     14 C5        -1.9406    7.3310    9.7138 C.3       1 RES1    0.0000
     15 C6        -2.7014    6.9598    6.4304 C.3       1 RES1    0.0000
     16 H6        -2.9665    7.3015    5.5507 H         1 RES1    0.0000
     17 H7        -3.5022    6.7556    6.9576 H         1 RES1    0.0000
     18 H8        -2.1685    6.1443    6.3181 H         1 RES1    0.0000
     19 C7        -0.7190    8.4838    6.2670 C.3       1 RES1    0.0000
     20 H9        -0.1868    7.7098    5.9894 H         1 RES1    0.0000
     21 H10       -0.1509    9.1094    6.7650 H         1 RES1    0.0000
     22 H11       -1.0821    8.9325    5.4750 H         1 RES1    0.0000
     23 C8        -2.8382    6.0862    9.7729 C.3       1 RES1    0.0000
     24 H12       -3.6180    6.2185    9.1938 H         1 RES1    0.0000
     25 H13       -3.1363    5.9412   10.6956 H         1 RES1    0.0000
     26 H14       -2.3326    5.3036    9.4675 H         1 RES1    0.0000
     27 C9        -0.8497    7.2329   10.7831 C.3       1 RES1    0.0000
     28 H15       -1.2595    7.2687   11.6721 H         1 RES1    0.0000
     29 H16       -0.2237    7.9805   10.6805 H         1 RES1    0.0000
     30 H17       -0.3671    6.3866   10.6805 H         1 RES1    0.0000
     31 C10       -4.1357   11.1182    9.7015 C.2       1 RES1    0.0000
     32 C11       -4.0627   12.7409   11.5033 C.ar      1 RES1    0.0000
     33 C12       -3.2259   13.8089   11.8463 C.ar      1 RES1    0.0000
     34 C13       -3.4026   14.4215   13.0784 C.ar      1 RES1    0.0000
     35 H18       -2.8343   15.1401   13.3307 H         1 RES1    0.0000
     36 C14       -4.3928   14.0010   13.9402 C.ar      1 RES1    0.0000
     37 H19       -4.5089   14.4327   14.7788 H         1 RES1    0.0000
     38 C15       -5.2129   12.9542   13.5834 C.ar      1 RES1    0.0000
     39 H20       -5.8910   12.6706   14.1861 H         1 RES1    0.0000
     40 C16       -5.0734   12.2999   12.3607 C.ar      1 RES1    0.0000
     41 C17       -2.1739   14.3023   10.9007 C.3       1 RES1    0.0000
     42 H21       -2.5881   14.5331   10.0437 H         1 RES1    0.0000
     43 H22       -1.5045   13.6008   10.7616 H         1 RES1    0.0000
     44 H23       -1.7403   15.0964   11.2787 H         1 RES1    0.0000
     45 C18       -5.9986   11.1760   11.9792 C.3       1 RES1    0.0000
     46 H24       -5.5333   10.3190   12.0846 H         1 RES1    0.0000
     47 H25       -6.2758   11.2841   11.0449 H         1 RES1    0.0000
     48 H26       -6.7890   11.1924   12.5591 H         1 RES1    0.0000
@<TRIPOS>BOND
     1    1    2 1
     2    2    5 1
     3    3    9 1
     4    4   31 2
     5    5    6 1
     6    6    7 1
     7    8    6 1
     8    9    6 1
     9   10    9 1
    10   11    9 1
    11   12   11 1
    12   13   11 1
    13   14    2 1
    14   15    5 1
    15   16   15 1
    16   17   15 1
    17   18   15 1
    18   19    5 1
    19   20   19 1
    20   21   19 1
    21   22   19 1
    22   23   14 1
    23   24   23 1
    24   25   23 1
    25   26   23 1
    26   27   14 1
    27   28   27 1
    28   29   27 1
    29   30   27 1
    30   31    3 2
    31   32    4 1
    32   33   32 ar
    33   34   33 ar
    34   35   34 1
    35   36   34 ar
    36   37   36 1
    37   38   36 ar
    38   39   38 1
    39   40   32 ar
    40   41   33 1
    41   42   41 1
    42   43   41 1
    43   44   41 1
    44   45   40 1
    45   46   45 1
    46   47   45 1
    47   48   45 1
    48   11   14 1
    49   38   40 ar
@<TRIPOS>SUBSTRUCTURE
     1 RES1 1

@<TRIPOS>CRYSIN
   5.6680   21.8346   13.8242  90.0000  95.8230  90.0000  14 1

