# MOL2 file generated by ConQuest
# Please check atom types

@<TRIPOS>MOLECULE
ITUPEU
    46    47     1
SMALL
NO_CHARGES
****
Generated from CSD

@<TRIPOS>ATOM
      1 C1         3.2072    4.7373    6.1135 C.3       1 RES1    0.0000
      2 C2         2.3201    4.1402    5.0201 C.3       1 RES1    0.0000
      3 H1         1.7656    4.8587    4.6251 H         1 RES1    0.0000
      4 H2         2.8942    3.7709    4.3032 H         1 RES1    0.0000
      5 C3         1.4125    3.0447    5.5419 C.3       1 RES1    0.0000
      6 H3         0.8705    3.4153    6.2966 H         1 RES1    0.0000
      7 C4         2.2667    1.9104    6.0767 C.3       1 RES1    0.0000
      8 H4         2.8484    1.5706    5.3514 H         1 RES1    0.0000
      9 H5         1.6787    1.1691    6.3677 H         1 RES1    0.0000
     10 C5         3.1397    2.3534    7.2568 C.3       1 RES1    0.0000
     11 C6         2.4136    5.6530    7.0567 C.3       1 RES1    0.0000
     12 H6         1.6263    5.1744    7.3897 H         1 RES1    0.0000
     13 H7         2.1278    6.4545    6.5699 H         1 RES1    0.0000
     14 H8         2.9807    5.9144    7.8108 H         1 RES1    0.0000
     15 C7         4.3356    5.5360    5.4586 C.3       1 RES1    0.0000
     16 H9         3.9528    6.2361    4.8890 H         1 RES1    0.0000
     17 H10        4.8864    4.9367    4.9134 H         1 RES1    0.0000
     18 H11        4.8907    5.9474    6.1543 H         1 RES1    0.0000
     19 C8         2.3097    2.5565    8.5294 C.3       1 RES1    0.0000
     20 H12        1.9677    1.6919    8.8384 H         1 RES1    0.0000
     21 H13        1.5580    3.1549    8.3368 H         1 RES1    0.0000
     22 H14        2.8725    2.9529    9.2278 H         1 RES1    0.0000
     23 C9         4.2177    1.3020    7.5130 C.3       1 RES1    0.0000
     24 H15        4.7574    1.5691    8.2863 H         1 RES1    0.0000
     25 H16        4.7932    1.2249    6.7234 H         1 RES1    0.0000
     26 H17        3.7936    0.4368    7.6929 H         1 RES1    0.0000
     27 C10        0.1352    1.5164    4.1446 C.2       1 RES1    0.0000
     28 C11       -0.0664   -0.3372    2.6987 C.ar      1 RES1    0.0000
     29 C12        1.1131   -0.1800    1.9916 C.ar      1 RES1    0.0000
     30 H18        1.7374    0.4828    2.2630 H         1 RES1    0.0000
     31 C13        1.3978   -0.9765    0.8919 C.ar      1 RES1    0.0000
     32 H19        2.2121   -0.8606    0.4155 H         1 RES1    0.0000
     33 C14        0.4912   -1.9390    0.4925 C.ar      1 RES1    0.0000
     34 C15       -0.6804   -2.1306    1.2213 C.ar      1 RES1    0.0000
     35 H20       -1.2912   -2.8119    0.9658 H         1 RES1    0.0000
     36 C16       -0.9556   -1.3324    2.3124 C.ar      1 RES1    0.0000
     37 H21       -1.7582   -1.4644    2.8039 H         1 RES1    0.0000
     38 C17        1.8134   -2.5739   -1.3990 C.3       1 RES1    0.0000
     39 H22        2.6145   -2.7285   -0.8554 H         1 RES1    0.0000
     40 H23        1.8268   -1.6576   -1.7463 H         1 RES1    0.0000
     41 H24        1.7983   -3.2075   -2.1469 H         1 RES1    0.0000
     42 N1         3.8360    3.6322    6.9023 N.3       1 RES1    0.0000
     43 N2         0.4918    2.6238    4.4688 N.2       1 RES1    0.0000
     44 N3        -0.4349    0.4812    3.8051 N.2       1 RES1    0.0000
     45 O1         4.8141    3.9699    7.6712 O.2       1 RES1    0.0000
     46 O2         0.6516   -2.7600   -0.5950 O.3       1 RES1    0.0000
@<TRIPOS>BOND
     1    1    2 1
     2    2    3 1
     3    4    2 1
     4    5    2 1
     5    6    5 1
     6    7    5 1
     7    8    7 1
     8    9    7 1
     9   10    7 1
    10   11    1 1
    11   12   11 1
    12   13   11 1
    13   14   11 1
    14   15    1 1
    15   16   15 1
    16   17   15 1
    17   18   15 1
    18   19   10 1
    19   20   19 1
    20   21   19 1
    21   22   19 1
    22   23   10 1
    23   24   23 1
    24   25   23 1
    25   26   23 1
    26   27   43 2
    27   28   29 ar
    28   29   30 1
    29   31   29 ar
    30   32   31 1
    31   33   31 ar
    32   34   33 ar
    33   35   34 1
    34   36   28 ar
    35   37   36 1
    36   38   39 1
    37   40   38 1
    38   41   38 1
    39   42    1 1
    40   43    5 1
    41   44   27 2
    42   45   42 1
    43   46   33 1
    44   10   42 1
    45   28   44 1
    46   34   36 ar
    47   38   46 1
@<TRIPOS>SUBSTRUCTURE
     1 RES1 1

@<TRIPOS>CRYSIN
   5.7558    7.8723   18.7493  86.9632  87.9183  75.6831   2 1

