# MOL2 file generated by ConQuest
# Please check atom types

@<TRIPOS>MOLECULE
ITUXIE
    60    62     2
SMALL
NO_CHARGES
****
Generated from CSD

@<TRIPOS>ATOM
      1 O1         5.7975   -0.6585   -6.7184 O.3       1 RES1    0.0000
      2 O2        -3.8133   -2.5490    1.1135 O.2       1 RES1    0.0000
      3 O3        -3.0817   -2.5408    3.1397 O.2       1 RES1    0.0000
      4 O4        14.2711    2.4794   -6.1442 O.3       2 RES2    0.0000
      5 O5         4.5482    0.4799    1.4205 O.2       2 RES2    0.0000
      6 O6         5.1618    0.8246    3.4744 O.2       2 RES2    0.0000
      7 N1        -2.9001   -2.4236    1.9111 N.pl3     1 RES1    0.0000
      8 N2         2.2345   -1.2673    0.0991 N.3       1 RES1    0.0000
      9 N3         2.5643   -1.2156   -1.2237 N.2       1 RES1    0.0000
     10 N4         5.4220    0.7681    2.2434 N.pl3     2 RES2    0.0000
     11 N5        10.5161    2.1857    0.5687 N.3       2 RES2    0.0000
     12 N6        10.8844    2.1836   -0.7532 N.2       2 RES2    0.0000
     13 C1        -1.5684   -2.1264    1.4319 C.ar      1 RES1    0.0000
     14 C2        -0.5388   -1.9878    2.3405 C.ar      1 RES1    0.0000
     15 C3         0.7178   -1.6968    1.8908 C.ar      1 RES1    0.0000
     16 C4         0.9590   -1.5582    0.5228 C.ar      1 RES1    0.0000
     17 C5        -0.1009   -1.7079   -0.3763 C.ar      1 RES1    0.0000
     18 C6        -1.3552   -1.9954    0.0829 C.ar      1 RES1    0.0000
     19 C7         5.3369   -0.7253   -5.4281 C.ar      1 RES1    0.0000
     20 C8         4.0036   -1.0142   -5.2172 C.ar      1 RES1    0.0000
     21 C9         3.4840   -1.0680   -3.9604 C.ar      1 RES1    0.0000
     22 C10        4.2840   -0.8481   -2.8393 C.ar      1 RES1    0.0000
     23 C11        5.6244   -0.5557   -3.0721 C.ar      1 RES1    0.0000
     24 C12        6.1550   -0.5026   -4.3511 C.ar      1 RES1    0.0000
     25 C13        3.7750   -0.9246   -1.4872 C.2       1 RES1    0.0000
     26 C14        6.7539    1.0811    1.8138 C.ar      2 RES2    0.0000
     27 C15        7.7387    1.3597    2.7422 C.ar      2 RES2    0.0000
     28 C16        8.9839    1.7086    2.3110 C.ar      2 RES2    0.0000
     29 C17        9.2700    1.7782    0.9449 C.ar      2 RES2    0.0000
     30 C18        8.2668    1.4665    0.0170 C.ar      2 RES2    0.0000
     31 C19        7.0242    1.1315    0.4570 C.ar      2 RES2    0.0000
     32 C20       13.7650    2.5628   -4.8855 C.ar      2 RES2    0.0000
     33 C21       12.4452    2.1878   -4.6994 C.ar      2 RES2    0.0000
     34 C22       11.8934    2.2029   -3.4554 C.ar      2 RES2    0.0000
     35 C23       12.6195    2.6132   -2.3364 C.ar      2 RES2    0.0000
     36 C24       13.9272    3.0179   -2.5469 C.ar      2 RES2    0.0000
     37 C25       14.5002    2.9951   -3.8056 C.ar      2 RES2    0.0000
     38 C26       12.0722    2.6063   -1.0117 C.2       2 RES2    0.0000
     39 H1         6.8291   -0.5861   -6.9274 H         1 RES1    0.0000
     40 H2         2.8101   -1.0067    0.6929 H         1 RES1    0.0000
     41 H3        -0.7058   -2.1029    3.2472 H         1 RES1    0.0000
     42 H4         1.4860   -1.6134    2.5800 H         1 RES1    0.0000
     43 H5        15.1202    2.8200   -6.1884 H         2 RES2    0.0000
     44 H6         0.0797   -1.6410   -1.3803 H         1 RES1    0.0000
     45 H7        11.0503    2.6063    1.1758 H         2 RES2    0.0000
     46 H8        -2.0667   -2.0892   -0.4957 H         1 RES1    0.0000
     47 H9         3.4494   -1.1583   -5.9267 H         1 RES1    0.0000
     48 H10        2.5129   -1.3031   -3.7835 H         1 RES1    0.0000
     49 H11        6.1502   -0.3585   -2.3202 H         1 RES1    0.0000
     50 H12        7.1273   -0.2551   -4.4930 H         1 RES1    0.0000
     51 H13        4.4438   -0.6274   -0.7888 H         1 RES1    0.0000
     52 H14        7.4844    1.3859    3.6545 H         2 RES2    0.0000
     53 H15        9.6992    1.9375    2.9173 H         2 RES2    0.0000
     54 H16        8.4968    1.4686   -0.9823 H         2 RES2    0.0000
     55 H17        6.4202    0.9653   -0.0553 H         2 RES2    0.0000
     56 H18       11.8363    1.7720   -5.4918 H         2 RES2    0.0000
     57 H19       10.9538    1.8547   -3.2969 H         2 RES2    0.0000
     58 H20       14.4159    3.3164   -1.8263 H         2 RES2    0.0000
     59 H21       15.4163    3.2337   -3.9198 H         2 RES2    0.0000
     60 H22       12.6112    2.8890   -0.3059 H         2 RES2    0.0000
@<TRIPOS>BOND
     1    1   19 1
     2    2    7 2
     3    3    7 2
     4    4   32 1
     5    5   10 2
     6    6   10 2
     7    7   13 1
     8    8    9 1
     9    9   25 2
    10   10   26 1
    11   11   12 1
    12   12   38 2
    13   13   14 ar
    14   14   15 ar
    15   15   16 ar
    16   16    8 1
    17   17   16 ar
    18   18   13 ar
    19   19   20 ar
    20   20   21 ar
    21   21   22 ar
    22   22   23 ar
    23   23   24 ar
    24   24   19 ar
    25   25   22 1
    26   26   27 ar
    27   27   28 ar
    28   28   29 ar
    29   29   11 1
    30   30   29 ar
    31   31   26 ar
    32   32   33 ar
    33   33   34 ar
    34   34   35 ar
    35   35   36 ar
    36   36   37 ar
    37   37   32 ar
    38   38   35 1
    39   39    1 1
    40   40    8 1
    41   41   14 1
    42   42   15 1
    43   43    4 1
    44   44   17 1
    45   45   11 1
    46   46   18 1
    47   47   20 1
    48   48   21 1
    49   49   23 1
    50   50   24 1
    51   51   25 1
    52   52   27 1
    53   53   28 1
    54   54   30 1
    55   55   31 1
    56   56   33 1
    57   57   34 1
    58   58   36 1
    59   59   37 1
    60   60   38 1
    61   17   18 ar
    62   30   31 ar
@<TRIPOS>SUBSTRUCTURE
     1 RES1 1
     2 RES2 4

@<TRIPOS>CRYSIN
  18.1930    6.8949   19.3870  90.0000 108.0880  90.0000 231 1

