# MOL2 file generated by ConQuest
# Please check atom types

@<TRIPOS>MOLECULE
IVAGUH
    20    20     1
SMALL
NO_CHARGES
****
Generated from CSD

@<TRIPOS>ATOM
      1 O1        -2.9280    6.5095    4.2077 O.3       1 RES1    0.0000
      2 O2         2.8358    6.0153    6.6620 O.2       1 RES1    0.0000
      3 O3         2.3265    8.0322    6.0459 O.2       1 RES1    0.0000
      4 O4         0.8008    6.4051    6.0448 O.3       1 RES1    0.0000
      5 O5        -1.8663    7.6093    8.0650 O.3       1 RES1    0.0000
      6 H1        -1.1049    7.7268    8.4010 H         1 RES1    0.0000
      7 N1         2.0877    6.8734    6.2618 N.pl3     1 RES1    0.0000
      8 C1        -1.5045    6.8278    5.7869 C.3       1 RES1    0.0000
      9 C2        -1.8408    5.7148    4.7690 C.3       1 RES1    0.0000
     10 H2        -1.1110    5.5371    4.1244 H         1 RES1    0.0000
     11 H3        -2.1470    4.8736    5.1922 H         1 RES1    0.0000
     12 C3        -2.5922    7.6402    5.0677 C.3       1 RES1    0.0000
     13 H4        -3.3349    7.9148    5.6625 H         1 RES1    0.0000
     14 H5        -2.2362    8.4191    4.5707 H         1 RES1    0.0000
     15 C4        -1.8403    6.4639    7.2171 C.3       1 RES1    0.0000
     16 H6        -2.7250    6.0201    7.2420 H         1 RES1    0.0000
     17 H7        -1.1680    5.8218    7.5573 H         1 RES1    0.0000
     18 C5        -0.1313    7.4457    5.6376 C.3       1 RES1    0.0000
     19 H8         0.0314    7.7147    4.6989 H         1 RES1    0.0000
     20 H9        -0.0417    8.2433    6.2175 H         1 RES1    0.0000
@<TRIPOS>BOND
     1    1    9 1
     2    2    7 2
     3    3    7 2
     4    4    7 1
     5    5    6 1
     6    8    9 1
     7    9   10 1
     8   11    9 1
     9   12    1 1
    10   13   12 1
    11   14   12 1
    12   15    5 1
    13   16   15 1
    14   17   15 1
    15   18    4 1
    16   19   18 1
    17   20   18 1
    18    8   12 1
    19    8   15 1
    20    8   18 1
@<TRIPOS>SUBSTRUCTURE
     1 RES1 1

@<TRIPOS>CRYSIN
   8.2850    9.3060    9.2590  90.0000  95.2100  90.0000 231 1

