# MOL2 file generated by ConQuest
# Please check atom types

@<TRIPOS>MOLECULE
IVAHAQ
    78    86     1
SMALL
NO_CHARGES
****
Generated from CSD

@<TRIPOS>ATOM
      1 C1         5.6547    7.6709    6.1068 C.2       1 RES1    0.0000
      2 C2         4.5799    6.7484    6.1592 C.2       1 RES1    0.0000
      3 H1         3.8585    6.7508    6.7786 H         1 RES1    0.0000
      4 C3         4.7855    5.8481    5.1395 C.2       1 RES1    0.0000
      5 H2         4.2396    5.0981    4.9348 H         1 RES1    0.0000
      6 C4         5.9540    6.2413    4.4500 C.2       1 RES1    0.0000
      7 C5         6.4915    5.7492    3.2533 C.2       1 RES1    0.0000
      8 C6         7.5352    6.3497    2.5381 C.2       1 RES1    0.0000
      9 C7         8.0789    6.0111    1.2772 C.2       1 RES1    0.0000
     10 H3         7.8122    5.2840    0.7271 H         1 RES1    0.0000
     11 C8         9.0654    6.9280    0.9950 C.2       1 RES1    0.0000
     12 H4         9.6014    6.9581    0.2129 H         1 RES1    0.0000
     13 C9         9.1278    7.8212    2.0983 C.2       1 RES1    0.0000
     14 C10       10.0503    8.9628    2.2869 C.ar      1 RES1    0.0000
     15 C11        9.8348   10.1456    1.5933 C.ar      1 RES1    0.0000
     16 H5         9.0718   10.2231    1.0324 H         1 RES1    0.0000
     17 C12       10.7075   11.2128    1.6998 C.ar      1 RES1    0.0000
     18 H6        10.5231   12.0261    1.2453 H         1 RES1    0.0000
     19 C13       11.8287   11.0949    2.4570 C.ar      1 RES1    0.0000
     20 H7        12.4429   11.8180    2.5146 H         1 RES1    0.0000
     21 C14       12.0739    9.9264    3.1415 C.ar      1 RES1    0.0000
     22 H8        12.8687    9.8457    3.6554 H         1 RES1    0.0000
     23 C15       11.1824    8.8624    3.0959 C.ar      1 RES1    0.0000
     24 C16        5.8854    4.4960    2.7042 C.ar      1 RES1    0.0000
     25 C17        4.9858    4.5356    1.6417 C.ar      1 RES1    0.0000
     26 H9         4.7626    5.3679    1.2412 H         1 RES1    0.0000
     27 C18        4.4136    3.3623    1.1637 C.ar      1 RES1    0.0000
     28 H10        3.7905    3.3813    0.4459 H         1 RES1    0.0000
     29 C19        4.7734    2.1685    1.7586 C.ar      1 RES1    0.0000
     30 C20        5.6622    2.0949    2.8105 C.ar      1 RES1    0.0000
     31 H11        5.8922    1.2595    3.1995 H         1 RES1    0.0000
     32 C21        6.2120    3.2777    3.2829 C.ar      1 RES1    0.0000
     33 H12        6.8202    3.2532    4.0129 H         1 RES1    0.0000
     34 N1         6.4712    7.3726    5.0897 N.2       1 RES1    0.0000
     35 N2         8.2135    7.4723    2.9995 N.pl3     1 RES1    0.0000
     36 H13        8.0621    7.8845    3.7619 H         1 RES1    0.0000
     37 N3         4.1659    0.9209    1.2696 N.pl3     1 RES1    0.0000
     38 O1         3.3403    0.9917    0.3706 O.2       1 RES1    0.0000
     39 O2         4.5129   -0.1323    1.7817 O.2       1 RES1    0.0000
     40 C1A       11.4290    7.6709    3.9356 C.2       1 RES1    0.0000
     41 C2A       12.5038    6.7484    3.8832 C.2       1 RES1    0.0000
     42 H1A       13.2252    6.7508    3.2638 H         1 RES1    0.0000
     43 C3A       12.2982    5.8481    4.9029 C.2       1 RES1    0.0000
     44 H2A       12.8441    5.0981    5.1076 H         1 RES1    0.0000
     45 C4A       11.1297    6.2413    5.5924 C.2       1 RES1    0.0000
     46 C5A       10.5922    5.7492    6.7891 C.2       1 RES1    0.0000
     47 C6A        9.5485    6.3497    7.5043 C.2       1 RES1    0.0000
     48 C7A        9.0048    6.0111    8.7652 C.2       1 RES1    0.0000
     49 H3A        9.2715    5.2840    9.3153 H         1 RES1    0.0000
     50 C8A        8.0183    6.9280    9.0474 C.2       1 RES1    0.0000
     51 H4A        7.4823    6.9581    9.8295 H         1 RES1    0.0000
     52 C9A        7.9559    7.8212    7.9441 C.2       1 RES1    0.0000
     53 C10A       7.0334    8.9628    7.7555 C.ar      1 RES1    0.0000
     54 C11A       7.2489   10.1456    8.4491 C.ar      1 RES1    0.0000
     55 H5A        8.0119   10.2231    9.0100 H         1 RES1    0.0000
     56 C12A       6.3762   11.2128    8.3426 C.ar      1 RES1    0.0000
     57 H6A        6.5606   12.0261    8.7971 H         1 RES1    0.0000
     58 C13A       5.2550   11.0949    7.5854 C.ar      1 RES1    0.0000
     59 H7A        4.6408   11.8180    7.5278 H         1 RES1    0.0000
     60 C14A       5.0098    9.9264    6.9009 C.ar      1 RES1    0.0000
     61 H8A        4.2150    9.8457    6.3870 H         1 RES1    0.0000
     62 C15A       5.9013    8.8624    6.9465 C.ar      1 RES1    0.0000
     63 C16A      11.1983    4.4960    7.3382 C.ar      1 RES1    0.0000
     64 C17A      12.0979    4.5356    8.4007 C.ar      1 RES1    0.0000
     65 H9A       12.3211    5.3679    8.8011 H         1 RES1    0.0000
     66 C18A      12.6701    3.3623    8.8787 C.ar      1 RES1    0.0000
     67 H10A      13.2932    3.3813    9.5965 H         1 RES1    0.0000
     68 C19A      12.3103    2.1685    8.2838 C.ar      1 RES1    0.0000
     69 C20A      11.4215    2.0949    7.2319 C.ar      1 RES1    0.0000
     70 H11A      11.1915    1.2595    6.8429 H         1 RES1    0.0000
     71 C21A      10.8717    3.2777    6.7595 C.ar      1 RES1    0.0000
     72 H12A      10.2635    3.2532    6.0294 H         1 RES1    0.0000
     73 N1A       10.6125    7.3726    4.9527 N.2       1 RES1    0.0000
     74 N2A        8.8702    7.4723    7.0429 N.pl3     1 RES1    0.0000
     75 H13A       9.0216    7.8845    6.2805 H         1 RES1    0.0000
     76 N3A       12.9178    0.9209    8.7728 N.pl3     1 RES1    0.0000
     77 O1A       13.7434    0.9917    9.6718 O.2       1 RES1    0.0000
     78 O2A       12.5708   -0.1323    8.2607 O.2       1 RES1    0.0000
@<TRIPOS>BOND
     1    1    2 1
     2    2    3 1
     3    4    2 2
     4    5    4 1
     5    6    4 1
     6    7    6 2
     7    8    7 1
     8    9    8 2
     9   10    9 1
    10   11    9 1
    11   12   11 1
    12   13   11 2
    13   14   13 1
    14   15   14 ar
    15   16   15 1
    16   17   15 ar
    17   18   17 1
    18   19   17 ar
    19   20   19 1
    20   21   19 ar
    21   22   21 1
    22   23   14 ar
    23   24    7 1
    24   25   24 ar
    25   26   25 1
    26   27   25 ar
    27   28   27 1
    28   29   27 ar
    29   30   29 ar
    30   31   30 1
    31   32   24 ar
    32   33   32 1
    33   34    1 2
    34   35    8 1
    35   36   35 1
    36   37   29 1
    37   38   37 2
    38   39   37 2
    39   40   23 1
    40   41   40 1
    41   42   41 1
    42   43   41 2
    43   44   43 1
    44   45   43 1
    45   46   45 2
    46   47   46 1
    47   48   47 2
    48   49   48 1
    49   50   48 1
    50   51   50 1
    51   52   50 2
    52   53   52 1
    53   54   53 ar
    54   55   54 1
    55   56   54 ar
    56   57   56 1
    57   58   56 ar
    58   59   58 1
    59   60   58 ar
    60   61   60 1
    61   62    1 1
    62   63   46 1
    63   64   63 ar
    64   65   64 1
    65   66   64 ar
    66   67   66 1
    67   68   66 ar
    68   69   68 ar
    69   70   69 1
    70   71   63 ar
    71   72   71 1
    72   73   40 2
    73   74   47 1
    74   75   74 1
    75   76   68 1
    76   77   76 2
    77   78   76 2
    78    6   34 1
    79   13   35 1
    80   21   23 ar
    81   30   32 ar
    82   45   73 1
    83   52   74 1
    84   53   62 ar
    85   60   62 ar
    86   69   71 ar
@<TRIPOS>SUBSTRUCTURE
     1 RES1 1

@<TRIPOS>CRYSIN
  21.3970    7.9114   21.8590  90.0000 113.2440  90.0000  15 1

