# MOL2 file generated by ConQuest
# Please check atom types

@<TRIPOS>MOLECULE
IVATUV
    42    44     1
SMALL
NO_CHARGES
****
Generated from CSD

@<TRIPOS>ATOM
      1 C1         5.6616   -1.4933    1.7851 C.2       1 RES1    0.0000
      2 C2         6.3670   -0.2183    1.9405 C.2       1 RES1    0.0000
      3 C3         6.5600    0.2364    0.5743 C.2       1 RES1    0.0000
      4 C4         7.3815    1.3316    0.0285 C.ar      1 RES1    0.0000
      5 C5         8.5811    1.6859    0.6443 C.ar      1 RES1    0.0000
      6 H1         8.8466    1.2585    1.4259 H         1 RES1    0.0000
      7 C6         9.3743    2.6710    0.0934 C.ar      1 RES1    0.0000
      8 H2        10.1676    2.9120    0.5143 H         1 RES1    0.0000
      9 C7         9.0032    3.2989   -1.0700 C.ar      1 RES1    0.0000
     10 H3         9.5411    3.9656   -1.4327 H         1 RES1    0.0000
     11 C8         7.8281    2.9359   -1.7001 C.ar      1 RES1    0.0000
     12 H4         7.5833    3.3495   -2.4963 H         1 RES1    0.0000
     13 C9         7.0181    1.9639   -1.1539 C.ar      1 RES1    0.0000
     14 H5         6.2242    1.7305   -1.5788 H         1 RES1    0.0000
     15 C10        6.6616    0.2348    3.1857 C.2       1 RES1    0.0000
     16 H6         6.4981   -0.3829    3.8619 H         1 RES1    0.0000
     17 C11        7.1811    1.4979    3.6551 C.ar      1 RES1    0.0000
     18 C12        8.0251    1.5117    4.7904 C.ar      1 RES1    0.0000
     19 C13        8.5586    2.6844    5.2783 C.ar      1 RES1    0.0000
     20 H7         9.1320    2.6726    6.0095 H         1 RES1    0.0000
     21 C14        8.2274    3.8861    4.6616 C.ar      1 RES1    0.0000
     22 C15        7.3303    3.9382    3.6013 C.ar      1 RES1    0.0000
     23 H8         7.0785    4.7528    3.2307 H         1 RES1    0.0000
     24 C16        6.8189    2.7431    3.1078 C.ar      1 RES1    0.0000
     25 C17        9.0467    0.2306    6.5297 C.3       1 RES1    0.0000
     26 H9         9.1724   -0.6856    6.7868 H         1 RES1    0.0000
     27 H10        8.5637    0.6927    7.2192 H         1 RES1    0.0000
     28 H11        9.9014    0.6478    6.4030 H         1 RES1    0.0000
     29 C18        8.4467    6.2700    4.7435 C.3       1 RES1    0.0000
     30 H12        8.9802    6.9362    5.1826 H         1 RES1    0.0000
     31 H13        7.5229    6.4014    4.9683 H         1 RES1    0.0000
     32 H14        8.5586    6.3452    3.7927 H         1 RES1    0.0000
     33 C19        5.5609    3.8884    1.4246 C.3       1 RES1    0.0000
     34 H15        4.9048    3.6966    0.7500 H         1 RES1    0.0000
     35 H16        6.3467    4.2549    1.0120 H         1 RES1    0.0000
     36 H17        5.2021    4.5233    2.0493 H         1 RES1    0.0000
     37 N1         6.0127   -0.5701   -0.2816 N.2       1 RES1    0.0000
     38 O1         8.3030    0.2858    5.3082 O.3       1 RES1    0.0000
     39 O2         5.3966   -1.6467    0.4495 O.3       1 RES1    0.0000
     40 O3         5.3029   -2.3222    2.5813 O.2       1 RES1    0.0000
     41 O4         8.8594    4.9734    5.1692 O.3       1 RES1    0.0000
     42 O5         5.9016    2.6866    2.1116 O.3       1 RES1    0.0000
@<TRIPOS>BOND
     1    1    2 1
     2    2    3 1
     3    3    4 1
     4    4    5 ar
     5    5    6 1
     6    7    5 ar
     7    8    7 1
     8    9    7 ar
     9   10    9 1
    10   11    9 ar
    11   12   11 1
    12   13    4 ar
    13   14   13 1
    14   15    2 2
    15   16   15 1
    16   17   15 1
    17   18   17 ar
    18   19   18 ar
    19   20   19 1
    20   21   19 ar
    21   22   21 ar
    22   23   22 1
    23   24   17 ar
    24   25   26 1
    25   27   25 1
    26   28   25 1
    27   29   30 1
    28   31   29 1
    29   32   29 1
    30   33   34 1
    31   35   33 1
    32   36   33 1
    33   37    3 2
    34   38   18 1
    35   39    1 1
    36   40    1 2
    37   41   21 1
    38   42   24 1
    39   11   13 ar
    40   22   24 ar
    41   25   38 1
    42   29   41 1
    43   33   42 1
    44   37   39 1
@<TRIPOS>SUBSTRUCTURE
     1 RES1 1

@<TRIPOS>CRYSIN
   8.9601    9.4049   10.4677  73.9680  74.8980  85.7450   2 1

