# MOL2 file generated by ConQuest
# Please check atom types

@<TRIPOS>MOLECULE
IVEQIL
    40    41     1
SMALL
NO_CHARGES
****
Generated from CSD

@<TRIPOS>ATOM
      1 O1         2.8572    5.5854    2.5497 O.3       1 RES1    0.0000
      2 O2         2.9766    1.6323    4.9897 O.2       1 RES1    0.0000
      3 O3         3.9735    1.5927    2.9706 O.3       1 RES1    0.0000
      4 O4        -2.8174    2.8240   -0.1878 O.2       1 RES1    0.0000
      5 O5        -1.6941    1.1116   -0.8998 O.2       1 RES1    0.0000
      6 N1         3.1367    4.5048    4.6036 N.2       1 RES1    0.0000
      7 N2        -1.7752    2.1675   -0.2795 N.pl3     1 RES1    0.0000
      8 C1         2.9513    5.8124    3.9812 C.3       1 RES1    0.0000
      9 H1         2.1141    6.2076    4.3008 H         1 RES1    0.0000
     10 C2         4.1018    6.7617    4.2819 C.3       1 RES1    0.0000
     11 H2         3.9512    7.5741    3.7544 H         1 RES1    0.0000
     12 C3         5.4409    6.1844    3.8441 C.3       1 RES1    0.0000
     13 H3         6.1404    6.8086    4.0477 H         1 RES1    0.0000
     14 H4         5.4246    6.0204    2.8978 H         1 RES1    0.0000
     15 H5         5.6014    5.3603    4.3093 H         1 RES1    0.0000
     16 C4         4.1081    7.1685    5.7355 C.3       1 RES1    0.0000
     17 H6         4.8455    7.7614    5.8980 H         1 RES1    0.0000
     18 H7         4.1972    6.3875    6.2851 H         1 RES1    0.0000
     19 H8         3.2850    7.6154    5.9454 H         1 RES1    0.0000
     20 C5         2.9336    4.1923    2.2881 C.3       1 RES1    0.0000
     21 H9         3.7134    4.0009    1.7269 H         1 RES1    0.0000
     22 C6         3.1530    3.6344    3.6922 C.2       1 RES1    0.0000
     23 C7         3.3433    2.1924    3.9812 C.2       1 RES1    0.0000
     24 C8         1.7417    2.5328    0.8429 C.ar      1 RES1    0.0000
     25 H10        2.5570    2.1039    0.7194 H         1 RES1    0.0000
     26 C9         5.1339   -0.2770    2.0497 C.3       1 RES1    0.0000
     27 H11        5.2726   -1.2249    2.1182 H         1 RES1    0.0000
     28 H12        5.9700    0.1788    2.1699 H         1 RES1    0.0000
     29 H13        4.7775   -0.0685    1.1825 H         1 RES1    0.0000
     30 C10        1.6784    3.6628    1.6267 C.ar      1 RES1    0.0000
     31 C11        4.1676    0.1637    3.1046 C.3       1 RES1    0.0000
     32 H14        3.3218   -0.2986    2.9959 H         1 RES1    0.0000
     33 H15        4.5189   -0.0439    3.9844 H         1 RES1    0.0000
     34 C12        0.6022    2.0280    0.2374 C.ar      1 RES1    0.0000
     35 H16        0.6452    1.2572   -0.2817 H         1 RES1    0.0000
     36 C13       -0.5869    2.6802    0.4146 C.ar      1 RES1    0.0000
     37 C14       -0.6801    3.8093    1.1942 C.ar      1 RES1    0.0000
     38 H17       -1.4952    4.2429    1.3039 H         1 RES1    0.0000
     39 C15        0.4587    4.2881    1.8113 C.ar      1 RES1    0.0000
     40 H18        0.4045    5.0391    2.3567 H         1 RES1    0.0000
@<TRIPOS>BOND
     1    1    8 1
     2    2   23 2
     3    3   23 1
     4    4    7 2
     5    5    7 2
     6    6    8 1
     7    7   36 1
     8    8    9 1
     9   10    8 1
    10   11   10 1
    11   12   10 1
    12   13   12 1
    13   14   12 1
    14   15   12 1
    15   16   10 1
    16   17   16 1
    17   18   16 1
    18   19   16 1
    19   20    1 1
    20   21   20 1
    21   22    6 2
    22   23   22 1
    23   24   25 1
    24   26   27 1
    25   28   26 1
    26   29   26 1
    27   30   20 1
    28   31    3 1
    29   32   31 1
    30   33   31 1
    31   34   24 ar
    32   35   34 1
    33   36   34 ar
    34   37   36 ar
    35   38   37 1
    36   39   30 ar
    37   40   39 1
    38   20   22 1
    39   24   30 ar
    40   26   31 1
    41   37   39 ar
@<TRIPOS>SUBSTRUCTURE
     1 RES1 1

@<TRIPOS>CRYSIN
   7.9090    9.6260   10.5820  89.1400  85.4900  74.5800   2 1

