# MOL2 file generated by ConQuest
# Please check atom types

@<TRIPOS>MOLECULE
IVEQOR
    43    45     1
SMALL
NO_CHARGES
****
Generated from CSD

@<TRIPOS>ATOM
      1 O1        12.1789    0.8890    3.3196 O.3       1 RES1    0.0000
      2 O2        13.0165    4.9666    1.4882 O.3       1 RES1    0.0000
      3 N1         6.0281    2.2204    4.5791 N.pl3     1 RES1    0.0000
      4 O3         5.1062    2.1138    3.7744 O.2       1 RES1    0.0000
      5 O4        11.5739    3.6198    0.4058 O.2       1 RES1    0.0000
      6 O5        18.1976   -1.2795    6.5834 O.2       1 RES1    0.0000
      7 N2        13.5134    2.7076    3.2039 N.2       1 RES1    0.0000
      8 O6         5.8905    2.3886    5.7733 O.2       1 RES1    0.0000
      9 C1         9.7313    1.8663    4.4552 C.ar      1 RES1    0.0000
     10 H1        10.4445    1.7478    5.0421 H         1 RES1    0.0000
     11 C2        16.5493    0.3772    5.1796 C.ar      1 RES1    0.0000
     12 H2        17.3726    0.7221    5.4424 H         1 RES1    0.0000
     13 C3         8.9166    2.0844    2.2181 C.ar      1 RES1    0.0000
     14 H3         9.0733    2.1075    1.3017 H         1 RES1    0.0000
     15 C4        11.3937    1.8194    2.5585 C.3       1 RES1    0.0000
     16 H4        11.3672    1.5291    1.6230 H         1 RES1    0.0000
     17 N3        17.2262   -1.7997    6.0497 N.pl3     1 RES1    0.0000
     18 O7        17.0590   -3.0119    6.0497 O.2       1 RES1    0.0000
     19 C5        13.3809    1.5095    3.5497 C.2       1 RES1    0.0000
     20 C6        14.3812    0.6296    4.1584 C.ar      1 RES1    0.0000
     21 C7         8.4515    1.9764    4.9536 C.ar      1 RES1    0.0000
     22 H5         8.2913    1.9456    5.8699 H         1 RES1    0.0000
     23 C8         9.9730    1.9308    3.0868 C.ar      1 RES1    0.0000
     24 C9         7.6186    2.2064    2.6987 C.ar      1 RES1    0.0000
     25 H6         6.9061    2.3354    2.1146 H         1 RES1    0.0000
     26 C10        7.4076    2.1334    4.0563 C.ar      1 RES1    0.0000
     27 C11       12.2071    3.1136    2.6620 C.3       1 RES1    0.0000
     28 H7        11.7731    3.6801    3.3346 H         1 RES1    0.0000
     29 C12       15.0622   -1.5116    4.9794 C.ar      1 RES1    0.0000
     30 H8        14.9009   -2.4167    5.1210 H         1 RES1    0.0000
     31 C13       12.9501    5.9383    0.3690 C.3       1 RES1    0.0000
     32 H9        12.0372    6.0063    0.0504 H         1 RES1    0.0000
     33 H10       13.2269    6.8140    0.6808 H         1 RES1    0.0000
     34 C14       12.2415    3.8953    1.3630 C.2       1 RES1    0.0000
     35 C15       14.1256   -0.7200    4.3572 C.ar      1 RES1    0.0000
     36 H11       13.3226   -1.0888    4.0685 H         1 RES1    0.0000
     37 C16       13.8289    5.5057   -0.7380 C.3       1 RES1    0.0000
     38 H12       13.7689    6.1360   -1.4597 H         1 RES1    0.0000
     39 H13       13.5523    4.6392   -1.0457 H         1 RES1    0.0000
     40 H14       14.7354    5.4609   -0.4262 H         1 RES1    0.0000
     41 C17       15.5952    1.1814    4.5614 C.ar      1 RES1    0.0000
     42 H15       15.7659    2.0844    4.4184 H         1 RES1    0.0000
     43 C18       16.2338   -0.9374    5.3866 C.ar      1 RES1    0.0000
@<TRIPOS>BOND
     1    1   15 1
     2    2   31 1
     3    3    4 2
     4    5   34 2
     5    6   17 2
     6    7   19 2
     7    8    3 2
     8    9   10 1
     9   11   12 1
    10   13   14 1
    11   15   16 1
    12   17   18 2
    13   19    1 1
    14   20   19 1
    15   21    9 ar
    16   22   21 1
    17   23    9 ar
    18   24   13 ar
    19   25   24 1
    20   26    3 1
    21   27    7 1
    22   28   27 1
    23   29   30 1
    24   31   32 1
    25   33   31 1
    26   34    2 1
    27   35   20 ar
    28   36   35 1
    29   37   31 1
    30   38   37 1
    31   39   37 1
    32   40   37 1
    33   41   11 ar
    34   42   41 1
    35   43   11 ar
    36   13   23 ar
    37   15   23 1
    38   15   27 1
    39   17   43 1
    40   20   41 ar
    41   21   26 ar
    42   24   26 ar
    43   27   34 1
    44   29   35 ar
    45   29   43 ar
@<TRIPOS>SUBSTRUCTURE
     1 RES1 1

@<TRIPOS>CRYSIN
  17.7870    7.0110   14.5320  90.0000 110.4500  90.0000  14 1

