# MOL2 file generated by ConQuest
# Please check atom types

@<TRIPOS>MOLECULE
IVEREH
    24    24     1
SMALL
USER_CHARGES
****
Generated from CSD

@<TRIPOS>ATOM
      1 O1         1.0981    6.7928    3.5341 O.2       1 RES1   -1.0000
      2 N1         2.9286    5.0972    4.4144 N.pl3     1 RES1    1.0000
      3 C1         2.8071    5.9084    2.1694 C.ar      1 RES1    0.0000
      4 C2         1.6627    6.7512    2.4122 C.ar      1 RES1    0.0000
      5 C3         1.2076    7.5330    1.3053 C.ar      1 RES1    0.0000
      6 C4         1.7852    7.4387    0.0796 C.ar      1 RES1    0.0000
      7 C5         2.8687    6.5717   -0.1229 C.ar      1 RES1    0.0000
      8 N2         3.4427    6.4493   -1.4342 N.pl3     1 RES1    0.0000
      9 O2         2.9189    7.0503   -2.3598 O.2       1 RES1    0.0000
     10 O3         4.4323    5.7408   -1.5923 O.2       1 RES1    0.0000
     11 C6         3.3812    5.8285    0.9014 C.ar      1 RES1    0.0000
     12 C7         3.3673    5.1241    3.2028 C.2       1 RES1    0.0000
     13 C8         3.4696    4.2539    5.4619 C.3       1 RES1    0.0000
     14 C9         2.4899    3.1862    5.8496 C.3       1 RES1    0.0000
     15 H1         2.2326    5.6304    4.6128 H         1 RES1    0.0000
     16 H2         0.5190    8.1150    1.4705 H         1 RES1    0.0000
     17 H3         1.4355    8.0150   -0.6547 H         1 RES1    0.0000
     18 H4         4.1495    5.2320    0.8057 H         1 RES1    0.0000
     19 H5         4.1304    4.5940    3.0215 H         1 RES1    0.0000
     20 H6         3.6839    4.8335    6.1941 H         1 RES1    0.0000
     21 H7         4.2808    3.8942    5.1265 H         1 RES1    0.0000
     22 H8         2.8885    2.6180    6.5768 H         1 RES1    0.0000
     23 H9         2.2772    2.6549    5.0761 H         1 RES1    0.0000
     24 H10        1.6605    3.6117    6.2344 H         1 RES1    0.0000
@<TRIPOS>BOND
     1    1    4 1
     2    2   12 2
     3    3    4 ar
     4    4    5 ar
     5    5    6 ar
     6    6    7 ar
     7    7    8 1
     8    8    9 2
     9   10    8 2
    10   11    3 ar
    11   12    3 1
    12   13    2 1
    13   14   13 1
    14   15    2 1
    15   16    5 1
    16   17    6 1
    17   18   11 1
    18   19   12 1
    19   20   13 1
    20   21   13 1
    21   22   14 1
    22   23   14 1
    23   24   14 1
    24    7   11 ar
@<TRIPOS>SUBSTRUCTURE
     1 RES1 1

@<TRIPOS>CRYSIN
   4.9880    9.1020   11.0570  68.8000  78.2400  89.2000   2 1

