# MOL2 file generated by ConQuest
# Please check atom types

@<TRIPOS>MOLECULE
IVEWIQ
    94    84     2
SMALL
NO_CHARGES
****
Generated from CSD

@<TRIPOS>ATOM
      1 C1         5.6125   11.7793   12.9685 C.2       1 RES1    0.0000
      2 C2         4.9353   10.8395   12.0082 C.3       1 RES1    0.0000
      3 H1         4.5336   10.0892   12.5319 H         1 RES1    0.0000
      4 C3         6.0274   10.2621   11.0950 C.3       1 RES1    0.0000
      5 H2         5.6422    9.5321   10.5292 H         1 RES1    0.0000
      6 C4         7.1467    9.6931   11.9838 C.3       1 RES1    0.0000
      7 H3         6.7322    9.0438   12.6218 H         1 RES1    0.0000
      8 C5         6.8330   11.2685   13.6866 C.3       1 RES1    0.0000
      9 H4         6.5876   10.5913   14.3813 H         1 RES1    0.0000
     10 C6         7.3499   12.5612   14.3300 C.3       1 RES1    0.0000
     11 C7         7.5704   12.4262   15.8606 C.2       1 RES1    0.0000
     12 C8         7.8544   13.6264   16.6858 C.ar      1 RES1    0.0000
     13 C9         7.7828   13.4732   18.0805 C.ar      1 RES1    0.0000
     14 H5         7.5352   12.6361   18.4552 H         1 RES1    0.0000
     15 C10        8.0725   14.5429   18.9085 C.ar      1 RES1    0.0000
     16 H6         7.9996   14.4357   19.8498 H         1 RES1    0.0000
     17 C11        8.4708   15.7790   18.3874 C.ar      1 RES1    0.0000
     18 C12        8.8485   16.9198   19.2911 C.3       1 RES1    0.0000
     19 H7         8.0740   17.1776   19.8334 H         1 RES1    0.0000
     20 H8         9.1372   17.6842   18.7490 H         1 RES1    0.0000
     21 H9         9.5811   16.6411   19.8790 H         1 RES1    0.0000
     22 C13        8.5109   15.9238   16.9982 C.ar      1 RES1    0.0000
     23 H10        8.7599   16.7603   16.6234 H         1 RES1    0.0000
     24 C14        8.1937   14.8650   16.1525 C.ar      1 RES1    0.0000
     25 H11        8.2086   14.9882   15.2110 H         1 RES1    0.0000
     26 C15        2.6898   11.4851   11.9835 C.3       1 RES1    0.0000
     27 H12        2.8369   11.9450   12.8473 H         1 RES1    0.0000
     28 H13        2.3782   10.5649   12.1709 H         1 RES1    0.0000
     29 C16        1.6526   12.2214   11.1834 C.ar      1 RES1    0.0000
     30 C17        0.3134   11.8521   11.2992 C.ar      1 RES1    0.0000
     31 H14        0.0686   11.1426   11.8808 H         1 RES1    0.0000
     32 C18       -0.6685   12.5168   10.5675 C.ar      1 RES1    0.0000
     33 H15       -1.5799   12.2602   10.6495 H         1 RES1    0.0000
     34 C19       -0.3108   13.5557    9.7172 C.ar      1 RES1    0.0000
     35 H16       -0.9776   14.0036    9.2105 H         1 RES1    0.0000
     36 C20        1.0219   13.9422    9.6046 C.ar      1 RES1    0.0000
     37 H17        1.2630   14.6616    9.0319 H         1 RES1    0.0000
     38 C21        2.0040   13.2698   10.3355 C.ar      1 RES1    0.0000
     39 H18        2.9149   13.5279   10.2543 H         1 RES1    0.0000
     40 C22        5.9476   11.4255    8.9782 C.3       1 RES1    0.0000
     41 H19        6.2458   12.2774    8.5708 H         1 RES1    0.0000
     42 H20        4.9701   11.4853    9.1205 H         1 RES1    0.0000
     43 C23        6.2346   10.2968    8.0177 C.ar      1 RES1    0.0000
     44 C24        7.5393   10.0421    7.5934 C.ar      1 RES1    0.0000
     45 H21        8.2557   10.5626    7.9361 H         1 RES1    0.0000
     46 C25        7.7985    9.0342    6.6759 C.ar      1 RES1    0.0000
     47 H22        8.6916    8.8639    6.3996 H         1 RES1    0.0000
     48 C26        6.7557    8.2737    6.1602 C.ar      1 RES1    0.0000
     49 H23        6.9327    7.5915    5.5230 H         1 RES1    0.0000
     50 C27        5.4573    8.5143    6.5807 C.ar      1 RES1    0.0000
     51 H24        4.7434    7.9904    6.2362 H         1 RES1    0.0000
     52 C28        5.1947    9.5226    7.5094 C.ar      1 RES1    0.0000
     53 H25        4.3026    9.6811    7.7955 H         1 RES1    0.0000
     54 C29        8.2151    8.9567   11.1999 C.3       1 RES1    0.0000
     55 H26        8.5001    9.4679   10.4025 H         1 RES1    0.0000
     56 H27        9.0053    8.7538   11.7604 H         1 RES1    0.0000
     57 O1         7.5492    7.8242   10.6596 O.3       1 RES1    0.0000
     58 C30        8.3494    6.8396   10.0136 C.3       1 RES1    0.0000
     59 H28        9.1035    6.5691   10.5963 H         1 RES1    0.0000
     60 H29        8.7172    7.1949    9.1649 H         1 RES1    0.0000
     61 C31        7.4406    5.6601    9.7438 C.ar      1 RES1    0.0000
     62 C32        6.2577    5.8997    9.0065 C.ar      1 RES1    0.0000
     63 H30        6.0881    6.7663    8.6544 H         1 RES1    0.0000
     64 C33        5.3397    4.8738    8.7937 C.ar      1 RES1    0.0000
     65 H31        4.5652    5.0205    8.2630 H         1 RES1    0.0000
     66 C34        5.5758    3.6244    9.3714 C.ar      1 RES1    0.0000
     67 H32        4.9550    2.9183    9.2320 H         1 RES1    0.0000
     68 C35        6.7055    3.4032   10.1453 C.ar      1 RES1    0.0000
     69 H33        6.8516    2.5538   10.5482 H         1 RES1    0.0000
     70 C36        7.6306    4.4382   10.3315 C.ar      1 RES1    0.0000
     71 H34        8.3985    4.2915   10.8712 H         1 RES1    0.0000
     72 N1         5.3250   12.9949   13.1939 N.2       1 RES1    0.0000
     73 O2         7.7746   10.7361   12.7575 O.3       1 RES1    0.0000
     74 O3         8.5331   13.0334   13.7581 O.3       1 RES1    0.0000
     75 H35        8.6433   12.6751   13.0069 H         1 RES1    0.0000
     76 O4         7.5022   11.3169   16.3605 O.2       1 RES1    0.0000
     77 O5         6.2808   13.5151   14.1456 O.3       1 RES1    0.0000
     78 O6         3.9161   11.4415   11.2402 O.3       1 RES1    0.0000
     79 O7         6.5981   11.2660   10.2593 O.3       1 RES1    0.0000
     80 C37        8.2104    6.9966    9.8717 Du        2 SUP2    0.0000
     81 C38        7.3752    5.7541    9.7691 Du        2 SUP2    0.0000
     82 C39        7.8320    4.5575   10.3125 Du        2 SUP2    0.0000
     83 C40        7.0386    3.4376   10.3328 Du        2 SUP2    0.0000
     84 C41        5.7721    3.4823    9.7666 Du        2 SUP2    0.0000
     85 C42        5.3326    4.6228    9.1383 Du        2 SUP2    0.0000
     86 C43        6.1477    5.7576    9.0914 Du        2 SUP2    0.0000
     87 H36        9.1285    6.7846   10.1783 Du        2 SUP2    0.0000
     88 H37        8.2605    7.4666    9.0027 Du        2 SUP2    0.0000
     89 H38        8.7087    4.5139   10.6748 Du        2 SUP2    0.0000
     90 H39        7.3532    2.6364   10.7344 Du        2 SUP2    0.0000
     91 H40        5.2057    2.7212    9.8122 Du        2 SUP2    0.0000
     92 H41        4.4729    4.6400    8.7342 Du        2 SUP2    0.0000
     93 H42        5.8712    6.5255    8.6050 Du        2 SUP2    0.0000
     94 O8         7.5110    7.7807   10.8420 Du        2 SUP2    0.0000
@<TRIPOS>BOND
     1    1    2 1
     2    2    3 1
     3    4    2 1
     4    5    4 1
     5    6    4 1
     6    7    6 1
     7    8    1 1
     8    9    8 1
     9   10    8 1
    10   11   10 1
    11   12   11 1
    12   13   12 ar
    13   14   13 1
    14   15   13 ar
    15   16   15 1
    16   17   15 ar
    17   18   17 1
    18   19   18 1
    19   20   18 1
    20   21   18 1
    21   22   17 ar
    22   23   22 1
    23   24   12 ar
    24   25   24 1
    25   26   27 1
    26   28   26 1
    27   29   26 1
    28   30   29 ar
    29   31   30 1
    30   32   30 ar
    31   33   32 1
    32   34   32 ar
    33   35   34 1
    34   36   34 ar
    35   37   36 1
    36   38   29 ar
    37   39   38 1
    38   40   41 1
    39   42   40 1
    40   43   40 1
    41   44   43 ar
    42   45   44 1
    43   46   44 ar
    44   47   46 1
    45   48   46 ar
    46   49   48 1
    47   50   48 ar
    48   51   50 1
    49   52   43 ar
    50   53   52 1
    51   54    6 1
    52   55   54 1
    53   56   54 1
    54   57   54 1
    55   58   57 1
    56   59   58 1
    57   60   58 1
    58   61   58 1
    59   62   61 ar
    60   63   62 1
    61   64   62 ar
    62   65   64 1
    63   66   64 ar
    64   67   66 1
    65   68   66 ar
    66   69   68 1
    67   70   61 ar
    68   71   70 1
    69   72    1 2
    70   73    6 1
    71   74   10 1
    72   75   74 1
    73   76   11 2
    74   77   10 1
    75   78    2 1
    76   79    4 1
    77    8   73 1
    78   22   24 ar
    79   26   78 1
    80   36   38 ar
    81   40   79 1
    82   50   52 ar
    83   68   70 ar
    84   72   77 1
@<TRIPOS>SUBSTRUCTURE
     1 RES1 1
     2 SUP2 80

@<TRIPOS>CRYSIN
  10.4039   11.4624   12.6741  90.0000  91.8610  90.0000   4 1

