# MOL2 file generated by ConQuest
# Please check atom types

@<TRIPOS>MOLECULE
IVILII
    48    52     2
SMALL
NO_CHARGES
****
Generated from CSD

@<TRIPOS>ATOM
      1 N1        -1.0638    6.9222   -0.5508 N.2       1 RES1    0.0000
      2 O1        -0.2430    6.1734    5.0674 O.3       1 RES1    0.0000
      3 N2         1.5498    5.0586   -2.9192 N.2       1 RES1    0.0000
      4 C1        -0.7182    6.5894    0.5508 C.2       1 RES1    0.0000
      5 C2         0.5400    5.7242    0.5508 C.2       1 RES1    0.0000
      6 C3         0.6048    5.6243    2.0196 C.2       1 RES1    0.0000
      7 C4        -2.3706    8.0371    2.5520 C.2       1 RES1    0.0000
      8 N3         1.3176    5.1418   -0.5324 N.2       1 RES1    0.0000
      9 O2         0.3726    8.2202    6.7381 O.2       1 RES1    0.0000
     10 C5         0.9828    5.5245   -1.6524 C.2       1 RES1    0.0000
     11 C6        -0.1998    6.3898   -1.6708 C.2       1 RES1    0.0000
     12 N4        -0.3348    6.4230   -2.9560 N.2       1 RES1    0.0000
     13 C7         0.5076    7.0054    6.2240 C.2       1 RES1    0.0000
     14 C8        -2.6298    8.3866    3.9474 C.2       1 RES1    0.0000
     15 C9         1.2690    4.6259    6.2424 C.2       1 RES1    0.0000
     16 C10       -1.9764    7.8208    4.8654 C.2       1 RES1    0.0000
     17 C11       -0.9450    6.8224    4.2412 C.2       1 RES1    0.0000
     18 C12       -0.5238    6.5562    2.9560 C.2       1 RES1    0.0000
     19 C13        2.7216    4.4595    8.0233 C.2       1 RES1    0.0000
     20 C14        2.5650    5.7408    8.6292 C.2       1 RES1    0.0000
     21 C15        1.8468    6.7226    8.1702 C.2       1 RES1    0.0000
     22 C16        1.0962    5.9738    6.8483 C.2       1 RES1    0.0000
     23 O3        -1.2960    3.3446   -2.4235 O.2       2 RES2    0.0000
     24 O4        -1.8954    2.6790    3.6904 O.3       2 RES2    0.0000
     25 C17       -3.9366    1.2147   -1.9829 C.ar      2 RES2    0.0000
     26 N5        -3.0294    1.9302    2.9560 N.2       2 RES2    0.0000
     27 N6        -1.3716    3.1782    0.4774 N.2       2 RES2    0.0000
     28 O5        -2.9700    2.1133   -5.0123 O.3       2 RES2    0.0000
     29 C18       -2.1384    1.4810   -6.2975 C.2       2 RES2    0.0000
     30 C19       -3.2292    1.8138   -2.8274 C.ar      2 RES2    0.0000
     31 C20       -2.0790    2.7123   -1.9829 C.2       2 RES2    0.0000
     32 C21       -2.1600    2.6291   -0.5508 C.2       2 RES2    0.0000
     33 C22       -3.3912    1.6806   -0.6059 C.2       2 RES2    0.0000
     34 N7        -3.7422    1.3811    0.5324 N.2       2 RES2    0.0000
     35 C23       -2.8944    2.0134    1.6891 C.2       2 RES2    0.0000
     36 C24       -3.5208    1.4477   -4.2595 C.ar      2 RES2    0.0000
     37 O6        -2.3436    0.0499   -6.7565 O.2       2 RES2    0.0000
     38 C25       -1.7334    2.8621    1.5973 C.2       2 RES2    0.0000
     39 C26       -4.6710    0.5824   -4.7920 C.ar      2 RES2    0.0000
     40 C27       -5.3136    0.0166   -3.9290 C.ar      2 RES2    0.0000
     41 C28       -5.0166    0.2829   -2.5337 C.ar      2 RES2    0.0000
     42 N8        -1.1826    3.2448    2.8642 N.2       2 RES2    0.0000
     43 C29       -1.4688    3.7773   -6.2057 C.ar      2 RES2    0.0000
     44 C30       -0.7020    4.6592   -6.7932 C.ar      2 RES2    0.0000
     45 C31       -1.6092    2.2630   -6.8483 C.ar      2 RES2    0.0000
     46 C32       -0.7560    1.7139   -8.1518 C.ar      2 RES2    0.0000
     47 C33       -0.3240    2.3795   -8.7210 C.ar      2 RES2    0.0000
     48 C34        0.0756    4.0102   -7.9499 C.ar      2 RES2    0.0000
@<TRIPOS>BOND
     1    1    4 1
     2    2   13 1
     3    3   10 1
     4    4    5 1
     5    5    6 1
     6    6   18 1
     7    7   14 1
     8    8    5 1
     9    9   13 1
    10   10    8 1
    11   11    1 1
    12   12   11 1
    13   13   22 1
    14   14   16 1
    15   15   22 1
    16   16   17 1
    17   17    2 1
    18   18   17 1
    19   19   20 1
    20   20   21 1
    21   21   22 1
    22   23   31 2
    23   24   26 1
    24   25   30 ar
    25   26   35 2
    26   27   32 2
    27   28   29 1
    28   29   37 2
    29   30   31 1
    30   31   32 1
    31   32   33 1
    32   33   25 1
    33   34   33 2
    34   35   34 1
    35   36   28 1
    36   38   27 1
    37   39   36 ar
    38   40   39 ar
    39   41   25 ar
    40   42   24 1
    41   43   44 ar
    42   44   48 ar
    43   45   29 1
    44   46   45 ar
    45   47   46 ar
    46   48   47 ar
    47   10   11 1
    48   30   36 ar
    49   35   38 1
    50   38   42 2
    51   40   41 ar
    52   43   45 ar
@<TRIPOS>SUBSTRUCTURE
     1 RES1 1
     2 RES2 23

@<TRIPOS>CRYSIN
   5.4000   16.6400   18.3600  90.0000  90.0000  90.0000   2 1

