# MOL2 file generated by ConQuest
# Please check atom types

@<TRIPOS>MOLECULE
IVILOO
    21     4    17
SMALL
NO_CHARGES
****
Generated from CSD

@<TRIPOS>ATOM
      1 O1        29.1472   -5.5968   32.9950 O.2       1 RES1    0.0000
      2 O2        25.3942   -3.7182   30.2718 O.2       2 RES2    0.0000
      3 O3         7.6931    0.3105   12.3107 O.2       3 RES3    0.0000
      4 O4        17.7479    1.2139   25.9668 O.2       4 RES4    0.0000
      5 C1        17.6277    0.3643   25.0093 C.2       4 RES4    0.0000
      6 O5        26.4159   -6.2705   28.7995 O.2       5 RES5    0.0000
      7 C2        26.8678   -5.5440   30.1101 C.2       5 RES5    0.0000
      8 N1        12.7861    0.9625   19.4782 N.2       6 RES6    0.0000
      9 N2         8.5456    1.0903   14.1660 N.2       7 RES7    0.0000
     10 C3        15.9204   -0.9451   21.5921 C.2       8 RES8    0.0000
     11 C4        15.1502    0.2028   21.7438 C.2       8 RES8    0.0000
     12 C5        19.8292   -0.7133   26.6830 C.2       9 RES9    0.0000
     13 C6        23.4108   -2.7625   28.9089 C.2      10 RES10   0.0000
     14 C7        11.7600   -0.5977   16.6977 C.2      11 RES11   0.0000
     15 C8        11.0632    0.5301   16.8619 C.2      11 RES11   0.0000
     16 C9        20.6239   -2.4721   25.7628 C.2      12 RES12   0.0000
     17 C10       22.5739   -1.0190   29.7918 C.2      13 RES13   0.0000
     18 C11       24.7264   -4.3956   28.4587 C.2      14 RES14   0.0000
     19 C12       18.8787   -1.4546   24.7332 C.2      15 RES15   0.0000
     20 C13       24.3369   -2.0434   30.8736 C.2      16 RES16   0.0000
     21 C14       31.1685   -6.7373   34.6563 C.2      17 RES17   0.0000
@<TRIPOS>BOND
     1    4    5 1
     2    6    7 1
     3   10   11 1
     4   14   15 1
@<TRIPOS>SUBSTRUCTURE
     1 RES1 1
     2 RES2 2
     3 RES3 3
     4 RES4 4
     5 RES5 6
     6 RES6 8
     7 RES7 9
     8 RES8 10
     9 RES9 12
    10 RES10 13
    11 RES11 14
    12 RES12 16
    13 RES13 17
    14 RES14 18
    15 RES15 19
    16 RES16 20
    17 RES17 21

@<TRIPOS>CRYSIN
  22.2600    5.2800   24.8700  90.0000  90.0000  90.0000  14 1

