# MOL2 file generated by ConQuest
# Please check atom types

@<TRIPOS>MOLECULE
IVOPUE
    66    70     1
SMALL
NO_CHARGES
****
Generated from CSD

@<TRIPOS>ATOM
      1 O1         0.0820    8.6425    9.9809 O.3       1 RES1    0.0000
      2 O2         5.6559    5.8676    7.2166 O.3       1 RES1    0.0000
      3 O3         3.7459    9.6957    5.9892 O.3       1 RES1    0.0000
      4 O4         2.4995    8.5186    4.5711 O.2       1 RES1    0.0000
      5 N1         4.3226    6.3235    7.2852 N.2       1 RES1    0.0000
      6 C1         0.3012    7.6122   10.9927 C.3       1 RES1    0.0000
      7 C2         0.9244    6.4035   10.3294 C.3       1 RES1    0.0000
      8 H1         0.3083    6.0490    9.6704 H         1 RES1    0.0000
      9 H2         1.0752    5.7152   10.9970 H         1 RES1    0.0000
     10 C3         2.2415    6.7362    9.6508 C.3       1 RES1    0.0000
     11 H3         2.9288    6.8632   10.3228 H         1 RES1    0.0000
     12 H4         2.5097    5.9949    9.0845 H         1 RES1    0.0000
     13 C4         2.1153    7.9873    8.8166 C.ar      1 RES1    0.0000
     14 C5         3.0453    8.3163    7.8156 C.ar      1 RES1    0.0000
     15 C6         2.8138    9.4210    7.0151 C.ar      1 RES1    0.0000
     16 C7         1.7288   10.2788    7.1872 C.ar      1 RES1    0.0000
     17 C8         0.8367   10.0029    8.2382 C.ar      1 RES1    0.0000
     18 C9         1.0424    8.8538    9.0202 C.ar      1 RES1    0.0000
     19 C10        1.1776    8.2097   12.0698 C.3       1 RES1    0.0000
     20 H5         2.0002    8.5141   11.6810 H         1 RES1    0.0000
     21 H6         1.3652    7.5421   12.7353 H         1 RES1    0.0000
     22 H7         0.7239    8.9494   12.4782 H         1 RES1    0.0000
     23 C11       -1.0929    7.3323   11.5165 C.3       1 RES1    0.0000
     24 H8        -1.6487    7.0256   10.7966 H         1 RES1    0.0000
     25 H9        -1.4629    8.1375   11.8858 H         1 RES1    0.0000
     26 H10       -1.0487    6.6579   12.1972 H         1 RES1    0.0000
     27 C12        4.3037    7.5520    7.6207 C.2       1 RES1    0.0000
     28 C13        5.6689    8.1697    7.8407 C.3       1 RES1    0.0000
     29 H11        5.8344    8.8502    7.1556 H         1 RES1    0.0000
     30 C14        6.5737    6.9372    7.5771 C.3       1 RES1    0.0000
     31 H12        7.0428    6.6963    8.4038 H         1 RES1    0.0000
     32 C15        3.4854    9.1321    4.7824 C.2       1 RES1    0.0000
     33 C16        4.5775    9.4276    3.8109 C.3       1 RES1    0.0000
     34 H13        4.2694    9.2471    2.9200 H         1 RES1    0.0000
     35 H14        5.3366    8.8727    4.0058 H         1 RES1    0.0000
     36 H15        4.8293   10.3500    3.8828 H         1 RES1    0.0000
     37 C17        1.5225   11.4484    6.2527 C.3       1 RES1    0.0000
     38 H16        1.3714   12.2446    6.7657 H         1 RES1    0.0000
     39 H17        0.7616   11.2793    5.6918 H         1 RES1    0.0000
     40 H18        2.3030   11.5634    5.7060 H         1 RES1    0.0000
     41 C18       -0.3692   10.8733    8.5116 C.3       1 RES1    0.0000
     42 H19       -0.6849   10.7109    9.4036 H         1 RES1    0.0000
     43 H20       -1.0653   10.6613    7.8843 H         1 RES1    0.0000
     44 H21       -0.1256   11.7957    8.4201 H         1 RES1    0.0000
     45 C19        5.8222    8.7837    9.2130 C.ar      1 RES1    0.0000
     46 C20        6.1747   10.1044    9.3622 C.ar      1 RES1    0.0000
     47 H22        6.3444   10.6252    8.6096 H         1 RES1    0.0000
     48 C21        6.2800   10.6658   10.6256 C.ar      1 RES1    0.0000
     49 H23        6.5313   11.5567   10.7171 H         1 RES1    0.0000
     50 C22        6.0110    9.9102   11.7507 C.ar      1 RES1    0.0000
     51 H24        6.0546   10.2914   12.5980 H         1 RES1    0.0000
     52 C23        5.6858    8.6066   11.6004 C.ar      1 RES1    0.0000
     53 H25        5.5236    8.0811   12.3497 H         1 RES1    0.0000
     54 C24        5.5920    8.0585   10.3501 C.ar      1 RES1    0.0000
     55 H26        5.3639    7.1609   10.2695 H         1 RES1    0.0000
     56 C25        7.5872    7.1539    6.4727 C.ar      1 RES1    0.0000
     57 C26        7.2945    7.0145    5.1179 C.ar      1 RES1    0.0000
     58 H27        6.4430    6.7436    4.8586 H         1 RES1    0.0000
     59 C27        8.2432    7.2710    4.1594 C.ar      1 RES1    0.0000
     60 H28        8.0351    7.1609    3.2598 H         1 RES1    0.0000
     61 C28        9.4974    7.6882    4.5265 C.ar      1 RES1    0.0000
     62 H29       10.1355    7.8691    3.8741 H         1 RES1    0.0000
     63 C29        9.8091    7.8366    5.8410 C.ar      1 RES1    0.0000
     64 H30       10.6624    8.1104    6.0894 H         1 RES1    0.0000
     65 C30        8.8601    7.5831    6.8027 C.ar      1 RES1    0.0000
     66 H31        9.0799    7.7022    7.6991 H         1 RES1    0.0000
@<TRIPOS>BOND
     1    1    6 1
     2    2    5 1
     3    3   15 1
     4    4   32 2
     5    5   27 2
     6    6    7 1
     7    7    8 1
     8    9    7 1
     9   10    7 1
    10   11   10 1
    11   12   10 1
    12   13   10 1
    13   14   13 ar
    14   15   14 ar
    15   16   15 ar
    16   17   16 ar
    17   18    1 1
    18   19    6 1
    19   20   19 1
    20   21   19 1
    21   22   19 1
    22   23    6 1
    23   24   23 1
    24   25   23 1
    25   26   23 1
    26   27   14 1
    27   28   27 1
    28   29   28 1
    29   30    2 1
    30   31   30 1
    31   32    3 1
    32   33   32 1
    33   34   33 1
    34   35   33 1
    35   36   33 1
    36   37   16 1
    37   38   37 1
    38   39   37 1
    39   40   37 1
    40   41   17 1
    41   42   41 1
    42   43   41 1
    43   44   41 1
    44   45   28 1
    45   46   45 ar
    46   47   46 1
    47   48   46 ar
    48   49   48 1
    49   50   48 ar
    50   51   50 1
    51   52   50 ar
    52   53   52 1
    53   54   45 ar
    54   55   54 1
    55   56   30 1
    56   57   56 ar
    57   58   57 1
    58   59   57 ar
    59   60   59 1
    60   61   59 ar
    61   62   61 1
    62   63   61 ar
    63   64   63 1
    64   65   56 ar
    65   66   65 1
    66   13   18 ar
    67   17   18 ar
    68   28   30 1
    69   52   54 ar
    70   63   65 ar
@<TRIPOS>SUBSTRUCTURE
     1 RES1 1

@<TRIPOS>CRYSIN
  10.4645   22.5540   10.9246  90.0000  94.4700  90.0000  14 1

