# MOL2 file generated by ConQuest
# Please check atom types

@<TRIPOS>MOLECULE
IVOQAL
    64    66     1
SMALL
NO_CHARGES
****
Generated from CSD

@<TRIPOS>ATOM
      1 O1         6.6090    1.7052    1.8716 O.3       1 RES1    0.0000
      2 O2         3.4591    7.4527    0.3073 O.3       1 RES1    0.0000
      3 O3         6.7508    7.5528    1.9771 O.2       1 RES1    0.0000
      4 O4         6.1068    6.9953    4.0547 O.3       1 RES1    0.0000
      5 O5         2.2109    9.0254    2.7962 O.2       1 RES1    0.0000
      6 O6         2.7875   10.2118    1.0114 O.3       1 RES1    0.0000
      7 O7         2.8695    5.1096    4.0793 O.3       1 RES1    0.0000
      8 O8         1.1890    4.0464    3.0561 O.2       1 RES1    0.0000
      9 N1         3.5977    6.0838    0.6191 N.2       1 RES1    0.0000
     10 C1         7.1266    1.9284    0.5263 C.3       1 RES1    0.0000
     11 C2         7.4428    3.4051    0.3671 C.3       1 RES1    0.0000
     12 H1         7.8136    3.5617   -0.5152 H         1 RES1    0.0000
     13 H2         8.1102    3.6641    1.0219 H         1 RES1    0.0000
     14 C3         6.1964    4.2559    0.5501 C.3       1 RES1    0.0000
     15 H3         6.4519    5.1859    0.6547 H         1 RES1    0.0000
     16 H4         5.6391    4.1852   -0.2405 H         1 RES1    0.0000
     17 C4         5.4125    3.8121    1.7596 C.ar      1 RES1    0.0000
     18 C5         4.4340    4.6245    2.3462 C.ar      1 RES1    0.0000
     19 C6         3.7840    4.2099    3.5003 C.ar      1 RES1    0.0000
     20 C7         4.0436    2.9838    4.1035 C.ar      1 RES1    0.0000
     21 C8         5.0020    2.1558    3.5154 C.ar      1 RES1    0.0000
     22 C9         5.6697    2.5734    2.3516 C.ar      1 RES1    0.0000
     23 C10        8.3914    1.0805    0.4660 C.3       1 RES1    0.0000
     24 H5         9.0295    1.4115    1.1031 H         1 RES1    0.0000
     25 H6         8.7669    1.1288   -0.4170 H         1 RES1    0.0000
     26 H7         8.1759    0.1684    0.6732 H         1 RES1    0.0000
     27 C11        6.0799    1.4460   -0.4764 C.3       1 RES1    0.0000
     28 H8         5.3017    2.0054   -0.4213 H         1 RES1    0.0000
     29 H9         5.8363    0.5398   -0.2733 H         1 RES1    0.0000
     30 H10        6.4427    1.4883   -1.3635 H         1 RES1    0.0000
     31 C12        4.1117    5.9535    1.7757 C.2       1 RES1    0.0000
     32 C13        4.4234    7.2712    2.4656 C.3       1 RES1    0.0000
     33 H11        3.8834    7.3824    3.2750 H         1 RES1    0.0000
     34 C14        4.0048    8.2549    1.3887 C.3       1 RES1    0.0000
     35 H12        4.7800    8.7663    1.0760 H         1 RES1    0.0000
     36 C15        5.9068    7.3160    2.7867 C.2       1 RES1    0.0000
     37 C16        7.4923    6.7983    4.4881 C.3       1 RES1    0.0000
     38 H13        8.0867    7.2987    3.9069 H         1 RES1    0.0000
     39 H14        7.6001    7.1372    5.3900 H         1 RES1    0.0000
     40 C17        7.8557    5.3819    4.4535 C.3       1 RES1    0.0000
     41 H15        8.7638    5.2775    4.7495 H         1 RES1    0.0000
     42 H16        7.7729    5.0520    3.5554 H         1 RES1    0.0000
     43 H17        7.2733    4.8875    5.0328 H         1 RES1    0.0000
     44 C18        2.8918    9.1973    1.8309 C.2       1 RES1    0.0000
     45 C19        1.7410   11.1992    1.3217 C.3       1 RES1    0.0000
     46 H18        0.8752   10.7648    1.3678 H         1 RES1    0.0000
     47 H19        1.9209   11.6178    2.1776 H         1 RES1    0.0000
     48 C20        1.7437   12.2039    0.2576 C.3       1 RES1    0.0000
     49 H20        1.0633   12.8579    0.4327 H         1 RES1    0.0000
     50 H21        1.5707   11.7784   -0.5850 H         1 RES1    0.0000
     51 H22        2.6016   12.6353    0.2277 H         1 RES1    0.0000
     52 C21        1.5607    4.9265    3.7556 C.2       1 RES1    0.0000
     53 C22        0.6994    5.9670    4.3914 C.3       1 RES1    0.0000
     54 H23       -0.0714    6.1246    3.8415 H         1 RES1    0.0000
     55 H24        1.1985    6.7816    4.4848 H         1 RES1    0.0000
     56 H25        0.4165    5.6627    5.2576 H         1 RES1    0.0000
     57 C23        3.2823    2.5468    5.3264 C.3       1 RES1    0.0000
     58 H26        2.7629    3.2820    5.6604 H         1 RES1    0.0000
     59 H27        3.9005    2.2586    6.0020 H         1 RES1    0.0000
     60 H28        2.6975    1.8212    5.0968 H         1 RES1    0.0000
     61 C24        5.3349    0.8079    4.1162 C.3       1 RES1    0.0000
     62 H29        5.8656    0.3034    3.4956 H         1 RES1    0.0000
     63 H30        4.5235    0.3319    4.3040 H         1 RES1    0.0000
     64 H31        5.8280    0.9338    4.9303 H         1 RES1    0.0000
@<TRIPOS>BOND
     1    1   10 1
     2    2    9 1
     3    3   36 2
     4    4   36 1
     5    5   44 2
     6    6   44 1
     7    7   19 1
     8    8   52 2
     9    9   31 2
    10   10   11 1
    11   11   12 1
    12   13   11 1
    13   14   11 1
    14   15   14 1
    15   16   14 1
    16   17   14 1
    17   18   17 ar
    18   19   18 ar
    19   20   19 ar
    20   21   20 ar
    21   22    1 1
    22   23   10 1
    23   24   23 1
    24   25   23 1
    25   26   23 1
    26   27   10 1
    27   28   27 1
    28   29   27 1
    29   30   27 1
    30   31   18 1
    31   32   31 1
    32   33   32 1
    33   34    2 1
    34   35   34 1
    35   36   32 1
    36   37    4 1
    37   38   37 1
    38   39   37 1
    39   40   37 1
    40   41   40 1
    41   42   40 1
    42   43   40 1
    43   44   34 1
    44   45    6 1
    45   46   45 1
    46   47   45 1
    47   48   45 1
    48   49   48 1
    49   50   48 1
    50   51   48 1
    51   52    7 1
    52   53   52 1
    53   54   53 1
    54   55   53 1
    55   56   53 1
    56   57   20 1
    57   58   57 1
    58   59   57 1
    59   60   57 1
    60   61   21 1
    61   62   61 1
    62   63   61 1
    63   64   61 1
    64   17   22 ar
    65   21   22 ar
    66   32   34 1
@<TRIPOS>SUBSTRUCTURE
     1 RES1 1

@<TRIPOS>CRYSIN
  17.1462    9.8498   15.4341  90.0000 112.7540  90.0000   9 1

