# MOL2 file generated by ConQuest
# Please check atom types

@<TRIPOS>MOLECULE
IVOQEP
   132   140     2
SMALL
NO_CHARGES
****
Generated from CSD

@<TRIPOS>ATOM
      1 O1        12.3775    5.2896   -0.5268 O.3       1 RES1    0.0000
      2 O2         6.0951    8.2983   -0.3238 O.3       1 RES1    0.0000
      3 O3         7.3474    5.5725   -4.0393 O.2       1 RES1    0.0000
      4 O4         7.0918    4.6696   -1.9845 O.3       1 RES1    0.0000
      5 N1         7.0962    7.6019   -1.0438 N.2       1 RES1    0.0000
      6 C1        12.7464    6.1313    0.6109 C.3       1 RES1    0.0000
      7 C2        11.9738    7.4401    0.5133 C.3       1 RES1    0.0000
      8 H1        12.1906    7.8887   -0.3434 H         1 RES1    0.0000
      9 H2        12.2478    8.0400    1.2507 H         1 RES1    0.0000
     10 C3        10.4717    7.1955    0.5901 C.3       1 RES1    0.0000
     11 H3        10.2190    6.9624    1.5193 H         1 RES1    0.0000
     12 H4         9.9869    8.0213    0.3362 H         1 RES1    0.0000
     13 C4        10.0796    6.0680   -0.3421 C.ar      1 RES1    0.0000
     14 C5         8.7556    5.9035   -0.7780 C.ar      1 RES1    0.0000
     15 C6         8.4459    4.8892   -1.6782 C.ar      1 RES1    0.0000
     16 C7         9.4093    4.0282   -2.1893 C.ar      1 RES1    0.0000
     17 C8        10.7323    4.2060   -1.7935 C.ar      1 RES1    0.0000
     18 C9        11.0489    5.2029   -0.8586 C.ar      1 RES1    0.0000
     19 C10       14.2316    6.3508    0.4535 C.3       1 RES1    0.0000
     20 H5        14.6907    5.4851    0.4483 H         1 RES1    0.0000
     21 H6        14.5624    6.8914    1.2009 H         1 RES1    0.0000
     22 H7        14.4051    6.8186   -0.3896 H         1 RES1    0.0000
     23 C11       12.4433    5.3496    1.8869 C.3       1 RES1    0.0000
     24 H8        12.9792    4.5289    1.9018 H         1 RES1    0.0000
     25 H9        11.4913    5.1191    1.9107 H         1 RES1    0.0000
     26 H10       12.6658    5.8997    2.6668 H         1 RES1    0.0000
     27 C12        7.6908    6.7949   -0.2624 C.2       1 RES1    0.0000
     28 C13        7.1719    6.7652    1.1569 C.3       1 RES1    0.0000
     29 H11        7.9224    6.9736    1.7844 H         1 RES1    0.0000
     30 C14        6.2154    7.9875    1.0843 C.3       1 RES1    0.0000
     31 H12        6.6620    8.7590    1.5371 H         1 RES1    0.0000
     32 C15        6.6470    5.0322   -3.2222 C.2       1 RES1    0.0000
     33 C16        5.2254    4.6311   -3.4133 C.3       1 RES1    0.0000
     34 H13        4.7919    5.2517   -4.0349 H         1 RES1    0.0000
     35 H14        4.7604    4.6541   -2.5512 H         1 RES1    0.0000
     36 H15        5.1882    3.7221   -3.7805 H         1 RES1    0.0000
     37 C17        9.0223    2.9168   -3.1324 C.3       1 RES1    0.0000
     38 H16        8.0607    2.7435   -3.0546 H         1 RES1    0.0000
     39 H17        9.5215    2.1048   -2.9034 H         1 RES1    0.0000
     40 H18        9.2336    3.1805   -4.0527 H         1 RES1    0.0000
     41 C18       11.8309    3.3559   -2.3638 C.3       1 RES1    0.0000
     42 H19       11.6372    3.1600   -3.3037 H         1 RES1    0.0000
     43 H20       11.8888    2.5175   -1.8609 H         1 RES1    0.0000
     44 H21       12.6823    3.8361   -2.2985 H         1 RES1    0.0000
     45 C19        6.6096    5.3849    1.4928 C.ar      1 RES1    0.0000
     46 C20        7.2177    4.6279    2.4789 C.ar      1 RES1    0.0000
     47 H22        7.9513    4.9884    2.9639 H         1 RES1    0.0000
     48 C21        6.7657    3.3376    2.7711 C.ar      1 RES1    0.0000
     49 H23        7.1942    2.8201    3.4442 H         1 RES1    0.0000
     50 C22        5.6893    2.8191    2.0733 C.ar      1 RES1    0.0000
     51 H24        5.3749    1.9442    2.2647 H         1 RES1    0.0000
     52 C23        5.0718    3.5817    1.0934 C.ar      1 RES1    0.0000
     53 H25        4.3289    3.2291    0.6173 H         1 RES1    0.0000
     54 C24        5.5334    4.8518    0.8086 C.ar      1 RES1    0.0000
     55 H26        5.1050    5.3656    0.1334 H         1 RES1    0.0000
     56 C25        4.8370    7.8144    1.6940 C.ar      1 RES1    0.0000
     57 C26        4.7338    7.4413    3.0290 C.ar      1 RES1    0.0000
     58 H27        5.5232    7.2538    3.5243 H         1 RES1    0.0000
     59 C27        3.5088    7.3382    3.6474 C.ar      1 RES1    0.0000
     60 H28        3.4570    7.0969    4.5650 H         1 RES1    0.0000
     61 C28        2.3509    7.5882    2.9280 C.ar      1 RES1    0.0000
     62 H29        1.5002    7.5134    3.3446 H         1 RES1    0.0000
     63 C29        2.4508    7.9491    1.5930 C.ar      1 RES1    0.0000
     64 H30        1.6612    8.1185    1.0923 H         1 RES1    0.0000
     65 C30        3.6819    8.0662    0.9820 C.ar      1 RES1    0.0000
     66 H31        3.7351    8.3202    0.0676 H         1 RES1    0.0000
     67 O5         3.1302   10.6121    5.7517 O.3       2 RES2    0.0000
     68 O6         9.2272    7.6968    4.0272 O.3       2 RES2    0.0000
     69 O7         6.9704    7.0326    7.4642 O.3       2 RES2    0.0000
     70 O8         7.7399    4.9856    7.6288 O.2       2 RES2    0.0000
     71 N2         7.9652    7.5188    4.6729 N.2       2 RES2    0.0000
     72 C31        3.3871   11.6146    4.7218 C.3       2 RES2    0.0000
     73 C32        4.2756   11.0131    3.6474 C.3       2 RES2    0.0000
     74 H32        3.8061   10.2531    3.2219 H         2 RES2    0.0000
     75 H33        4.4525   11.6930    2.9497 H         2 RES2    0.0000
     76 C33        5.5911   10.5310    4.2256 C.3       2 RES2    0.0000
     77 H34        6.0746    9.9991    3.5457 H         2 RES2    0.0000
     78 H35        6.1526   11.3102    4.4619 H         2 RES2    0.0000
     79 C34        5.3595    9.6850    5.4572 C.ar      2 RES2    0.0000
     80 C35        6.3011    8.7434    5.9081 C.ar      2 RES2    0.0000
     81 C36        5.9909    7.9328    6.9991 C.ar      2 RES2    0.0000
     82 C37        4.7979    8.0566    7.7174 C.ar      2 RES2    0.0000
     83 C38        3.8573    8.9914    7.2674 C.ar      2 RES2    0.0000
     84 C39        4.1497    9.7746    6.1349 C.ar      2 RES2    0.0000
     85 C40        2.0198   11.9435    4.1559 C.3       2 RES2    0.0000
     86 H36        1.5972   11.1234    3.8267 H         2 RES2    0.0000
     87 H37        2.1172   12.5802    3.4176 H         2 RES2    0.0000
     88 H38        1.4625   12.3411    4.8568 H         2 RES2    0.0000
     89 C41        4.0170   12.8310    5.3985 C.3       2 RES2    0.0000
     90 H39        4.8564   12.5671    5.8300 H         2 RES2    0.0000
     91 H40        3.4007   13.1853    6.0737 H         2 RES2    0.0000
     92 H41        4.1985   13.5214    4.7269 H         2 RES2    0.0000
     93 C42        7.5976    8.6270    5.1909 C.2       2 RES2    0.0000
     94 C43        8.6063    9.7565    5.0093 C.3       2 RES2    0.0000
     95 H42        8.1418   10.5986    4.7358 H         2 RES2    0.0000
     96 C44        9.3632    9.1453    3.8162 C.3       2 RES2    0.0000
     97 H43        8.8552    9.3772    2.9870 H         2 RES2    0.0000
     98 C45        6.9203    5.7048    7.1361 C.2       2 RES2    0.0000
     99 C46        5.8590    5.2453    6.1920 C.3       2 RES2    0.0000
    100 H44        5.9810    4.2917    6.0025 H         2 RES2    0.0000
    101 H45        5.9225    5.7541    5.3567 H         2 RES2    0.0000
    102 H46        4.9781    5.3880    6.5967 H         2 RES2    0.0000
    103 C47        4.5638    7.2104    8.9486 C.3       2 RES2    0.0000
    104 H47        4.1505    7.7580    9.6478 H         2 RES2    0.0000
    105 H48        5.4203    6.8597    9.2706 H         2 RES2    0.0000
    106 H49        3.9693    6.4656    8.7245 H         2 RES2    0.0000
    107 C48        2.5409    9.2183    7.9604 C.3       2 RES2    0.0000
    108 H50        2.4166    8.5405    8.6569 H         2 RES2    0.0000
    109 H51        1.8120    9.1531    7.3083 H         2 RES2    0.0000
    110 H52        2.5361   10.1093    8.3669 H         2 RES2    0.0000
    111 C49        9.4107    9.9812    6.2811 C.ar      2 RES2    0.0000
    112 C50        9.6742   11.2870    6.6921 C.ar      2 RES2    0.0000
    113 H53        9.3198   12.0161    6.1964 H         2 RES2    0.0000
    114 C51       10.4537   11.5336    7.8236 C.ar      2 RES2    0.0000
    115 H54       10.6255   12.4251    8.1036 H         2 RES2    0.0000
    116 C52       10.9730   10.4655    8.5323 C.ar      2 RES2    0.0000
    117 H55       11.5176   10.6210    9.2955 H         2 RES2    0.0000
    118 C53       10.6974    9.1680    8.1285 C.ar      2 RES2    0.0000
    119 H56       11.0508    8.4359    8.6213 H         2 RES2    0.0000
    120 C54        9.9135    8.9288    7.0169 C.ar      2 RES2    0.0000
    121 H57        9.7194    8.0363    6.7586 H         2 RES2    0.0000
    122 C55       10.7907    9.5363    3.5967 C.ar      2 RES2    0.0000
    123 C56       11.0453   10.6595    2.7887 C.ar      2 RES2    0.0000
    124 H58       10.3227   11.1346    2.3964 H         2 RES2    0.0000
    125 C57       12.3447   11.0736    2.5647 C.ar      2 RES2    0.0000
    126 H59       12.5098   11.8462    2.0370 H         2 RES2    0.0000
    127 C58       13.4028   10.3727    3.1036 C.ar      2 RES2    0.0000
    128 H60       14.2959   10.6472    2.9301 H         2 RES2    0.0000
    129 C59       13.1587    9.2730    3.8920 C.ar      2 RES2    0.0000
    130 H61       13.8881    8.7889    4.2626 H         2 RES2    0.0000
    131 C60       11.8740    8.8661    4.1493 C.ar      2 RES2    0.0000
    132 H62       11.7243    8.1166    4.7127 H         2 RES2    0.0000
@<TRIPOS>BOND
     1    1    6 1
     2    2    5 1
     3    3   32 2
     4    4   15 1
     5    5   27 2
     6    6    7 1
     7    7    8 1
     8    9    7 1
     9   10    7 1
    10   11   10 1
    11   12   10 1
    12   13   10 1
    13   14   13 ar
    14   15   14 ar
    15   16   15 ar
    16   17   16 ar
    17   18    1 1
    18   19    6 1
    19   20   19 1
    20   21   19 1
    21   22   19 1
    22   23    6 1
    23   24   23 1
    24   25   23 1
    25   26   23 1
    26   27   14 1
    27   28   27 1
    28   29   28 1
    29   30    2 1
    30   31   30 1
    31   32    4 1
    32   33   32 1
    33   34   33 1
    34   35   33 1
    35   36   33 1
    36   37   16 1
    37   38   37 1
    38   39   37 1
    39   40   37 1
    40   41   17 1
    41   42   41 1
    42   43   41 1
    43   44   41 1
    44   45   28 1
    45   46   45 ar
    46   47   46 1
    47   48   46 ar
    48   49   48 1
    49   50   48 ar
    50   51   50 1
    51   52   50 ar
    52   53   52 1
    53   54   45 ar
    54   55   54 1
    55   56   30 1
    56   57   56 ar
    57   58   57 1
    58   59   57 ar
    59   60   59 1
    60   61   59 ar
    61   62   61 1
    62   63   61 ar
    63   64   63 1
    64   65   56 ar
    65   66   65 1
    66   67   72 1
    67   68   71 1
    68   69   81 1
    69   70   98 2
    70   71   93 2
    71   72   73 1
    72   73   74 1
    73   75   73 1
    74   76   73 1
    75   77   76 1
    76   78   76 1
    77   79   76 1
    78   80   79 ar
    79   81   80 ar
    80   82   81 ar
    81   83   82 ar
    82   84   67 1
    83   85   72 1
    84   86   85 1
    85   87   85 1
    86   88   85 1
    87   89   72 1
    88   90   89 1
    89   91   89 1
    90   92   89 1
    91   93   80 1
    92   94   93 1
    93   95   94 1
    94   96   68 1
    95   97   96 1
    96   98   69 1
    97   99   98 1
    98  100   99 1
    99  101   99 1
   100  102   99 1
   101  103   82 1
   102  104  103 1
   103  105  103 1
   104  106  103 1
   105  107   83 1
   106  108  107 1
   107  109  107 1
   108  110  107 1
   109  111   94 1
   110  112  111 ar
   111  113  112 1
   112  114  112 ar
   113  115  114 1
   114  116  114 ar
   115  117  116 1
   116  118  116 ar
   117  119  118 1
   118  120  111 ar
   119  121  120 1
   120  122   96 1
   121  123  122 ar
   122  124  123 1
   123  125  123 ar
   124  126  125 1
   125  127  125 ar
   126  128  127 1
   127  129  127 ar
   128  130  129 1
   129  131  122 ar
   130  132  131 1
   131   13   18 ar
   132   17   18 ar
   133   28   30 1
   134   52   54 ar
   135   63   65 ar
   136   79   84 ar
   137   83   84 ar
   138   94   96 1
   139  118  120 ar
   140  129  131 ar
@<TRIPOS>SUBSTRUCTURE
     1 RES1 1
     2 RES2 67

@<TRIPOS>CRYSIN
  15.0200   18.6760   18.4380  90.0000 105.2290  90.0000 231 1

