# MOL2 file generated by ConQuest
# Please check atom types

@<TRIPOS>MOLECULE
IVOQAN
    28    27     1
SMALL
USER_CHARGES
****
Generated from CSD

@<TRIPOS>ATOM
      1 C1         3.3974    2.8189    6.6477 C.2       1 RES1    0.0000
      2 C2         3.4213    1.4647    6.0087 C.3       1 RES1    0.0000
      3 C3         2.0588    0.9504    5.6208 C.3       1 RES1    0.0000
      4 C4         0.4132    2.7212    4.6984 C.3       1 RES1    0.0000
      5 C5        -1.0049    2.2022    4.5206 C.3       1 RES1    0.0000
      6 N1         4.9412    5.3696    7.9374 N.2       1 RES1   -1.0000
      7 N2         4.7582    4.4077    7.4235 N.1       1 RES1    1.0000
      8 N3         4.7038    3.2941    6.8213 N.2       1 RES1    0.0000
      9 N4         1.4286    1.7094    4.5247 N.pl3     1 RES1    0.0000
     10 N5         1.9388    1.5578    3.2668 N.pl3     1 RES1    0.0000
     11 N6        -1.1676    1.4155    3.2308 N.pl3     1 RES1    0.0000
     12 N7        -2.0202    3.3582    4.4769 N.pl3     1 RES1    0.0000
     13 O1         2.3979    3.4040    6.9752 O.2       1 RES1    0.0000
     14 O2         1.4242    2.2082    2.3540 O.2       1 RES1    0.0000
     15 O3         2.8712    0.7624    3.1365 O.2       1 RES1    0.0000
     16 O4        -0.7315    0.2764    3.2698 O.2       1 RES1    0.0000
     17 O5        -1.6307    2.0020    2.2807 O.2       1 RES1    0.0000
     18 O6        -3.1737    3.0562    4.2999 O.2       1 RES1    0.0000
     19 O7        -1.5606    4.4670    4.6557 O.2       1 RES1    0.0000
     20 O8        -0.8832    1.4519    6.7303 O.2       1 RES1    0.0000
     21 N8        -1.4839    1.3090    5.6792 N.pl3     1 RES1    0.0000
     22 O9        -2.4268    0.5810    5.4724 O.2       1 RES1    0.0000
     23 H1         0.5459    3.4714    4.0270 H         1 RES1    0.0000
     24 H2         0.4917    3.0670    5.5889 H         1 RES1    0.0000
     25 H3         2.1207    0.0337    5.3514 H         1 RES1    0.0000
     26 H4         3.8534    0.7819    6.6250 H         1 RES1    0.0000
     27 H5         4.0246    1.4964    5.3006 H         1 RES1    0.0000
     28 H6         1.3883    1.0246    6.3536 H         1 RES1    0.0000
@<TRIPOS>BOND
     1    1    2 1
     2    2    3 1
     3    3    9 1
     4    4    5 1
     5    5   11 1
     6    6    7 2
     7    7    8 2
     8    8    1 1
     9    9    4 1
    10   10    9 1
    11   11   16 2
    12   12    5 1
    13   13    1 2
    14   14   10 2
    15   15   10 2
    16   17   11 2
    17   18   12 2
    18   19   12 2
    19   20   21 2
    20   21    5 1
    21   22   21 2
    22   23    4 1
    23   24    4 1
    24   25    3 1
    25   26    2 1
    26   27    2 1
    27   28    3 1
@<TRIPOS>SUBSTRUCTURE
     1 RES1 1

@<TRIPOS>CRYSIN
  12.9530    6.7406   14.1505  90.0000  92.6990  90.0000 231 1

