# MOL2 file generated by ConQuest
# Please check atom types

@<TRIPOS>MOLECULE
IVUFUB
    54    48     2
SMALL
NO_CHARGES
****
Generated from CSD

@<TRIPOS>ATOM
      1 O1        -0.4823    0.6469   14.1223 O.3       1 RES1    0.0000
      2 O2        -2.4165    2.6061    8.0293 O.2       1 RES1    0.0000
      3 O3        -7.3345   -2.5497    7.2389 O.2       1 RES1    0.0000
      4 O4        -7.5383   -1.2576    5.5918 O.2       1 RES1    0.0000
      5 N1        -6.9796   -1.6043    6.5983 N.pl3     1 RES1    0.0000
      6 C1         0.9168   -1.7777   15.1373 C.3       1 RES1    0.0000
      7 H1         0.4280   -1.3190   15.8249 H         1 RES1    0.0000
      8 H2         1.6400   -2.2698   15.5326 H         1 RES1    0.0000
      9 H3         0.3304   -2.3839   14.6785 H         1 RES1    0.0000
     10 C2         1.4705   -0.7709   14.1549 C.3       1 RES1    0.0000
     11 H4         2.0538   -1.2501   13.5297 H         1 RES1    0.0000
     12 C3         2.3092    0.2606   14.8768 C.3       1 RES1    0.0000
     13 H5         2.7175    0.8463   14.2350 H         1 RES1    0.0000
     14 H6         2.9916   -0.1820   15.3864 H         1 RES1    0.0000
     15 H7         1.7508    0.7720   15.4665 H         1 RES1    0.0000
     16 C4         0.3833   -0.1131   13.3596 C.2       1 RES1    0.0000
     17 C5        -1.3910    1.1629   13.2474 C.2       1 RES1    0.0000
     18 H8        -2.0958    1.7174   13.4953 H         1 RES1    0.0000
     19 C6        -1.1480    0.7775   11.9900 C.2       1 RES1    0.0000
     20 C7         0.0169   -0.0678   12.0701 C.2       1 RES1    0.0000
     21 C8         0.6386   -0.8388   10.8964 C.3       1 RES1    0.0000
     22 H9         1.4979   -1.1995   11.1620 H         1 RES1    0.0000
     23 H10        0.0622   -1.5796   10.6511 H         1 RES1    0.0000
     24 C9         0.8179    0.0872    9.7043 C.3       1 RES1    0.0000
     25 H11        1.4947   -0.2864    9.1185 H         1 RES1    0.0000
     26 H12        1.1456    0.9443   10.0208 H         1 RES1    0.0000
     27 C10       -0.4364    0.3144    8.9101 C.3       1 RES1    0.0000
     28 H13       -0.7169   -0.5481    8.5644 H         1 RES1    0.0000
     29 H14       -0.1958    0.8582    8.1437 H         1 RES1    0.0000
     30 C11       -1.6602    0.9620    9.5553 C.2       1 RES1    0.0000
     31 C12       -1.9647    1.1698   10.8369 C.2       1 RES1    0.0000
     32 C13       -3.2354    1.8875   11.1989 C.3       1 RES1    0.0000
     33 H15       -3.0218    2.7403   11.5865 H         1 RES1    0.0000
     34 H16       -3.7310    1.3632   11.8318 H         1 RES1    0.0000
     35 H17       -3.7643    2.0200   10.4084 H         1 RES1    0.0000
     36 C14       -2.5880    1.4913    8.4949 C.2       1 RES1    0.0000
     37 C15       -3.7114    0.6413    7.9938 C.ar      1 RES1    0.0000
     38 C16       -3.9810   -0.5988    8.5448 C.ar      1 RES1    0.0000
     39 H18       -3.4413   -0.9325    9.2252 H         1 RES1    0.0000
     40 C17       -5.0515   -1.3427    8.0840 C.ar      1 RES1    0.0000
     41 H19       -5.2411   -2.1772    8.4475 H         1 RES1    0.0000
     42 C18       -5.8264   -0.8237    7.0800 C.ar      1 RES1    0.0000
     43 C19       -5.5799    0.4059    6.5145 C.ar      1 RES1    0.0000
     44 H20       -6.1204    0.7311    5.8307 H         1 RES1    0.0000
     45 C20       -4.5257    1.1381    6.9771 C.ar      1 RES1    0.0000
     46 H21       -4.3494    1.9747    6.6123 H         1 RES1    0.0000
     47 C21        0.9974   -0.3069   11.0261 Du        2 SUP2    0.0000
     48 C22        0.2236   -0.7386    9.8251 Du        2 SUP2    0.0000
     49 H22       -0.7036   -0.1098    8.0789 Du        2 SUP2    0.0000
     50 H23        0.2131    1.0035    8.6966 Du        2 SUP2    0.0000
     51 H24        1.4962    0.5018   10.8367 Du        2 SUP2    0.0000
     52 H25        1.6192   -1.0003   11.2967 Du        2 SUP2    0.0000
     53 H26       -0.4774   -1.3330   10.1326 Du        2 SUP2    0.0000
     54 H27        0.8202   -1.2673    9.2735 Du        2 SUP2    0.0000
@<TRIPOS>BOND
     1    1   16 1
     2    2   36 2
     3    3    5 2
     4    4    5 2
     5    5   42 1
     6    6    7 1
     7    8    6 1
     8    9    6 1
     9   10    6 1
    10   11   10 1
    11   12   10 1
    12   13   12 1
    13   14   12 1
    14   15   12 1
    15   16   10 1
    16   17    1 1
    17   18   17 1
    18   19   17 2
    19   20   16 2
    20   21   20 1
    21   22   21 1
    22   23   21 1
    23   24   21 1
    24   25   24 1
    25   26   24 1
    26   27   24 1
    27   28   27 1
    28   29   27 1
    29   30   27 1
    30   31   19 1
    31   32   31 1
    32   33   32 1
    33   34   32 1
    34   35   32 1
    35   36   30 1
    36   37   36 1
    37   38   37 ar
    38   39   38 1
    39   40   38 ar
    40   41   40 1
    41   42   40 ar
    42   43   42 ar
    43   44   43 1
    44   45   37 ar
    45   46   45 1
    46   19   20 1
    47   30   31 2
    48   43   45 ar
@<TRIPOS>SUBSTRUCTURE
     1 RES1 1
     2 SUP2 47

@<TRIPOS>CRYSIN
  13.2680   10.7674   13.1049  90.0000 104.1250  90.0000  14 1

