# MOL2 file generated by ConQuest
# Please check atom types

@<TRIPOS>MOLECULE
IVURAS
    37    38     1
SMALL
NO_CHARGES
****
Generated from CSD

@<TRIPOS>ATOM
      1 C1         1.9410    1.1698    0.5488 C.ar      1 RES1    0.0000
      2 C2         1.5312    2.0299   -0.4485 C.ar      1 RES1    0.0000
      3 H1         0.7653    2.5431   -0.3321 H         1 RES1    0.0000
      4 C3         2.2535    2.1270   -1.6113 C.ar      1 RES1    0.0000
      5 H2         1.9760    2.7093   -2.2814 H         1 RES1    0.0000
      6 C4         3.3797    1.3719   -1.7887 C.ar      1 RES1    0.0000
      7 H3         3.8761    1.4530   -2.5701 H         1 RES1    0.0000
      8 C5         3.7799    0.4852   -0.8032 C.ar      1 RES1    0.0000
      9 H4         4.5372   -0.0386   -0.9356 H         1 RES1    0.0000
     10 C6         3.0613    0.3682    0.3851 C.ar      1 RES1    0.0000
     11 O1         1.1262    1.0515    1.6795 O.3       1 RES1    0.0000
     12 C7         1.5147    1.7348    2.8069 C.2       1 RES1    0.0000
     13 O2         2.4799    2.4389    2.8226 O.2       1 RES1    0.0000
     14 C8         0.5745    1.4703    3.9222 C.3       1 RES1    0.0000
     15 H5         0.7106    2.1190    4.6171 H         1 RES1    0.0000
     16 H6         0.7318    0.5902    4.2719 H         1 RES1    0.0000
     17 H7        -0.3285    1.5288    3.6012 H         1 RES1    0.0000
     18 C9         3.4509   -0.6195    1.4164 C.2       1 RES1    0.0000
     19 O3         3.1496   -0.6167    2.5705 O.2       1 RES1    0.0000
     20 O4         4.2274   -1.6011    0.8689 O.3       1 RES1    0.0000
     21 C10        4.6361   -2.6441    1.7255 C.ar      1 RES1    0.0000
     22 C11        4.0387   -3.8698    1.5946 C.ar      1 RES1    0.0000
     23 H8         3.3574   -4.0001    0.9746 H         1 RES1    0.0000
     24 C12        4.4612   -4.9014    2.3915 C.ar      1 RES1    0.0000
     25 H9         4.0584   -5.7362    2.3183 H         1 RES1    0.0000
     26 C13        5.4838   -4.7086    3.3055 C.ar      1 RES1    0.0000
     27 H10        5.7671   -5.4145    3.8421 H         1 RES1    0.0000
     28 C14        6.0839   -3.4670    3.4212 C.ar      1 RES1    0.0000
     29 C15        5.6512   -2.4261    2.6135 C.ar      1 RES1    0.0000
     30 H11        6.0482   -1.5873    2.6765 H         1 RES1    0.0000
     31 C16        7.2191   -3.2463    4.3826 C.3       1 RES1    0.0000
     32 H12        7.3222   -4.0160    4.9644 H         1 RES1    0.0000
     33 H13        8.0487   -3.1121    3.8986 H         1 RES1    0.0000
     34 O5         6.8986   -2.0765    5.1554 O.3       1 RES1    0.0000
     35 N1         7.9897   -1.4570    5.7409 N.pl3     1 RES1    0.0000
     36 O6         7.6905   -0.4533    6.3159 O.2       1 RES1    0.0000
     37 O7         9.0532   -1.9688    5.6471 O.2       1 RES1    0.0000
@<TRIPOS>BOND
     1    1    2 ar
     2    2    3 1
     3    4    2 ar
     4    5    4 1
     5    6    4 ar
     6    7    6 1
     7    8    6 ar
     8    9    8 1
     9   10    1 ar
    10   11    1 1
    11   12   11 1
    12   13   12 2
    13   14   12 1
    14   15   14 1
    15   16   14 1
    16   17   14 1
    17   18   10 1
    18   19   18 2
    19   20   18 1
    20   21   20 1
    21   22   21 ar
    22   23   22 1
    23   24   22 ar
    24   25   24 1
    25   26   24 ar
    26   27   26 1
    27   28   26 ar
    28   29   21 ar
    29   30   29 1
    30   31   28 1
    31   32   31 1
    32   33   31 1
    33   34   31 1
    34   35   34 1
    35   36   35 2
    36   37   35 2
    37    8   10 ar
    38   28   29 ar
@<TRIPOS>SUBSTRUCTURE
     1 RES1 1

@<TRIPOS>CRYSIN
   5.3148   13.2937   21.7070  90.0000  90.0000  90.0000  19 1

