# MOL2 file generated by ConQuest
# Please check atom types

@<TRIPOS>MOLECULE
IWABEP
    56    60     1
SMALL
NO_CHARGES
****
Generated from CSD

@<TRIPOS>ATOM
      1 O1         2.1052   18.4381    5.8815 O.2       1 RES1    0.0000
      2 N1         3.9063   19.5000    4.9611 N.am      1 RES1    0.0000
      3 O2         1.1191   17.1556   -0.6050 O.3       1 RES1    0.0000
      4 O3         2.4918   13.4088    4.5259 O.2       1 RES1    0.0000
      5 O4         0.2749   18.4331    1.4787 O.3       1 RES1    0.0000
      6 N2         4.3128   16.6705    6.5822 N.3       1 RES1    0.0000
      7 C1         5.1727   19.1357    4.4638 C.ar      1 RES1    0.0000
      8 O5         1.1844   13.7030    6.1970 O.2       1 RES1    0.0000
      9 C2         5.3335   17.7541    4.5461 C.ar      1 RES1    0.0000
     10 C3         3.2194   18.4209    5.3821 C.2       1 RES1    0.0000
     11 N3         2.0279   14.0994    5.4005 N.pl3     1 RES1    0.0000
     12 C4         3.4097   16.0085    4.4604 C.3       1 RES1    0.0000
     13 H1         4.0816   15.3062    4.3277 H         1 RES1    0.0000
     14 C5         2.8160   16.3082    3.1019 C.ar      1 RES1    0.0000
     15 C6         4.1158   17.1694    5.2115 C.3       1 RES1    0.0000
     16 C7         1.7258   16.8312    0.5738 C.ar      1 RES1    0.0000
     17 C8         2.4723   15.5180    5.5484 C.3       1 RES1    0.0000
     18 H2         1.6767   16.0900    5.5484 H         1 RES1    0.0000
     19 C9         3.2954   15.6865    1.9786 C.ar      1 RES1    0.0000
     20 H3         4.0062   15.0917    2.0592 H         1 RES1    0.0000
     21 C10        1.2675   17.5200    1.7013 C.ar      1 RES1    0.0000
     22 C11        1.7888   17.2407    2.9380 C.ar      1 RES1    0.0000
     23 H4         1.4511   17.6816    3.6841 H         1 RES1    0.0000
     24 C12        6.1380   19.9579    3.9521 C.ar      1 RES1    0.0000
     25 H5         6.0212   20.8805    3.9286 H         1 RES1    0.0000
     26 C13        2.7513   15.9182    0.7276 C.ar      1 RES1    0.0000
     27 H6         3.0770   15.4571   -0.0126 H         1 RES1    0.0000
     28 C14        6.4674   17.1718    4.0227 C.ar      1 RES1    0.0000
     29 H7         6.5732   16.2489    4.0286 H         1 RES1    0.0000
     30 C15        3.3947   20.8622    5.0267 C.3       1 RES1    0.0000
     31 H8         4.0499   21.4313    5.4367 H         1 RES1    0.0000
     32 H9         2.5882   20.8779    5.5459 H         1 RES1    0.0000
     33 H10        3.2094   21.1771    4.1386 H         1 RES1    0.0000
     34 C16        3.2108   15.7206    6.8809 C.3       1 RES1    0.0000
     35 H11        2.6007   16.1271    7.5312 H         1 RES1    0.0000
     36 C17        7.2974   19.3692    3.4699 C.ar      1 RES1    0.0000
     37 H12        7.9787   19.9033    3.1321 H         1 RES1    0.0000
     38 C18        7.4511   18.0007    3.4858 C.ar      1 RES1    0.0000
     39 H13        8.2239   17.6233    3.1321 H         1 RES1    0.0000
     40 C19        3.8921   14.5149    7.5119 C.3       1 RES1    0.0000
     41 H14        3.3662   14.1675    8.2495 H         1 RES1    0.0000
     42 H15        4.0235   13.8100    6.8591 H         1 RES1    0.0000
     43 C20        5.5887   15.9987    6.8977 C.3       1 RES1    0.0000
     44 H16        6.2538   16.6356    7.2027 H         1 RES1    0.0000
     45 H17        5.9349   15.5233    6.1256 H         1 RES1    0.0000
     46 C21        1.6427   16.5972   -1.7811 C.3       1 RES1    0.0000
     47 H18        1.0595   16.7944   -2.5171 H         1 RES1    0.0000
     48 H19        1.7161   15.6452   -1.6778 H         1 RES1    0.0000
     49 H20        2.5116   16.9692   -1.9525 H         1 RES1    0.0000
     50 C22        0.1545   19.4910    2.3709 C.3       1 RES1    0.0000
     51 H21       -0.4765   20.1284    2.0290 H         1 RES1    0.0000
     52 H22        1.0089   19.9139    2.4827 H         1 RES1    0.0000
     53 H23       -0.1518   19.1619    3.2187 H         1 RES1    0.0000
     54 C23        5.2049   15.0456    7.9958 C.3       1 RES1    0.0000
     55 H24        5.8593   14.3343    8.0916 H         1 RES1    0.0000
     56 H25        5.1079   15.5048    8.8444 H         1 RES1    0.0000
@<TRIPOS>BOND
     1    1   10 2
     2    2    7 1
     3    3   16 1
     4    4   11 2
     5    5   21 1
     6    6   15 1
     7    7    9 ar
     8    8   11 2
     9    9   15 1
    10   10    2 1
    11   11   17 1
    12   12   13 1
    13   14   12 1
    14   15   10 1
    15   16   21 ar
    16   17   12 1
    17   18   17 1
    18   19   14 ar
    19   20   19 1
    20   21   22 ar
    21   22   14 ar
    22   23   22 1
    23   24    7 ar
    24   25   24 1
    25   26   16 ar
    26   27   26 1
    27   28    9 ar
    28   29   28 1
    29   30    2 1
    30   31   30 1
    31   32   30 1
    32   33   30 1
    33   34    6 1
    34   35   34 1
    35   36   24 ar
    36   37   36 1
    37   38   28 ar
    38   39   38 1
    39   40   34 1
    40   41   40 1
    41   42   40 1
    42   43    6 1
    43   44   43 1
    44   45   43 1
    45   46    3 1
    46   47   46 1
    47   48   46 1
    48   49   46 1
    49   50    5 1
    50   51   50 1
    51   52   50 1
    52   53   50 1
    53   54   40 1
    54   55   54 1
    55   56   54 1
    56   12   15 1
    57   17   34 1
    58   19   26 ar
    59   36   38 ar
    60   43   54 1
@<TRIPOS>SUBSTRUCTURE
     1 RES1 1

@<TRIPOS>CRYSIN
  10.7513   26.4813    8.8733  90.0000 108.7660  90.0000  14 1

