# MOL2 file generated by ConQuest
# Please check atom types

@<TRIPOS>MOLECULE
IWAVUZ
    32    34     1
SMALL
USER_CHARGES
****
Generated from CSD

@<TRIPOS>ATOM
      1 O1         1.2453    0.2039    3.0649 O.2       1 RES1   -1.0000
      2 O2        -3.6666   -0.8154   -1.1302 O.2       1 RES1    0.0000
      3 O3        -2.5798    0.9651   -0.5402 O.2       1 RES1    0.0000
      4 N1         0.6172   -0.9047    2.9825 N.pl3     1 RES1    1.0000
      5 N2        -0.1075   -3.0517    3.4279 N.pl3     1 RES1    1.0000
      6 N3        -2.8416   -0.2361   -0.4339 N.pl3     1 RES1    0.0000
      7 C1        -0.8733   -2.5397    2.4682 C.2       1 RES1    0.0000
      8 C2         3.5187   -1.9205    3.8790 C.3       1 RES1    0.0000
      9 H1         4.3531   -2.3941    3.6290 H         1 RES1    0.0000
     10 H2         3.5373   -1.0227    3.4595 H         1 RES1    0.0000
     11 O4        -0.1756   -4.2204    3.9632 O.2       1 RES1   -1.0000
     12 C3         0.9837   -2.0949    3.8148 C.3       1 RES1    0.0000
     13 C4         2.3146   -2.7017    3.3599 C.3       1 RES1    0.0000
     14 H3         2.3722   -3.6365    3.6826 H         1 RES1    0.0000
     15 H4         2.3415   -2.7181    2.3695 H         1 RES1    0.0000
     16 C5        -1.0843   -0.4077    1.2326 C.2       1 RES1    0.0000
     17 H5        -0.8254    0.4901    1.0497 H         1 RES1    0.0000
     18 C6        -1.9602   -3.1217    1.7661 C.2       1 RES1    0.0000
     19 H6        -2.2523   -4.0085    1.9462 H         1 RES1    0.0000
     20 C7        -0.4306   -1.2094    2.1971 C.2       1 RES1    0.0000
     21 C8         3.4512   -1.7736    5.3903 C.3       1 RES1    0.0000
     22 H7         4.2311   -1.2506    5.7054 H         1 RES1    0.0000
     23 H8         3.4943   -2.6714    5.8098 H         1 RES1    0.0000
     24 C9         2.1636   -1.0749    5.8204 C.3       1 RES1    0.0000
     25 H9         2.1642   -0.1455    5.4727 H         1 RES1    0.0000
     26 H10        2.1297   -1.0310    6.8097 H         1 RES1    0.0000
     27 C10        0.9138   -1.8121    5.3003 C.3       1 RES1    0.0000
     28 H11        0.8159   -2.6687    5.7897 H         1 RES1    0.0000
     29 H12        0.1115   -1.2616    5.4880 H         1 RES1    0.0000
     30 C11       -2.1138   -1.0227    0.5842 C.2       1 RES1    0.0000
     31 C12       -2.5606   -2.3543    0.8294 C.2       1 RES1    0.0000
     32 H13       -3.2891   -2.7058    0.3295 H         1 RES1    0.0000
@<TRIPOS>BOND
     1    1    4 1
     2    2    6 2
     3    3    6 2
     4    4   12 1
     5    5    7 2
     6    6   30 1
     7    7   18 1
     8    8    9 1
     9   10    8 1
    10   11    5 1
    11   12    5 1
    12   13    8 1
    13   14   13 1
    14   15   13 1
    15   16   17 1
    16   18   19 1
    17   20    4 2
    18   21    8 1
    19   22   21 1
    20   23   21 1
    21   24   21 1
    22   25   24 1
    23   26   24 1
    24   27   12 1
    25   28   27 1
    26   29   27 1
    27   30   16 2
    28   31   18 2
    29   32   31 1
    30    7   20 1
    31   12   13 1
    32   16   20 1
    33   24   27 1
    34   30   31 1
@<TRIPOS>SUBSTRUCTURE
     1 RES1 1

@<TRIPOS>CRYSIN
   8.8012   13.7279    9.6067  90.0000  94.4505  90.0000  14 1

