# MOL2 file generated by ConQuest
# Please check atom types

@<TRIPOS>MOLECULE
IWEFIB
    51    54     1
SMALL
NO_CHARGES
****
Generated from CSD

@<TRIPOS>ATOM
      1 C1        11.2546    6.7031    1.3491 C.ar      1 RES1    0.0000
      2 C2        10.6846    5.9999    2.3931 C.ar      1 RES1    0.0000
      3 H1        11.2275    5.5525    3.0305 H         1 RES1    0.0000
      4 C3         9.3187    5.9643    2.4888 C.ar      1 RES1    0.0000
      5 H2         8.9132    5.4991    3.2124 H         1 RES1    0.0000
      6 C4         8.5203    6.5918    1.5464 C.ar      1 RES1    0.0000
      7 C5         9.1374    7.2684    0.4875 C.ar      1 RES1    0.0000
      8 H3         8.6038    7.6845   -0.1781 H         1 RES1    0.0000
      9 C6        10.5007    7.3351    0.4015 C.ar      1 RES1    0.0000
     10 H4        10.9160    7.8136   -0.3057 H         1 RES1    0.0000
     11 C7         7.0412    6.4116    1.6466 C.2       1 RES1    0.0000
     12 C8         4.7708    7.3062    1.7461 C.3       1 RES1    0.0000
     13 H5         4.5315    6.3760    1.5049 H         1 RES1    0.0000
     14 H6         4.3056    7.9182    1.1212 H         1 RES1    0.0000
     15 C9         4.3267    7.5955    3.1656 C.3       1 RES1    0.0000
     16 H7         4.7204    6.9190    3.7719 H         1 RES1    0.0000
     17 H8         3.3423    7.5154    3.2198 H         1 RES1    0.0000
     18 C10        4.7430    8.9864    3.6338 C.3       1 RES1    0.0000
     19 H9         4.1497    9.6830    3.2264 H         1 RES1    0.0000
     20 C11        6.2106    9.2824    3.3073 C.3       1 RES1    0.0000
     21 H10        6.3460   10.2705    3.3979 H         1 RES1    0.0000
     22 C12        6.6550    8.8863    1.9108 C.3       1 RES1    0.0000
     23 H11        6.2588    9.5050    1.2459 H         1 RES1    0.0000
     24 H12        7.6411    8.9508    1.8425 H         1 RES1    0.0000
     25 C13        6.9612    8.6037    4.4724 C.3       1 RES1    0.0000
     26 H13        7.0376    7.6267    4.3299 H         1 RES1    0.0000
     27 H14        7.8671    8.9864    4.5889 H         1 RES1    0.0000
     28 C14        6.0748    8.9175    5.6596 C.3       1 RES1    0.0000
     29 H15        6.0811    8.1697    6.3075 H         1 RES1    0.0000
     30 H16        6.3841    9.7387    6.1182 H         1 RES1    0.0000
     31 C15        3.7885    9.6897    5.8414 C.2       1 RES1    0.0000
     32 C16        2.4392    9.9278    5.2352 C.ar      1 RES1    0.0000
     33 C17        1.9451   11.2097    5.0141 C.ar      1 RES1    0.0000
     34 H17        2.4809   11.9619    5.2419 H         1 RES1    0.0000
     35 C18        0.7017   11.4100    4.4746 C.ar      1 RES1    0.0000
     36 H18        0.3725   12.2890    4.3321 H         1 RES1    0.0000
     37 C19       -0.0553   10.3240    4.1451 C.ar      1 RES1    0.0000
     38 C20        0.3729    9.0510    4.3848 C.ar      1 RES1    0.0000
     39 H19       -0.1856    8.3144    4.1711 H         1 RES1    0.0000
     40 C21        1.6273    8.8373    4.9421 C.ar      1 RES1    0.0000
     41 H20        1.9272    7.9538    5.1209 H         1 RES1    0.0000
     42 N1        12.7076    6.7565    1.2303 N.pl3     1 RES1    0.0000
     43 N2         6.2168    7.4887    1.6273 N.am      1 RES1    0.0000
     44 N3         4.7395    9.1088    5.1150 N.am      1 RES1    0.0000
     45 N4        -1.3302   10.5376    3.4810 N.pl3     1 RES1    0.0000
     46 O1        13.3556    5.8530    1.7965 O.2       1 RES1    0.0000
     47 O2        13.2354    7.6578    0.6352 O.2       1 RES1    0.0000
     48 O3         6.5715    5.2721    1.7097 O.2       1 RES1    0.0000
     49 O4         4.0271   10.0435    7.0169 O.2       1 RES1    0.0000
     50 O5        -1.7816   11.6503    3.3660 O.2       1 RES1    0.0000
     51 O6        -1.9094    9.5450    3.0402 O.2       1 RES1    0.0000
@<TRIPOS>BOND
     1    1    2 ar
     2    2    3 1
     3    4    2 ar
     4    5    4 1
     5    6    4 ar
     6    7    6 ar
     7    8    7 1
     8    9    1 ar
     9   10    9 1
    10   11    6 1
    11   12   13 1
    12   14   12 1
    13   15   12 1
    14   16   15 1
    15   17   15 1
    16   18   15 1
    17   19   18 1
    18   20   18 1
    19   21   20 1
    20   22   20 1
    21   23   22 1
    22   24   22 1
    23   25   20 1
    24   26   25 1
    25   27   25 1
    26   28   25 1
    27   29   28 1
    28   30   28 1
    29   31   32 1
    30   32   33 ar
    31   33   34 1
    32   35   33 ar
    33   36   35 1
    34   37   35 ar
    35   38   37 ar
    36   39   38 1
    37   40   32 ar
    38   41   40 1
    39   42    1 1
    40   43   11 1
    41   44   18 1
    42   45   37 1
    43   46   42 2
    44   47   42 2
    45   48   11 2
    46   49   31 2
    47   50   45 2
    48   51   45 2
    49    7    9 ar
    50   12   43 1
    51   22   43 1
    52   28   44 1
    53   31   44 1
    54   38   40 ar
@<TRIPOS>SUBSTRUCTURE
     1 RES1 1

@<TRIPOS>CRYSIN
  11.6541   22.2547    7.4256  90.0000  92.1160  90.0000   9 1

