# MOL2 file generated by ConQuest
# Please check atom types

@<TRIPOS>MOLECULE
IWEXUF
   140   142     2
SMALL
NO_CHARGES
****
Generated from CSD

@<TRIPOS>ATOM
      1 C1        10.5045    2.1642   15.6985 C.ar      1 RES1    0.0000
      2 C2        10.6200    1.0046   14.9519 C.ar      1 RES1    0.0000
      3 H1        11.2351    0.3496   15.1906 H         1 RES1    0.0000
      4 C3         9.8094    0.8331   13.8496 C.ar      1 RES1    0.0000
      5 H2         9.8798    0.0620   13.3342 H         1 RES1    0.0000
      6 C4         8.8775    1.8267   13.5046 C.ar      1 RES1    0.0000
      7 C5         8.7905    2.9984   14.2968 C.ar      1 RES1    0.0000
      8 H3         8.1774    3.6623   14.0778 H         1 RES1    0.0000
      9 C6         9.6026    3.1577   15.3829 C.ar      1 RES1    0.0000
     10 H4         9.5477    3.9267   15.9039 H         1 RES1    0.0000
     11 C7         6.5239    2.2582   10.9031 C.ar      1 RES1    0.0000
     12 C8         6.7821    1.2337    9.9829 C.ar      1 RES1    0.0000
     13 H5         7.4731    0.6318   10.1372 H         1 RES1    0.0000
     14 C9         6.0159    1.1197    8.8529 C.ar      1 RES1    0.0000
     15 H6         6.2176    0.4492    8.2403 H         1 RES1    0.0000
     16 C10        4.9341    1.9816    8.5848 C.ar      1 RES1    0.0000
     17 C11        4.7201    3.0283    9.5014 C.ar      1 RES1    0.0000
     18 H7         4.0485    3.6523    9.3430 H         1 RES1    0.0000
     19 C12        5.5043    3.1356   10.6420 C.ar      1 RES1    0.0000
     20 H8         5.3322    3.8227   11.2450 H         1 RES1    0.0000
     21 C13        4.2297    0.5798    6.6716 C.3       1 RES1    0.0000
     22 H9         4.4553   -0.1538    7.2640 H         1 RES1    0.0000
     23 H10        3.3490    0.3972    6.3079 H         1 RES1    0.0000
     24 C14        5.1937    0.5875    5.5593 C.3       1 RES1    0.0000
     25 H11        5.1002    1.4007    5.0585 H         1 RES1    0.0000
     26 H12        5.0243   -0.1626    4.9826 H         1 RES1    0.0000
     27 H13        6.0860    0.5267    5.9083 H         1 RES1    0.0000
     28 C15        3.0626    2.7572    7.1997 C.3       1 RES1    0.0000
     29 H14        2.5798    2.9309    8.0228 H         1 RES1    0.0000
     30 H15        2.4437    2.3467    6.5760 H         1 RES1    0.0000
     31 C16        3.5300    4.0838    6.6195 C.3       1 RES1    0.0000
     32 H16        2.7630    4.6702    6.5305 H         1 RES1    0.0000
     33 H17        4.1431    4.4976    7.2488 H         1 RES1    0.0000
     34 C17        3.4803    3.8017    4.1894 C.2       1 RES1    0.0000
     35 C18        3.6185    3.5018    1.7856 C.3       1 RES1    0.0000
     36 H18        4.1618    3.9543    1.1230 H         1 RES1    0.0000
     37 H19        2.7450    3.9245    1.7907 H         1 RES1    0.0000
     38 C19        3.4576    2.1210    1.3860 C.3       1 RES1    0.0000
     39 H20        2.8989    1.6497    2.0234 H         1 RES1    0.0000
     40 H21        4.3230    1.6807    1.3557 H         1 RES1    0.0000
     41 C20        2.7815    2.1133   -0.0455 C.3       1 RES1    0.0000
     42 H22        2.0598    2.7605   -0.0304 H         1 RES1    0.0000
     43 H23        3.4411    2.4374   -0.6829 H         1 RES1    0.0000
     44 C21        2.3047    0.9847   -0.5058 C.3       1 RES1    0.0000
     45 H24        1.5935    0.7092    0.0911 H         1 RES1    0.0000
     46 H25        3.0065    0.3231   -0.4401 H         1 RES1    0.0000
     47 C22        1.7480    0.9183   -1.9425 C.3       1 RES1    0.0000
     48 H26        1.4943    1.8289   -2.1802 H         1 RES1    0.0000
     49 H27        2.4912    0.6849   -2.5141 H         1 RES1    0.0000
     50 C23        0.6449    0.0774   -2.3421 C.3       1 RES1    0.0000
     51 H28       -0.1873    0.3928   -1.9526 H         1 RES1    0.0000
     52 H29        0.7931   -0.8376   -2.0588 H         1 RES1    0.0000
     53 C24        0.5787    0.1549   -3.8849 C.3       1 RES1    0.0000
     54 H30        0.7741    1.0544   -4.2036 H         1 RES1    0.0000
     55 H31        1.1871   -0.4691   -4.2997 H         1 RES1    0.0000
     56 C25       -0.6687   -0.1660   -4.1176 C.3       1 RES1    0.0000
     57 H32       -0.9442   -0.8387   -3.4954 H         1 RES1    0.0000
     58 H33       -0.7482   -0.5001   -5.0130 H         1 RES1    0.0000
     59 H34       -1.2232    0.6141   -4.0164 H         1 RES1    0.0000
     60 N1        11.3951    2.3445   16.8392 N.pl3     1 RES1    0.0000
     61 N2         8.1304    1.5866   12.3321 N.2       1 RES1    0.0000
     62 N3         7.2465    2.4419   12.0948 N.2       1 RES1    0.0000
     63 N4         4.1457    1.8123    7.4795 N.3       1 RES1    0.0000
     64 N5         4.1776    3.9798    5.3473 N.am      1 RES1    0.0000
     65 H35        5.0790    4.0351    5.3104 H         1 RES1    0.0000
     66 N6         4.2204    3.6954    3.0816 N.am      1 RES1    0.0000
     67 H36        5.1388    3.7474    3.1464 H         1 RES1    0.0000
     68 O1        11.2532    3.3458   17.5388 O.2       1 RES1    0.0000
     69 O2        12.2270    1.4738   17.0724 O.2       1 RES1    0.0000
     70 O3         2.2483    3.8194    4.1894 O.2       1 RES1    0.0000
     71 C26        5.9544    5.0940   15.8346 C.ar      2 RES2    0.0000
     72 C27        6.1175    6.2192   15.0657 C.ar      2 RES2    0.0000
     73 H37        6.7585    6.8587   15.2766 H         2 RES2    0.0000
     74 C28        5.2888    6.3663   13.9589 C.ar      2 RES2    0.0000
     75 H38        5.3624    7.1276   13.4303 H         2 RES2    0.0000
     76 C29        4.3661    5.4049   13.6367 C.ar      2 RES2    0.0000
     77 C30        4.2136    4.2730   14.4384 C.ar      2 RES2    0.0000
     78 H39        3.5819    3.6257   14.2245 H         2 RES2    0.0000
     79 C31        5.0127    4.1258   15.5513 C.ar      2 RES2    0.0000
     80 H40        4.9187    3.3845   16.1062 H         2 RES2    0.0000
     81 C32        2.0062    5.0110   11.0315 C.ar      2 RES2    0.0000
     82 C33        2.2203    6.0610   10.1367 C.ar      2 RES2    0.0000
     83 H41        2.9011    6.6695   10.3143 H         2 RES2    0.0000
     84 C34        1.4668    6.2303    9.0087 C.ar      2 RES2    0.0000
     85 H42        1.6256    6.9483    8.4376 H         2 RES2    0.0000
     86 C35        0.4219    5.2798    8.7112 C.ar      2 RES2    0.0000
     87 C36        0.2432    4.2121    9.5949 C.ar      2 RES2    0.0000
     88 H43       -0.4043    3.5704    9.4088 H         2 RES2    0.0000
     89 C37        1.0046    4.0904   10.7331 C.ar      2 RES2    0.0000
     90 H44        0.8480    3.3812   11.3158 H         2 RES2    0.0000
     91 C38       -0.3753    6.7381    6.8714 C.3       2 RES2    0.0000
     92 H45       -0.1912    7.4628    7.4916 H         2 RES2    0.0000
     93 H46       -1.2614    6.8841    6.5052 H         2 RES2    0.0000
     94 C39        0.6221    6.7990    5.7515 C.3       2 RES2    0.0000
     95 H47        1.5017    6.6308    6.0955 H         2 RES2    0.0000
     96 H48        0.5971    7.6697    5.3468 H         2 RES2    0.0000
     97 H49        0.4037    6.1351    5.0939 H         2 RES2    0.0000
     98 C40       -1.4479    4.5264    7.3070 C.3       2 RES2    0.0000
     99 H50       -2.1001    4.9645    6.7379 H         2 RES2    0.0000
    100 H51       -1.8959    4.2841    8.1340 H         2 RES2    0.0000
    101 C41       -0.9818    3.2628    6.6226 C.3       2 RES2    0.0000
    102 H52       -0.3397    2.8103    7.1932 H         2 RES2    0.0000
    103 H53       -1.7392    2.6687    6.5002 H         2 RES2    0.0000
    104 C42       -1.1018    3.8260    4.2532 C.2       2 RES2    0.0000
    105 C43       -1.0429    4.6514    1.9516 C.3       2 RES2    0.0000
    106 H54       -0.4508    5.2931    1.5327 H         2 RES2    0.0000
    107 H55       -1.8538    5.1216    2.2004 H         2 RES2    0.0000
    108 C44       -1.3919    3.6136    0.9611 C.3       2 RES2    0.0000
    109 H56       -1.9756    2.9608    1.3759 H         2 RES2    0.0000
    110 H57       -0.5818    3.1544    0.6880 H         2 RES2    0.0000
    111 C45       -2.0813    4.1756   -0.2782 C.3       2 RES2    0.0000
    112 H58       -2.8853    4.6414    0.0051 H         2 RES2    0.0000
    113 H59       -1.4942    4.8284   -0.6880 H         2 RES2    0.0000
    114 C46       -2.4596    3.1478   -1.3152 C.3       2 RES2    0.0000
    115 H60       -3.0088    2.4684   -0.8903 H         2 RES2    0.0000
    116 H61       -1.6523    2.7163   -1.6339 H         2 RES2    0.0000
    117 C47       -3.2151    3.7131   -2.5090 C.3       2 RES2    0.0000
    118 H62       -4.0281    4.1347   -2.1853 H         2 RES2    0.0000
    119 H63       -2.6701    4.4036   -2.9187 H         2 RES2    0.0000
    120 C48       -3.5785    2.7129   -3.5511 C.3       2 RES2    0.0000
    121 H64       -2.7720    2.2615   -3.8495 H         2 RES2    0.0000
    122 H65       -4.1623    2.0458   -3.1565 H         2 RES2    0.0000
    123 C49       -4.2539    3.3049   -4.7297 C.3       2 RES2    0.0000
    124 H66       -3.7627    4.0904   -5.0130 H         2 RES2    0.0000
    125 H67       -4.2447    2.6654   -5.4581 H         2 RES2    0.0000
    126 C50       -5.6427    3.6844   -4.4363 C.3       2 RES2    0.0000
    127 H68       -6.1386    2.9055   -4.1733 H         2 RES2    0.0000
    128 H69       -6.0404    4.0694   -5.2204 H         2 RES2    0.0000
    129 H70       -5.6559    4.3272   -3.7230 H         2 RES2    0.0000
    130 N7         6.8187    4.9424   17.0137 N.pl3     2 RES2    0.0000
    131 N8         3.6137    5.6560   12.4585 N.2       2 RES2    0.0000
    132 N9         2.7200    4.7720   12.2132 N.2       2 RES2    0.0000
    133 N10       -0.3816    5.4812    7.6171 N.3       2 RES2    0.0000
    134 N11       -0.3712    3.5251    5.3352 N.am      2 RES2    0.0000
    135 H71        0.4665    3.4874    5.2649 H         2 RES2    0.0000
    136 N12       -0.4097    4.1612    3.1509 N.am      2 RES2    0.0000
    137 H72        0.4779    4.0772    3.1616 H         2 RES2    0.0000
    138 O4         7.6872    5.7644   17.2231 O.2       2 RES2    0.0000
    139 O5         6.6560    3.9499   17.7270 O.2       2 RES2    0.0000
    140 O6        -2.3361    3.8293    4.2876 O.2       2 RES2    0.0000
@<TRIPOS>BOND
     1    1    2 ar
     2    2    3 1
     3    4    2 ar
     4    5    4 1
     5    6    4 ar
     6    7    6 ar
     7    8    7 1
     8    9    1 ar
     9   10    9 1
    10   11   12 ar
    11   12   13 1
    12   14   12 ar
    13   15   14 1
    14   16   14 ar
    15   17   16 ar
    16   18   17 1
    17   19   11 ar
    18   20   19 1
    19   21   22 1
    20   23   21 1
    21   24   21 1
    22   25   24 1
    23   26   24 1
    24   27   24 1
    25   28   29 1
    26   30   28 1
    27   31   28 1
    28   32   31 1
    29   33   31 1
    30   34   64 1
    31   35   36 1
    32   37   35 1
    33   38   35 1
    34   39   38 1
    35   40   38 1
    36   41   38 1
    37   42   41 1
    38   43   41 1
    39   44   41 1
    40   45   44 1
    41   46   44 1
    42   47   44 1
    43   48   47 1
    44   49   47 1
    45   50   47 1
    46   51   50 1
    47   52   50 1
    48   53   50 1
    49   54   53 1
    50   55   53 1
    51   56   53 1
    52   57   56 1
    53   58   56 1
    54   59   56 1
    55   60    1 1
    56   61    6 1
    57   62   11 1
    58   63   16 1
    59   64   31 1
    60   65   64 1
    61   66   34 1
    62   67   66 1
    63   68   60 2
    64   69   60 2
    65   70   34 2
    66   71   72 ar
    67   72   73 1
    68   74   72 ar
    69   75   74 1
    70   76   74 ar
    71   77   76 ar
    72   78   77 1
    73   79   71 ar
    74   80   79 1
    75   81   82 ar
    76   82   83 1
    77   84   82 ar
    78   85   84 1
    79   86   84 ar
    80   87   86 ar
    81   88   87 1
    82   89   81 ar
    83   90   89 1
    84   91   92 1
    85   93   91 1
    86   94   91 1
    87   95   94 1
    88   96   94 1
    89   97   94 1
    90   98   99 1
    91  100   98 1
    92  101   98 1
    93  102  101 1
    94  103  101 1
    95  104  134 1
    96  105  106 1
    97  107  105 1
    98  108  105 1
    99  109  108 1
   100  110  108 1
   101  111  108 1
   102  112  111 1
   103  113  111 1
   104  114  111 1
   105  115  114 1
   106  116  114 1
   107  117  114 1
   108  118  117 1
   109  119  117 1
   110  120  117 1
   111  121  120 1
   112  122  120 1
   113  123  120 1
   114  124  123 1
   115  125  123 1
   116  126  123 1
   117  127  126 1
   118  128  126 1
   119  129  126 1
   120  130   71 1
   121  131   76 1
   122  132   81 1
   123  133   86 1
   124  134  101 1
   125  135  134 1
   126  136  104 1
   127  137  136 1
   128  138  130 2
   129  139  130 2
   130  140  104 2
   131    7    9 ar
   132   17   19 ar
   133   21   63 1
   134   28   63 1
   135   35   66 1
   136   61   62 2
   137   77   79 ar
   138   87   89 ar
   139   91  133 1
   140   98  133 1
   141  105  136 1
   142  131  132 2
@<TRIPOS>SUBSTRUCTURE
     1 RES1 1
     2 RES2 71

@<TRIPOS>CRYSIN
   9.1737   11.0642   50.6260  90.0000  92.3100  90.0000  14 1

