# MOL2 file generated by ConQuest
# Please check atom types

@<TRIPOS>MOLECULE
IWIXIX
    88    96     2
SMALL
USER_CHARGES
****
Generated from CSD

@<TRIPOS>ATOM
      1 O1        -0.1587   -5.6461   -5.7328 O.2       1 RES1   -1.0000
      2 N1        -0.4069   -5.9288   -6.9041 N.pl3     1 RES1    1.0000
      3 O2         0.4498   -6.9659   -7.5288 O.3       1 RES1    0.0000
      4 N2         0.0214   -7.1406   -8.8232 N.2       1 RES1    0.0000
      5 C1        -1.7941   -6.0632  -10.1245 C.2       1 RES1    0.0000
      6 C2        -0.9715   -6.3144   -8.9712 C.2       1 RES1    0.0000
      7 O3        -1.3417   -7.7001  -11.7533 O.2       1 RES1   -1.0000
      8 N3        -1.8917   -6.7277  -11.2607 N.pl3     1 RES1    1.0000
      9 O4        -2.9128   -6.0283  -12.0373 O.3       1 RES1    0.0000
     10 N4        -3.3329   -4.9372  -11.3067 N.2       1 RES1    0.0000
     11 C3        -2.6731   -4.9668  -10.1836 C.2       1 RES1    0.0000
     12 C4        -2.6942   -3.9235   -9.0872 C.3       1 RES1    0.0000
     13 O5        -4.4681   -2.7356  -10.0432 O.2       1 RES1    0.0000
     14 N5        -4.1083   -3.3258   -9.0436 N.pl3     1 RES1    0.0000
     15 C5        -1.7508   -2.7274   -9.4217 C.3       1 RES1    0.0000
     16 H1        -2.0860   -2.3008  -10.2619 H         1 RES1    0.0000
     17 O6        -4.7596   -3.4544   -8.0194 O.2       1 RES1    0.0000
     18 C6        -1.8800   -1.7110   -8.3074 C.2       1 RES1    0.0000
     19 O7        -2.2111   -1.2697   -6.0071 O.3       1 RES1    0.0000
     20 H2        -2.1458   -0.4487   -6.4438 H         1 RES1    0.0000
     21 C7        -2.0972   -2.1194   -7.0184 C.2       1 RES1    0.0000
     22 O8        -1.8791    0.5328   -7.6575 O.2       1 RES1    0.0000
     23 C8        -1.2616   -5.5419   -7.8292 C.2       1 RES1    0.0000
     24 C9        -2.2305   -3.5306   -6.5817 C.3       1 RES1    0.0000
     25 H3        -3.0107   -3.5964   -5.9759 H         1 RES1    0.0000
     26 H4        -1.4269   -3.7716   -6.0561 H         1 RES1    0.0000
     27 C10       -2.4033   -4.5703   -7.7083 C.3       1 RES1    0.0000
     28 H5        -3.2113   -5.1107   -7.4732 H         1 RES1    0.0000
     29 C11       -0.3316   -3.2192   -9.6857 C.ar      1 RES1    0.0000
     30 C12        0.0049   -3.6854  -10.9567 C.ar      1 RES1    0.0000
     31 H6        -0.6295   -3.6272  -11.6616 H         1 RES1    0.0000
     32 C13        1.2554   -4.2336  -11.2016 C.ar      1 RES1    0.0000
     33 H7         1.4722   -4.5568  -12.0680 H         1 RES1    0.0000
     34 C14        2.1880   -4.3098  -10.1817 C.ar      1 RES1    0.0000
     35 H8         3.0440   -4.6872  -10.3488 H         1 RES1    0.0000
     36 C15        1.8751   -3.8361   -8.9143 C.ar      1 RES1    0.0000
     37 H9         2.5149   -3.8908   -8.2138 H         1 RES1    0.0000
     38 C16        0.6240   -3.2813   -8.6732 C.ar      1 RES1    0.0000
     39 H10        0.4180   -2.9416   -7.8101 H         1 RES1    0.0000
     40 C17       -1.7987   -0.2951   -8.5835 C.2       1 RES1    0.0000
     41 C18       -1.6448    0.2005   -9.9879 C.3       1 RES1    0.0000
     42 H11       -1.5065    1.1708   -9.9772 H         1 RES1    0.0000
     43 H12       -2.4534   -0.0084  -10.4985 H         1 RES1    0.0000
     44 H13       -0.8718   -0.2342  -10.4050 H         1 RES1    0.0000
     45 O9         1.2494   -8.4899  -14.0104 O.2       2 RES2   -1.0000
     46 N6         1.8864   -8.1939  -13.0013 N.pl3     2 RES2    1.0000
     47 O10        2.9399   -7.1643  -13.1547 O.3       2 RES2    0.0000
     48 N7         3.5501   -6.9896  -11.9360 N.2       2 RES2    0.0000
     49 C19        3.1703   -8.0900   -9.7308 C.2       2 RES2    0.0000
     50 C20        2.9385   -7.8077  -11.1266 C.2       2 RES2    0.0000
     51 O11        4.6032   -6.4551   -8.8258 O.2       2 RES2   -1.0000
     52 N8         3.8856   -7.4398   -8.8360 N.pl3     2 RES2    1.0000
     53 O12        3.6992   -8.1783   -7.5805 O.3       2 RES2    0.0000
     54 N9         2.8876   -9.2620   -7.8427 N.2       2 RES2    0.0000
     55 C21        2.5826   -9.2041   -9.1076 C.2       2 RES2    0.0000
     56 C22        1.7691  -10.2182   -9.8810 C.3       2 RES2    0.0000
     57 N10        0.7314  -10.7927   -8.8855 N.pl3     2 RES2    0.0000
     58 O13        1.1510  -11.5658   -8.0504 O.2       2 RES2    0.0000
     59 C23        2.6257  -11.4130  -10.3821 C.3       2 RES2    0.0000
     60 H14        2.9472  -11.9094   -9.5761 H         2 RES2    0.0000
     61 O14       -0.4268  -10.4243   -8.9883 O.2       2 RES2    0.0000
     62 C24        1.7579  -12.3595  -11.1817 C.2       2 RES2    0.0000
     63 O15       -0.0684  -12.6819  -12.6624 O.3       2 RES2    0.0000
     64 H15        0.3143  -13.4602  -12.5400 H         2 RES2    0.0000
     65 C25        0.6919  -11.9012  -11.9007 C.2       2 RES2    0.0000
     66 O16        1.3815  -14.5570  -11.9112 O.2       2 RES2    0.0000
     67 C26        0.2104  -10.4968  -11.9052 C.3       2 RES2    0.0000
     68 H16       -0.7362  -10.4947  -11.6162 H         2 RES2    0.0000
     69 H17        0.2348  -10.1652  -12.8381 H         2 RES2    0.0000
     70 C27        0.9850   -9.5053  -11.0218 C.3       2 RES2    0.0000
     71 H18        0.2995   -8.9300  -10.5761 H         2 RES2    0.0000
     72 C28        1.9180   -8.5712  -11.7440 C.2       2 RES2    0.0000
     73 C29        3.8573  -10.9246  -11.1394 C.ar      2 RES2    0.0000
     74 C30        5.0056  -10.5675  -10.4341 C.ar      2 RES2    0.0000
     75 H19        5.0392  -10.7022   -9.4945 H         2 RES2    0.0000
     76 C31        6.1008  -10.0166  -11.0868 C.ar      2 RES2    0.0000
     77 H20        6.8702   -9.7628  -10.5921 H         2 RES2    0.0000
     78 C32        6.0682   -9.8399  -12.4650 C.ar      2 RES2    0.0000
     79 H21        6.8078   -9.4445  -12.9130 H         2 RES2    0.0000
     80 C33        4.9525  -10.2414  -13.1838 C.ar      2 RES2    0.0000
     81 H22        4.9375  -10.1484  -14.1295 H         2 RES2    0.0000
     82 C34        3.8570  -10.7798  -12.5215 C.ar      2 RES2    0.0000
     83 H23        3.0957  -11.0528  -13.0199 H         2 RES2    0.0000
     84 C35        2.0756  -13.7759  -11.2393 C.2       2 RES2    0.0000
     85 C36        3.2533  -14.3140  -10.4825 C.3       2 RES2    0.0000
     86 H24        3.3053  -15.2857  -10.6082 H         2 RES2    0.0000
     87 H25        3.1491  -14.1121   -9.5293 H         2 RES2    0.0000
     88 H26        4.0742  -13.8976  -10.8167 H         2 RES2    0.0000
@<TRIPOS>BOND
     1    1    2 1
     2    2    3 1
     3    3    4 1
     4    4    6 2
     5    5    6 1
     6    6   23 1
     7    7    8 1
     8    8    5 2
     9    9    8 1
    10   10    9 1
    11   11    5 1
    12   12   11 1
    13   13   14 2
    14   14   12 1
    15   15   12 1
    16   16   15 1
    17   17   14 2
    18   18   15 1
    19   19   20 1
    20   21   18 2
    21   22   40 2
    22   23    2 2
    23   24   21 1
    24   25   24 1
    25   26   24 1
    26   27   12 1
    27   28   27 1
    28   29   15 1
    29   30   29 ar
    30   31   30 1
    31   32   30 ar
    32   33   32 1
    33   34   32 ar
    34   35   34 1
    35   36   34 ar
    36   37   36 1
    37   38   29 ar
    38   39   38 1
    39   40   18 1
    40   41   40 1
    41   42   41 1
    42   43   41 1
    43   44   41 1
    44   45   46 1
    45   46   47 1
    46   47   48 1
    47   48   50 2
    48   49   50 1
    49   50   72 1
    50   51   52 1
    51   52   49 2
    52   53   52 1
    53   54   53 1
    54   55   49 1
    55   56   55 1
    56   57   56 1
    57   58   57 2
    58   59   56 1
    59   60   59 1
    60   61   57 2
    61   62   59 1
    62   63   64 1
    63   65   62 2
    64   66   84 2
    65   67   65 1
    66   68   67 1
    67   69   67 1
    68   70   56 1
    69   71   70 1
    70   72   46 2
    71   73   59 1
    72   74   73 ar
    73   75   74 1
    74   76   74 ar
    75   77   76 1
    76   78   76 ar
    77   79   78 1
    78   80   78 ar
    79   81   80 1
    80   82   73 ar
    81   83   82 1
    82   84   62 1
    83   85   84 1
    84   86   85 1
    85   87   85 1
    86   88   85 1
    87   10   11 2
    88   19   21 1
    89   23   27 1
    90   24   27 1
    91   36   38 ar
    92   54   55 2
    93   63   65 1
    94   67   70 1
    95   70   72 1
    96   80   82 ar
@<TRIPOS>SUBSTRUCTURE
     1 RES1 1
     2 RES2 45

@<TRIPOS>CRYSIN
   9.7177   14.0210   14.1058  90.0000 108.6026  90.0000   4 1

