# MOL2 file generated by ConQuest
# Please check atom types

@<TRIPOS>MOLECULE
IWONOY
    69    70     1
SMALL
NO_CHARGES
****
Generated from CSD

@<TRIPOS>ATOM
      1 O1         6.7596   18.9107    9.3026 O.2       1 RES1    0.0000
      2 O2         5.4917   18.1803   10.9151 O.2       1 RES1    0.0000
      3 O3         5.4386   15.5502   10.9225 O.3       1 RES1    0.0000
      4 O4         5.0958   13.6512    5.2377 O.2       1 RES1    0.0000
      5 O5         3.3417   10.6487    8.5458 O.3       1 RES1    0.0000
      6 O6         2.0008    6.6836    5.4755 O.2       1 RES1    0.0000
      7 O7         2.9022    7.3848    3.5350 O.3       1 RES1    0.0000
      8 N1         5.9949   18.0654    9.8007 N.pl3     1 RES1    0.0000
      9 N2         4.0911   12.5561    6.9683 N.am      1 RES1    0.0000
     10 C1         5.6718   16.8900    8.9806 C.ar      1 RES1    0.0000
     11 C2         5.6908   17.0448    7.6098 C.ar      1 RES1    0.0000
     12 C3         5.3970   15.9721    6.7940 C.ar      1 RES1    0.0000
     13 C4         5.0706   14.7401    7.3576 C.ar      1 RES1    0.0000
     14 C5         5.0747   14.5920    8.7329 C.ar      1 RES1    0.0000
     15 C6         5.3674   15.6549    9.5745 C.ar      1 RES1    0.0000
     16 C7         5.2192   14.2539   11.5112 C.3       1 RES1    0.0000
     17 C8         5.3522   14.4327   13.0084 C.3       1 RES1    0.0000
     18 C9         6.7335   14.9457   13.3886 C.3       1 RES1    0.0000
     19 C10        4.2625   15.3275   13.5440 C.3       1 RES1    0.0000
     20 C11        4.7625   13.6101    6.4224 C.2       1 RES1    0.0000
     21 C12        3.7069   11.3479    6.3550 C.ar      1 RES1    0.0000
     22 C13        3.6934   11.1407    4.9773 C.ar      1 RES1    0.0000
     23 C14        3.3162    9.9074    4.4752 C.ar      1 RES1    0.0000
     24 C15        2.9183    8.8904    5.3352 C.ar      1 RES1    0.0000
     25 C16        2.8964    9.1010    6.7074 C.ar      1 RES1    0.0000
     26 C17        3.2938   10.3209    7.2214 C.ar      1 RES1    0.0000
     27 C18        3.0286    9.6120    9.5053 C.3       1 RES1    0.0000
     28 C19        3.3229   10.1254   10.9038 C.3       1 RES1    0.0000
     29 C20        4.8003   10.3031   11.1435 C.3       1 RES1    0.0000
     30 C21        2.5297   11.3790   11.2263 C.3       1 RES1    0.0000
     31 C22        2.5454    7.5447    4.8224 C.2       1 RES1    0.0000
     32 C23        2.5865    6.1022    2.9521 C.3       1 RES1    0.0000
     33 C24        3.1783    6.0364    1.5685 C.3       1 RES1    0.0000
     34 C25        2.8843    4.6592    0.9734 C.3       1 RES1    0.0000
     35 C26        2.6344    7.1444    0.6773 C.3       1 RES1    0.0000
     36 H1         3.8859   12.5924    7.8383 H         1 RES1    0.0000
     37 H2         5.9055   17.8883    7.2290 H         1 RES1    0.0000
     38 H3         5.4182   16.0729    5.8493 H         1 RES1    0.0000
     39 H4         4.8719   13.7440    9.1091 H         1 RES1    0.0000
     40 H5         5.8910   13.6064   11.1793 H         1 RES1    0.0000
     41 H6         4.3171   13.9189   11.2823 H         1 RES1    0.0000
     42 H7         5.2377   13.5327   13.4308 H         1 RES1    0.0000
     43 H8         6.8874   15.8150   12.9622 H         1 RES1    0.0000
     44 H9         7.4138   14.3085   13.0855 H         1 RES1    0.0000
     45 H10        6.7893   15.0448   14.3622 H         1 RES1    0.0000
     46 H11        4.3621   16.2257   13.1653 H         1 RES1    0.0000
     47 H12        4.3303   15.3761   14.5203 H         1 RES1    0.0000
     48 H13        3.3876   14.9629   13.2944 H         1 RES1    0.0000
     49 H14        3.9413   11.8417    4.3855 H         1 RES1    0.0000
     50 H15        3.3287    9.7552    3.5383 H         1 RES1    0.0000
     51 H16        2.6099    8.4088    7.2913 H         1 RES1    0.0000
     52 H17        3.5751    8.8076    9.3209 H         1 RES1    0.0000
     53 H18        2.0736    9.3628    9.4326 H         1 RES1    0.0000
     54 H19        3.0125    9.4186   11.5391 H         1 RES1    0.0000
     55 H20        5.1286   11.0607   10.6150 H         1 RES1    0.0000
     56 H21        5.2752    9.4882   10.8761 H         1 RES1    0.0000
     57 H22        4.9584   10.4762   12.0947 H         1 RES1    0.0000
     58 H23        1.5735   11.2033   11.1010 H         1 RES1    0.0000
     59 H24        2.8080   12.1044   10.6295 H         1 RES1    0.0000
     60 H25        2.6945   11.6406   12.1556 H         1 RES1    0.0000
     61 H26        1.6041    5.9861    2.9044 H         1 RES1    0.0000
     62 H27        2.9588    5.3767    3.5122 H         1 RES1    0.0000
     63 H28        4.1695    6.1460    1.6422 H         1 RES1    0.0000
     64 H29        1.9206    4.4870    1.0083 H         1 RES1    0.0000
     65 H30        3.3579    3.9737    1.4884 H         1 RES1    0.0000
     66 H31        3.1875    4.6352    0.0421 H         1 RES1    0.0000
     67 H32        2.8343    8.0152    1.0808 H         1 RES1    0.0000
     68 H33        1.6649    7.0421    0.5846 H         1 RES1    0.0000
     69 H34        3.0555    7.0881   -0.2060 H         1 RES1    0.0000
@<TRIPOS>BOND
     1    1    8 2
     2    2    8 2
     3    3   15 1
     4    4   20 2
     5    5   26 1
     6    6   31 2
     7    7   31 1
     8    8   10 1
     9    9   20 1
    10   10   11 ar
    11   11   12 ar
    12   12   13 ar
    13   13   14 ar
    14   14   15 ar
    15   15   10 ar
    16   16    3 1
    17   17   16 1
    18   18   17 1
    19   19   17 1
    20   20   13 1
    21   21    9 1
    22   22   21 ar
    23   23   22 ar
    24   24   23 ar
    25   25   24 ar
    26   26   21 ar
    27   27    5 1
    28   28   27 1
    29   29   28 1
    30   30   28 1
    31   31   24 1
    32   32    7 1
    33   33   32 1
    34   34   33 1
    35   35   33 1
    36   36    9 1
    37   37   11 1
    38   38   12 1
    39   39   14 1
    40   40   16 1
    41   41   16 1
    42   42   17 1
    43   43   18 1
    44   44   18 1
    45   45   18 1
    46   46   19 1
    47   47   19 1
    48   48   19 1
    49   49   22 1
    50   50   23 1
    51   51   25 1
    52   52   27 1
    53   53   27 1
    54   54   28 1
    55   55   29 1
    56   56   29 1
    57   57   29 1
    58   58   30 1
    59   59   30 1
    60   60   30 1
    61   61   32 1
    62   62   32 1
    63   63   33 1
    64   64   34 1
    65   65   34 1
    66   66   34 1
    67   67   35 1
    68   68   35 1
    69   69   35 1
    70   25   26 ar
@<TRIPOS>SUBSTRUCTURE
     1 RES1 1

@<TRIPOS>CRYSIN
   7.2360   12.2095   14.6631  83.5550  83.8510  82.0240   2 1

