# MOL2 file generated by ConQuest
# Please check atom types

@<TRIPOS>MOLECULE
IWONEO
    62    61     2
SMALL
NO_CHARGES
****
Generated from CSD

@<TRIPOS>ATOM
      1 O1         4.9630   10.3597   -6.2827 O.2       1 RES1    0.0000
      2 O2         4.8971    8.5104   -5.1373 O.2       1 RES1    0.0000
      3 O3         3.4996    8.6604   -2.9615 O.3       1 RES1    0.0000
      4 O4         4.2976   14.1536   -0.6443 O.2       1 RES1    0.0000
      5 O5         1.6242   11.2551    2.1071 O.3       1 RES1    0.0000
      6 O6         0.7775   14.4463    6.0720 O.2       1 RES1    0.0000
      7 O7         1.2210   16.4113    5.1274 O.3       1 RES1    0.0000
      8 N1         4.7545    9.7466   -5.2402 N.pl3     1 RES1    0.0000
      9 N2         2.9180   12.6445    0.3172 N.am      1 RES1    0.0000
     10 C1         4.4522   10.5414   -4.0367 C.ar      1 RES1    0.0000
     11 C2         4.8271   11.8605   -4.0440 C.ar      1 RES1    0.0000
     12 C3         4.5970   12.6576   -2.9470 C.ar      1 RES1    0.0000
     13 C4         3.9750   12.1256   -1.8271 C.ar      1 RES1    0.0000
     14 C5         3.6018   10.7869   -1.8113 C.ar      1 RES1    0.0000
     15 C6         3.8368    9.9650   -2.9143 C.ar      1 RES1    0.0000
     16 C7         2.9601    8.0308   -1.7883 C.3       1 RES1    0.0000
     17 C8         2.7384    6.5772   -2.1213 C.3       1 RES1    0.0000
     18 C9         2.0882    5.8927   -0.9420 C.3       1 RES1    0.0000
     19 C10        4.0212    5.8974   -2.5245 C.3       1 RES1    0.0000
     20 C11        3.7516   13.0642   -0.6647 C.2       1 RES1    0.0000
     21 C12        2.5479   13.3146    1.5001 C.ar      1 RES1    0.0000
     22 C13        2.8055   14.6551    1.7459 C.ar      1 RES1    0.0000
     23 C14        2.3755   15.2374    2.9301 C.ar      1 RES1    0.0000
     24 C15        1.6924   14.4899    3.8757 C.ar      1 RES1    0.0000
     25 C16        1.4535   13.1357    3.6420 C.ar      1 RES1    0.0000
     26 C17        1.8569   12.5593    2.4579 C.ar      1 RES1    0.0000
     27 C18        1.0721   10.3881    3.1226 C.3       1 RES1    0.0000
     28 C19        0.9326    8.9957    2.5571 C.3       1 RES1    0.0000
     29 C20        0.2526    8.1265    3.6093 C.3       1 RES1    0.0000
     30 C21        2.2582    8.4168    2.1624 C.3       1 RES1    0.0000
     31 C22        1.1890   15.0785    5.1409 C.2       1 RES1    0.0000
     32 C23        0.6273   17.0762    6.2609 C.3       1 RES1    0.0000
     33 H1         5.2443   12.2233   -4.8043 H         1 RES1    0.0000
     34 H2         4.8608   13.5599   -2.9555 H         1 RES1    0.0000
     35 H3         2.6481   11.9146    0.2664 H         1 RES1    0.0000
     36 H4         3.1851   10.4312   -1.0473 H         1 RES1    0.0000
     37 H5         2.1137    8.4538   -1.5353 H         1 RES1    0.0000
     38 H6         3.5869    8.1159   -1.0401 H         1 RES1    0.0000
     39 H7         2.1126    6.5301   -2.8877 H         1 RES1    0.0000
     40 H8         1.1631    6.1760   -0.8730 H         1 RES1    0.0000
     41 H9         2.5605    6.1310   -0.1296 H         1 RES1    0.0000
     42 H10        2.1237    4.9308   -1.0667 H         1 RES1    0.0000
     43 H11        4.4572    6.4158   -3.2194 H         1 RES1    0.0000
     44 H12        3.8261    5.0081   -2.8574 H         1 RES1    0.0000
     45 H13        4.6079    5.8323   -1.7544 H         1 RES1    0.0000
     46 H14        3.2710   15.1697    1.1103 H         1 RES1    0.0000
     47 H15        2.5492   16.1467    3.0935 H         1 RES1    0.0000
     48 H16        1.0179   12.6170    4.2934 H         1 RES1    0.0000
     49 H17        0.1960   10.7220    3.4059 H         1 RES1    0.0000
     50 H18        1.6634   10.3725    3.9047 H         1 RES1    0.0000
     51 H19        0.3524    9.0352    1.7568 H         1 RES1    0.0000
     52 H20       -0.6018    8.5175    3.8503 H         1 RES1    0.0000
     53 H21        0.8165    8.0714    4.3975 H         1 RES1    0.0000
     54 H22        0.1116    7.2363    3.2509 H         1 RES1    0.0000
     55 H23        2.7531    8.1688    2.9591 H         1 RES1    0.0000
     56 H24        2.7630    9.0764    1.6612 H         1 RES1    0.0000
     57 H25        2.1163    7.6313    1.6115 H         1 RES1    0.0000
     58 H26        0.3373   17.9652    5.9982 H         1 RES1    0.0000
     59 H27        1.2805   17.1461    6.9740 H         1 RES1    0.0000
     60 H28       -0.1371   16.5658    6.5709 H         1 RES1    0.0000
     61 O8         5.6009   10.1735   -5.9752 Du        2 SUP2    0.0000
     62 O9         4.0472    8.7931   -5.4993 Du        2 SUP2    0.0000
@<TRIPOS>BOND
     1    1    8 2
     2    2    8 2
     3    3   15 1
     4    4   20 2
     5    5   26 1
     6    6   31 2
     7    7   31 1
     8    8   10 1
     9    9   20 1
    10   10   11 ar
    11   11   12 ar
    12   12   13 ar
    13   13   14 ar
    14   14   15 ar
    15   15   10 ar
    16   16    3 1
    17   17   16 1
    18   18   17 1
    19   19   17 1
    20   20   13 1
    21   21    9 1
    22   22   21 ar
    23   23   22 ar
    24   24   23 ar
    25   25   24 ar
    26   26   21 ar
    27   27    5 1
    28   28   27 1
    29   29   28 1
    30   30   28 1
    31   31   24 1
    32   32    7 1
    33   33   11 1
    34   34   12 1
    35   35    9 1
    36   36   14 1
    37   37   16 1
    38   38   16 1
    39   39   17 1
    40   40   18 1
    41   41   18 1
    42   42   18 1
    43   43   19 1
    44   44   19 1
    45   45   19 1
    46   46   22 1
    47   47   23 1
    48   48   25 1
    49   49   27 1
    50   50   27 1
    51   51   28 1
    52   52   29 1
    53   53   29 1
    54   54   29 1
    55   55   30 1
    56   56   30 1
    57   57   30 1
    58   58   32 1
    59   59   32 1
    60   60   32 1
    61   25   26 ar
@<TRIPOS>SUBSTRUCTURE
     1 RES1 1
     2 SUP2 61

@<TRIPOS>CRYSIN
   7.9741   11.7410   12.3410  87.2570  79.0110  85.6110   2 1

