# MOL2 file generated by ConQuest
# Please check atom types

@<TRIPOS>MOLECULE
IWONUE
    57    58     1
SMALL
NO_CHARGES
****
Generated from CSD

@<TRIPOS>ATOM
      1 O1         2.1386    7.7117    3.7814 O.2       1 RES1    0.0000
      2 O2         0.3041    6.8973    4.5795 O.2       1 RES1    0.0000
      3 O3         0.3199    4.3607    5.1490 O.3       1 RES1    0.0000
      4 O4         4.4965    1.5187    2.0336 O.2       1 RES1    0.0000
      5 O5         0.9238   -1.2588    3.2114 O.3       1 RES1    0.0000
      6 O6         4.3326   -4.9977   -0.0788 O.2       1 RES1    0.0000
      7 O7         2.4930   -5.6437    1.0378 O.3       1 RES1    0.0000
      8 N1         1.3962    6.7652    4.0416 N.pl3     1 RES1    0.0000
      9 N2         2.3983    0.6302    2.2177 N.am      1 RES1    0.0000
     10 C1         1.8555    5.4173    3.6601 C.ar      1 RES1    0.0000
     11 C2         2.8930    5.3504    2.7487 C.ar      1 RES1    0.0000
     12 C3         3.3649    4.1286    2.3138 C.ar      1 RES1    0.0000
     13 C4         2.7624    2.9640    2.7734 C.ar      1 RES1    0.0000
     14 C5         1.7238    3.0355    3.7006 C.ar      1 RES1    0.0000
     15 C6         1.2660    4.2598    4.1790 C.ar      1 RES1    0.0000
     16 C7        -0.2184    3.1461    5.7134 C.3       1 RES1    0.0000
     17 C8        -1.1740    3.5354    6.8170 C.3       1 RES1    0.0000
     18 C9        -0.4328    4.2206    7.9700 C.3       1 RES1    0.0000
     19 C10       -1.9156    2.3040    7.3243 C.3       1 RES1    0.0000
     20 C11        3.2946    1.6459    2.2968 C.2       1 RES1    0.0000
     21 C12        2.6717   -0.6936    1.7991 C.ar      1 RES1    0.0000
     22 C13        3.6722   -1.0186    0.9045 C.ar      1 RES1    0.0000
     23 C14        3.8779   -2.3389    0.5309 C.ar      1 RES1    0.0000
     24 C15        3.0664   -3.3355    1.0419 C.ar      1 RES1    0.0000
     25 C16        2.0357   -3.0265    1.9393 C.ar      1 RES1    0.0000
     26 C17        1.8536   -1.7087    2.3224 C.ar      1 RES1    0.0000
     27 C18        0.0968   -2.2127    3.9046 C.3       1 RES1    0.0000
     28 C19       -0.7188   -1.4293    4.9127 C.3       1 RES1    0.0000
     29 C20        0.1655   -0.6300    5.8501 C.3       1 RES1    0.0000
     30 C21       -1.5967   -2.4068    5.6846 C.3       1 RES1    0.0000
     31 C22        3.3424   -4.7275    0.6270 C.2       1 RES1    0.0000
     32 H1         3.2840    6.1520    2.4196 H         1 RES1    0.0000
     33 H2         4.0938    4.0843    1.7064 H         1 RES1    0.0000
     34 H3         1.3211    2.2335    4.0112 H         1 RES1    0.0000
     35 H4         0.5122    2.5860    6.0772 H         1 RES1    0.0000
     36 H5        -0.6944    2.6282    5.0166 H         1 RES1    0.0000
     37 H6        -1.8438    4.1786    6.4445 H         1 RES1    0.0000
     38 H7         0.0454    5.0048    7.6305 H         1 RES1    0.0000
     39 H8         0.2077    3.5936    8.3651 H         1 RES1    0.0000
     40 H9        -1.0781    4.5009    8.6513 H         1 RES1    0.0000
     41 H10       -1.2742    1.6722    7.7101 H         1 RES1    0.0000
     42 H11       -2.3877    1.8776    6.5792 H         1 RES1    0.0000
     43 H12       -2.5632    2.5726    8.0101 H         1 RES1    0.0000
     44 H13        4.2233   -0.3352    0.5433 H         1 RES1    0.0000
     45 H14        4.5755   -2.5587   -0.0750 H         1 RES1    0.0000
     46 H15        1.4711   -3.7113    2.2803 H         1 RES1    0.0000
     47 H16        0.6585   -2.8868    4.3647 H         1 RES1    0.0000
     48 H17       -0.4991   -2.6803    3.2674 H         1 RES1    0.0000
     49 H18       -1.3106   -0.7944    4.4167 H         1 RES1    0.0000
     50 H19        0.7246   -0.0180    5.3288 H         1 RES1    0.0000
     51 H20        0.7374   -1.2406    6.3603 H         1 RES1    0.0000
     52 H21       -0.3949   -0.1152    6.4674 H         1 RES1    0.0000
     53 H22       -1.0303   -3.0487    6.1614 H         1 RES1    0.0000
     54 H23       -2.1800   -2.8857    5.0595 H         1 RES1    0.0000
     55 H24       -2.1450   -1.9139    6.3297 H         1 RES1    0.0000
     56 H25        1.5612    0.8165    2.4058 H         1 RES1    0.0000
     57 H26        2.7683   -6.5680    0.6841 H         1 RES1    0.0000
@<TRIPOS>BOND
     1    1    8 2
     2    2    8 2
     3    3   15 1
     4    4   20 2
     5    5   26 1
     6    6   31 2
     7    7   31 1
     8    8   10 1
     9    9   20 1
    10   10   11 ar
    11   11   12 ar
    12   12   13 ar
    13   13   14 ar
    14   14   15 ar
    15   15   10 ar
    16   16    3 1
    17   17   16 1
    18   18   17 1
    19   19   17 1
    20   20   13 1
    21   21    9 1
    22   22   21 ar
    23   23   22 ar
    24   24   23 ar
    25   25   24 ar
    26   26   21 ar
    27   27    5 1
    28   28   27 1
    29   29   28 1
    30   30   28 1
    31   31   24 1
    32   32   11 1
    33   33   12 1
    34   34   14 1
    35   35   16 1
    36   36   16 1
    37   37   17 1
    38   38   18 1
    39   39   18 1
    40   40   18 1
    41   41   19 1
    42   42   19 1
    43   43   19 1
    44   44   22 1
    45   45   23 1
    46   46   25 1
    47   47   27 1
    48   48   27 1
    49   49   28 1
    50   50   29 1
    51   51   29 1
    52   52   29 1
    53   53   30 1
    54   54   30 1
    55   55   30 1
    56   56    9 1
    57   57    7 1
    58   25   26 ar
@<TRIPOS>SUBSTRUCTURE
     1 RES1 1

@<TRIPOS>CRYSIN
   5.1322   13.1959   15.4257  96.5080  91.9000 100.0030   2 1

