# MOL2 file generated by ConQuest
# Please check atom types

@<TRIPOS>MOLECULE
IWOPAM01
    54    55     1
SMALL
NO_CHARGES
****
Generated from CSD

@<TRIPOS>ATOM
      1 O1         6.4403    3.8384    2.1914 O.3       1 RES1    0.0000
      2 O2         3.3381    7.1261    0.8458 O.2       1 RES1    0.0000
      3 O3         3.2494   -0.3056    2.5266 O.2       1 RES1    0.0000
      4 O4         1.4138    0.5287    1.4748 O.3       1 RES1    0.0000
      5 N1         4.8531    5.9389    2.1143 N.am      1 RES1    0.0000
      6 H1         5.5797    6.0238    2.6029 H         1 RES1    0.0000
      7 O5         9.0207    9.1160    1.4185 O.3       1 RES1    0.0000
      8 C1         5.0938    3.5262    2.1456 C.ar      1 RES1    0.0000
      9 C2         6.7883    8.0511    1.4561 C.ar      1 RES1    0.0000
     10 H2         7.1495    7.1722    1.4385 H         1 RES1    0.0000
     11 C3         4.4274    7.0542    1.4328 C.2       1 RES1    0.0000
     12 C4         4.2259    4.6526    2.1043 C.ar      1 RES1    0.0000
     13 C5         5.3891    8.2326    1.4573 C.ar      1 RES1    0.0000
     14 C6         7.0580   10.4488    1.5091 C.ar      1 RES1    0.0000
     15 C7         4.8335    9.5297    1.4447 C.ar      1 RES1    0.0000
     16 H3         3.8907    9.6466    1.4209 H         1 RES1    0.0000
     17 C8         4.5519    2.2376    2.1197 C.ar      1 RES1    0.0000
     18 H4         5.1247    1.4802    2.1468 H         1 RES1    0.0000
     19 C9         2.2949    3.1724    2.0301 C.ar      1 RES1    0.0000
     20 H5         1.3541    3.0492    1.9914 H         1 RES1    0.0000
     21 C10        7.6566    9.1638    1.4800 C.ar      1 RES1    0.0000
     22 C11        3.1485    2.0610    2.0527 C.ar      1 RES1    0.0000
     23 O6         7.5947   12.6107    0.8150 O.2       1 RES1    0.0000
     24 C12        5.6774   10.6397    1.4682 C.ar      1 RES1    0.0000
     25 H6         5.3146   11.5178    1.4561 H         1 RES1    0.0000
     26 C13        2.8344    4.4695    2.0657 C.ar      1 RES1    0.0000
     27 H7         2.2571    5.2239    2.0632 H         1 RES1    0.0000
     28 N2         7.9157   11.6618    1.5601 N.pl3     1 RES1    0.0000
     29 C14        7.4294    2.7595    2.0849 C.3       1 RES1    0.0000
     30 H8         7.1514    2.1207    1.3682 H         1 RES1    0.0000
     31 C15        2.6372    0.6476    2.0533 C.2       1 RES1    0.0000
     32 O7         8.8677   11.6859    2.3545 O.2       1 RES1    0.0000
     33 C16        8.7364    3.4382    1.6840 C.3       1 RES1    0.0000
     34 H9         8.5971    3.9571    0.8652 H         1 RES1    0.0000
     35 H10        9.4229    2.7573    1.5265 H         1 RES1    0.0000
     36 H11        9.0285    4.0356    2.4034 H         1 RES1    0.0000
     37 C17        7.5637    2.0105    3.4119 C.3       1 RES1    0.0000
     38 H12        7.8074    2.6428    4.1206 H         1 RES1    0.0000
     39 H13        8.2603    1.3259    3.3317 H         1 RES1    0.0000
     40 H14        6.7100    1.5831    3.6337 H         1 RES1    0.0000
     41 C18        9.7977    7.1825    2.7131 C.3       1 RES1    0.0000
     42 H15       10.1728    7.8217    3.3537 H         1 RES1    0.0000
     43 H16       10.3685    6.3878    2.6733 H         1 RES1    0.0000
     44 H17        8.8963    6.9240    3.0003 H         1 RES1    0.0000
     45 C19        9.7261    7.8288    1.3308 C.3       1 RES1    0.0000
     46 H18        9.2500    7.2211    0.6951 H         1 RES1    0.0000
     47 C20       11.1022    8.1935    0.7726 C.3       1 RES1    0.0000
     48 H19       11.0029    8.5432   -0.1378 H         1 RES1    0.0000
     49 H20       11.6706    7.3947    0.7552 H         1 RES1    0.0000
     50 H21       11.5157    8.8762    1.3418 H         1 RES1    0.0000
     51 C21        0.8965   -0.8411    1.4017 C.3       1 RES1    0.0000
     52 H22        0.0126   -0.8346    0.9781 H         1 RES1    0.0000
     53 H23        0.8216   -1.2102    2.3067 H         1 RES1    0.0000
     54 H24        1.5085   -1.3941    0.8725 H         1 RES1    0.0000
@<TRIPOS>BOND
     1    1    8 1
     2    2   11 2
     3    3   31 2
     4    4   31 1
     5    5    6 1
     6    7   21 1
     7    8   12 ar
     8    9   10 1
     9   11    5 1
    10   12    5 1
    11   13    9 ar
    12   14   21 ar
    13   15   13 ar
    14   16   15 1
    15   17    8 ar
    16   18   17 1
    17   19   20 1
    18   21    9 ar
    19   22   17 ar
    20   23   28 2
    21   24   14 ar
    22   25   24 1
    23   26   12 ar
    24   27   26 1
    25   28   14 1
    26   29    1 1
    27   30   29 1
    28   31   22 1
    29   32   28 2
    30   33   29 1
    31   34   33 1
    32   35   33 1
    33   36   33 1
    34   37   29 1
    35   38   37 1
    36   39   37 1
    37   40   37 1
    38   41   42 1
    39   43   41 1
    40   44   41 1
    41   45    7 1
    42   46   45 1
    43   47   45 1
    44   48   47 1
    45   49   47 1
    46   50   47 1
    47   51    4 1
    48   52   51 1
    49   53   51 1
    50   54   51 1
    51   11   13 1
    52   15   24 ar
    53   19   22 ar
    54   19   26 ar
    55   41   45 1
@<TRIPOS>SUBSTRUCTURE
     1 RES1 1

@<TRIPOS>CRYSIN
  11.1751   12.8604   14.9153  90.0000 100.5320  90.0000  14 1

