# MOL2 file generated by ConQuest
# Please check atom types

@<TRIPOS>MOLECULE
IWUPOH
    56    59     1
SMALL
USER_CHARGES
****
Generated from CSD

@<TRIPOS>ATOM
      1 O1         4.1642    7.0873    6.0049 O.2       1 RES1   -1.0000
      2 O2         1.9559    4.3874    5.9790 O.3       1 RES1    0.0000
      3 O3        -0.9427    6.5283    7.3458 O.2       1 RES1    0.0000
      4 N1         3.6232    5.9254    6.0515 N.pl3     1 RES1    1.0000
      5 C1         2.1698    5.7886    5.7959 C.3       1 RES1    0.0000
      6 C2         4.1985    4.7667    6.2820 C.2       1 RES1    0.0000
      7 C3         3.1655    3.7453    6.2383 C.2       1 RES1    0.0000
      8 C4         1.3885    6.5843    6.8308 C.3       1 RES1    0.0000
      9 C5        -0.0904    6.6618    6.5048 C.2       1 RES1    0.0000
     10 C6        -0.4315    6.9847    5.0725 C.3       1 RES1    0.0000
     11 C7         0.3598    6.1201    4.0897 C.3       1 RES1    0.0000
     12 C8         1.8537    6.2071    4.3699 C.3       1 RES1    0.0000
     13 C9         5.6583    4.7450    6.5866 C.3       1 RES1    0.0000
     14 C10        5.9457    5.0967    8.0518 C.3       1 RES1    0.0000
     15 C11        7.4426    5.1551    8.3329 C.3       1 RES1    0.0000
     16 C12        7.7589    5.4575    9.7921 C.3       1 RES1    0.0000
     17 C13        3.2357    2.4065    6.4329 C.2       1 RES1    0.0000
     18 C14        4.5804    1.8103    6.7061 C.ar      1 RES1    0.0000
     19 C15        5.3789    1.3650    5.6487 C.ar      1 RES1    0.0000
     20 C16        6.6577    0.8756    5.8827 C.ar      1 RES1    0.0000
     21 C17        7.1504    0.8172    7.1774 C.ar      1 RES1    0.0000
     22 C18        6.3483    1.2037    8.2407 C.ar      1 RES1    0.0000
     23 C19        5.0676    1.6933    8.0123 C.ar      1 RES1    0.0000
     24 C20        2.0663    1.4943    6.4382 C.ar      1 RES1    0.0000
     25 C21        2.1701    0.2637    7.1121 C.ar      1 RES1    0.0000
     26 C22        1.0908   -0.6016    7.1888 C.ar      1 RES1    0.0000
     27 C23       -0.1217   -0.2800    6.5948 C.ar      1 RES1    0.0000
     28 C24       -0.2290    0.9163    5.8956 C.ar      1 RES1    0.0000
     29 C25        0.8478    1.7905    5.8125 C.ar      1 RES1    0.0000
     30 H1         1.5030    6.1615    7.7187 H         1 RES1    0.0000
     31 H2         1.7579    7.5013    6.8813 H         1 RES1    0.0000
     32 H3        -0.2362    7.9394    4.8977 H         1 RES1    0.0000
     33 H4        -1.4001    6.8402    4.9272 H         1 RES1    0.0000
     34 H5         0.0641    5.1784    4.1667 H         1 RES1    0.0000
     35 H6         0.1797    6.4236    3.1646 H         1 RES1    0.0000
     36 H7         2.3412    5.6201    3.7392 H         1 RES1    0.0000
     37 H8         2.1622    7.1364    4.2239 H         1 RES1    0.0000
     38 H9         6.1232    5.3923    5.9992 H         1 RES1    0.0000
     39 H10        6.0183    3.8437    6.3913 H         1 RES1    0.0000
     40 H11        5.5387    5.9738    8.2636 H         1 RES1    0.0000
     41 H12        5.5289    4.4171    8.6390 H         1 RES1    0.0000
     42 H13        7.8512    4.2876    8.0873 H         1 RES1    0.0000
     43 H14        7.8508    5.8541    7.7628 H         1 RES1    0.0000
     44 H15        7.3061    6.2842   10.0600 H         1 RES1    0.0000
     45 H16        8.7269    5.5650    9.9009 H         1 RES1    0.0000
     46 H17        7.4472    4.7174   10.3539 H         1 RES1    0.0000
     47 H18        5.0435    1.3973    4.7606 H         1 RES1    0.0000
     48 H19        7.1943    0.5810    5.1562 H         1 RES1    0.0000
     49 H20        8.0362    0.5127    7.3360 H         1 RES1    0.0000
     50 H21        6.6759    1.1335    9.1296 H         1 RES1    0.0000
     51 H22        4.5209    1.9492    8.7460 H         1 RES1    0.0000
     52 H23        2.9931    0.0222    7.5208 H         1 RES1    0.0000
     53 H24        1.1816   -1.4249    7.6537 H         1 RES1    0.0000
     54 H25       -0.8652   -0.8672    6.6649 H         1 RES1    0.0000
     55 H26       -1.0482    1.1391    5.4694 H         1 RES1    0.0000
     56 H27        0.7567    2.6006    5.3246 H         1 RES1    0.0000
@<TRIPOS>BOND
     1    1    4 1
     2    2    5 1
     3    3    9 2
     4    4    5 1
     5    5    8 1
     6    6    4 2
     7    7    2 1
     8    8    9 1
     9    9   10 1
    10   10   11 1
    11   11   12 1
    12   12    5 1
    13   13    6 1
    14   14   13 1
    15   15   14 1
    16   16   15 1
    17   17    7 2
    18   18   17 1
    19   19   18 ar
    20   20   19 ar
    21   21   20 ar
    22   22   21 ar
    23   23   18 ar
    24   24   17 1
    25   25   24 ar
    26   26   25 ar
    27   27   26 ar
    28   28   27 ar
    29   29   24 ar
    30   30    8 1
    31   31    8 1
    32   32   10 1
    33   33   10 1
    34   34   11 1
    35   35   11 1
    36   36   12 1
    37   37   12 1
    38   38   13 1
    39   39   13 1
    40   40   14 1
    41   41   14 1
    42   42   15 1
    43   43   15 1
    44   44   16 1
    45   45   16 1
    46   46   16 1
    47   47   19 1
    48   48   20 1
    49   49   21 1
    50   50   22 1
    51   51   23 1
    52   52   25 1
    53   53   26 1
    54   54   27 1
    55   55   28 1
    56   56   29 1
    57    6    7 1
    58   22   23 ar
    59   28   29 ar
@<TRIPOS>SUBSTRUCTURE
     1 RES1 1

@<TRIPOS>CRYSIN
  11.4987   18.6651    9.8202  90.0000 104.6670  90.0000  14 1

