# MOL2 file generated by ConQuest
# Please check atom types

@<TRIPOS>MOLECULE
IWUPUN
   116   122     2
SMALL
USER_CHARGES
****
Generated from CSD

@<TRIPOS>ATOM
      1 O1        -0.6923   10.6993    5.2466 O.2       1 RES1   -1.0000
      2 O2        -3.3182    8.6958    6.3385 O.3       1 RES1    0.0000
      3 O3        -3.5633   10.8677    5.5940 O.3       1 RES1    0.0000
      4 O4        -4.5358   10.8707    3.4705 O.3       1 RES1    0.0000
      5 O5        -3.8567    9.5000    1.8849 O.2       1 RES1    0.0000
      6 N1        -1.4804    9.9468    5.9346 N.pl3     1 RES1    1.0000
      7 C1        -2.8593    9.6683    5.4375 C.3       1 RES1    0.0000
      8 C2        -1.2496    9.3332    7.0722 C.2       1 RES1    0.0000
      9 C3        -2.4494    8.6074    7.4289 C.2       1 RES1    0.0000
     10 C4        -4.8111   10.9011    4.8974 C.3       1 RES1    0.0000
     11 C5        -3.7898    9.8307    3.0352 C.2       1 RES1    0.0000
     12 C6        -2.8512    9.1637    4.0057 C.3       1 RES1    0.0000
     13 C7        -5.7321    9.7399    5.2274 C.3       1 RES1    0.0000
     14 C8        -5.4313   12.2373    5.1973 C.3       1 RES1    0.0000
     15 C9         0.0770    9.4296    7.7405 C.3       1 RES1    0.0000
     16 C10        0.2672   10.7347    8.5231 C.3       1 RES1    0.0000
     17 C11        1.4667   10.6755    9.4561 C.3       1 RES1    0.0000
     18 C12        1.5060   11.8418   10.4294 C.3       1 RES1    0.0000
     19 C13       -2.8246    7.9413    8.5383 C.2       1 RES1    0.0000
     20 C14       -1.9424    7.8914    9.7473 C.ar      1 RES1    0.0000
     21 C15       -1.7429    9.0067   10.5484 C.ar      1 RES1    0.0000
     22 C16       -0.9384    8.9265   11.6807 C.ar      1 RES1    0.0000
     23 C17       -0.3569    7.7265   12.0423 C.ar      1 RES1    0.0000
     24 C18       -0.5755    6.6051   11.2670 C.ar      1 RES1    0.0000
     25 C19       -1.3618    6.6836   10.1244 C.ar      1 RES1    0.0000
     26 C20       -4.1475    7.2765    8.6516 C.ar      1 RES1    0.0000
     27 C21       -4.8175    7.3108    9.8827 C.ar      1 RES1    0.0000
     28 C22       -6.0648    6.7310   10.0329 C.ar      1 RES1    0.0000
     29 C23       -6.6716    6.1013    8.9594 C.ar      1 RES1    0.0000
     30 C24       -6.0111    6.0382    7.7409 C.ar      1 RES1    0.0000
     31 C25       -4.7614    6.6193    7.5799 C.ar      1 RES1    0.0000
     32 H1        -1.9304    9.2567    3.6539 H         1 RES1    0.0000
     33 H2        -3.0634    8.1969    4.0211 H         1 RES1    0.0000
     34 H3        -5.3286    8.9036    4.9141 H         1 RES1    0.0000
     35 H4        -6.5960    9.8721    4.7841 H         1 RES1    0.0000
     36 H5        -5.8658    9.6946    6.1972 H         1 RES1    0.0000
     37 H6        -4.8157   12.9509    4.9283 H         1 RES1    0.0000
     38 H7        -5.6109   12.3058    6.1583 H         1 RES1    0.0000
     39 H8        -6.2715   12.3263    4.7008 H         1 RES1    0.0000
     40 H9         0.7879    9.3597    7.0549 H         1 RES1    0.0000
     41 H10        0.1802    8.6652    8.3611 H         1 RES1    0.0000
     42 H11        0.3883   11.4817    7.8849 H         1 RES1    0.0000
     43 H12       -0.5486   10.9176    9.0535 H         1 RES1    0.0000
     44 H13        1.4379    9.8281    9.9672 H         1 RES1    0.0000
     45 H14        2.2969   10.6761    8.9166 H         1 RES1    0.0000
     46 H15        1.5093   12.6846    9.9295 H         1 RES1    0.0000
     47 H16        2.3168   11.7833   10.9767 H         1 RES1    0.0000
     48 H17        0.7171   11.8095   11.0099 H         1 RES1    0.0000
     49 H18       -2.1586    9.8304   10.3224 H         1 RES1    0.0000
     50 H19       -0.7879    9.7019   12.2087 H         1 RES1    0.0000
     51 H20        0.1887    7.6734   12.8181 H         1 RES1    0.0000
     52 H21       -0.1859    5.7753   11.5161 H         1 RES1    0.0000
     53 H22       -1.5048    5.9070    9.5965 H         1 RES1    0.0000
     54 H23       -4.4084    7.7389   10.6257 H         1 RES1    0.0000
     55 H24       -6.5054    6.7650   10.8739 H         1 RES1    0.0000
     56 H25       -7.5342    5.7153    9.0564 H         1 RES1    0.0000
     57 H26       -6.4193    5.5918    7.0083 H         1 RES1    0.0000
     58 H27       -4.3213    6.5707    6.7395 H         1 RES1    0.0000
     59 O6         8.4141    2.8494    3.8396 O.2       2 RES2   -1.0000
     60 O7         9.0990    4.9606    6.5160 O.3       2 RES2    0.0000
     61 O8         9.9571    2.8193    6.2894 O.3       2 RES2    0.0000
     62 O9        12.1817    2.8336    5.5743 O.3       2 RES2    0.0000
     63 O10       12.7616    3.9787    3.7844 O.2       2 RES2    0.0000
     64 N2         8.3312    3.6033    4.8851 N.pl3     2 RES2    1.0000
     65 C26        9.5659    3.9823    5.6190 C.3       2 RES2    0.0000
     66 C27        7.2612    4.1289    5.4381 C.2       2 RES2    0.0000
     67 C28        7.6985    4.9680    6.5351 C.2       2 RES2    0.0000
     68 C29       11.3111    2.8106    6.7365 C.3       2 RES2    0.0000
     69 C30       11.9421    3.7767    4.6348 C.2       2 RES2    0.0000
     70 C31       10.6402    4.5313    4.6928 C.3       2 RES2    0.0000
     71 C32       11.6498    3.9728    7.6452 C.3       2 RES2    0.0000
     72 C33       11.5284    1.4755    7.3950 C.3       2 RES2    0.0000
     73 C34        5.9216    3.8362    4.8521 C.3       2 RES2    0.0000
     74 C35        5.4248    2.4269    5.2043 C.3       2 RES2    0.0000
     75 C36        3.9943    2.1701    4.7584 C.3       2 RES2    0.0000
     76 C37        3.4634    0.8317    5.2566 C.3       2 RES2    0.0000
     77 C38        7.0257    5.7134    7.4346 C.2       2 RES2    0.0000
     78 C39        5.5356    5.5975    7.5022 C.ar      2 RES2    0.0000
     79 C40        4.9501    4.4026    7.9076 C.ar      2 RES2    0.0000
     80 C41        3.5639    4.2797    7.9588 C.ar      2 RES2    0.0000
     81 C42        2.7563    5.3573    7.6471 C.ar      2 RES2    0.0000
     82 C43        3.3352    6.5619    7.2738 C.ar      2 RES2    0.0000
     83 C44        4.7171    6.6866    7.1948 C.ar      2 RES2    0.0000
     84 C45        7.6712    6.6267    8.4089 C.ar      2 RES2    0.0000
     85 C46        7.0199    6.9065    9.6196 C.ar      2 RES2    0.0000
     86 C47        7.5573    7.7951   10.5408 C.ar      2 RES2    0.0000
     87 C48        8.7626    8.4248   10.2794 C.ar      2 RES2    0.0000
     88 C49        9.4306    8.1448    9.0914 C.ar      2 RES2    0.0000
     89 C50        8.8984    7.2622    8.1637 C.ar      2 RES2    0.0000
     90 H28       10.2663    4.5686    3.7769 H         2 RES2    0.0000
     91 H29       10.8368    5.4617    4.9683 H         2 RES2    0.0000
     92 H30       11.5713    4.8121    7.1455 H         2 RES2    0.0000
     93 H31       12.5675    3.8735    7.9745 H         2 RES2    0.0000
     94 H32       11.0302    3.9855    8.4043 H         2 RES2    0.0000
     95 H33       11.3281    0.7598    6.7562 H         2 RES2    0.0000
     96 H34       10.9372    1.3945    8.1723 H         2 RES2    0.0000
     97 H35       12.4616    1.4025    7.6854 H         2 RES2    0.0000
     98 H36        5.9715    3.9258    3.8676 H         2 RES2    0.0000
     99 H37        5.2694    4.5025    5.1850 H         2 RES2    0.0000
    100 H38        6.0194    1.7604    4.7775 H         2 RES2    0.0000
    101 H39        5.4836    2.3006    6.1845 H         2 RES2    0.0000
    102 H40        3.9549    2.1868    3.7693 H         2 RES2    0.0000
    103 H41        3.4133    2.8963    5.0976 H         2 RES2    0.0000
    104 H42        3.5144    0.8038    6.2349 H         2 RES2    0.0000
    105 H43        4.0032    0.1055    4.8806 H         2 RES2    0.0000
    106 H44        2.5306    0.7251    4.9751 H         2 RES2    0.0000
    107 H45        5.4990    3.6663    8.1510 H         2 RES2    0.0000
    108 H46        3.1716    3.4514    8.2088 H         2 RES2    0.0000
    109 H47        1.8107    5.2738    7.6886 H         2 RES2    0.0000
    110 H48        2.7826    7.3073    7.0703 H         2 RES2    0.0000
    111 H49        5.1052    7.5129    6.9316 H         2 RES2    0.0000
    112 H50        6.1941    6.4789    9.8128 H         2 RES2    0.0000
    113 H51        7.0966    7.9717   11.3530 H         2 RES2    0.0000
    114 H52        9.1288    9.0404   10.9034 H         2 RES2    0.0000
    115 H53       10.2641    8.5645    8.9132 H         2 RES2    0.0000
    116 H54        9.3676    7.0865    7.3565 H         2 RES2    0.0000
@<TRIPOS>BOND
     1    1    6 1
     2    2    7 1
     3    3    7 1
     4    4   10 1
     5    5   11 2
     6    6    7 1
     7    7   12 1
     8    8    6 2
     9    9    2 1
    10   10    3 1
    11   11    4 1
    12   12   11 1
    13   13   10 1
    14   14   10 1
    15   15    8 1
    16   16   15 1
    17   17   16 1
    18   18   17 1
    19   19    9 2
    20   20   19 1
    21   21   20 ar
    22   22   21 ar
    23   23   22 ar
    24   24   23 ar
    25   25   20 ar
    26   26   19 1
    27   27   26 ar
    28   28   27 ar
    29   29   28 ar
    30   30   29 ar
    31   31   26 ar
    32   32   12 1
    33   33   12 1
    34   34   13 1
    35   35   13 1
    36   36   13 1
    37   37   14 1
    38   38   14 1
    39   39   14 1
    40   40   15 1
    41   41   15 1
    42   42   16 1
    43   43   16 1
    44   44   17 1
    45   45   17 1
    46   46   18 1
    47   47   18 1
    48   48   18 1
    49   49   21 1
    50   50   22 1
    51   51   23 1
    52   52   24 1
    53   53   25 1
    54   54   27 1
    55   55   28 1
    56   56   29 1
    57   57   30 1
    58   58   31 1
    59   59   64 1
    60   60   65 1
    61   61   65 1
    62   62   68 1
    63   63   69 2
    64   64   65 1
    65   65   70 1
    66   66   64 2
    67   67   60 1
    68   68   61 1
    69   69   62 1
    70   70   69 1
    71   71   68 1
    72   72   68 1
    73   73   66 1
    74   74   73 1
    75   75   74 1
    76   76   75 1
    77   77   67 2
    78   78   77 1
    79   79   78 ar
    80   80   79 ar
    81   81   80 ar
    82   82   81 ar
    83   83   78 ar
    84   84   77 1
    85   85   84 ar
    86   86   85 ar
    87   87   86 ar
    88   88   87 ar
    89   89   84 ar
    90   90   70 1
    91   91   70 1
    92   92   71 1
    93   93   71 1
    94   94   71 1
    95   95   72 1
    96   96   72 1
    97   97   72 1
    98   98   73 1
    99   99   73 1
   100  100   74 1
   101  101   74 1
   102  102   75 1
   103  103   75 1
   104  104   76 1
   105  105   76 1
   106  106   76 1
   107  107   79 1
   108  108   80 1
   109  109   81 1
   110  110   82 1
   111  111   83 1
   112  112   85 1
   113  113   86 1
   114  114   87 1
   115  115   88 1
   116  116   89 1
   117    8    9 1
   118   24   25 ar
   119   30   31 ar
   120   66   67 1
   121   82   83 ar
   122   88   89 ar
@<TRIPOS>SUBSTRUCTURE
     1 RES1 1
     2 RES2 59

@<TRIPOS>CRYSIN
  24.3312    9.4188   21.1358  90.0000 116.3240  90.0000  14 1

