# MOL2 file generated by ConQuest
# Please check atom types

@<TRIPOS>MOLECULE
IWUQUO
    56    59     1
SMALL
NO_CHARGES
****
Generated from CSD

@<TRIPOS>ATOM
      1 O1         1.2468    4.2835    7.9083 O.2       1 RES1    0.0000
      2 O2         2.1943    3.8825    5.4105 O.3       1 RES1    0.0000
      3 O3         2.7392    1.8416    6.3982 O.3       1 RES1    0.0000
      4 N1         3.0840    0.8658    5.4284 N.2       1 RES1    0.0000
      5 C1         1.1321    3.1632    7.4820 C.2       1 RES1    0.0000
      6 C2         0.4148    2.0636    8.2049 C.3       1 RES1    0.0000
      7 C3        -0.6634    1.4393    7.3106 C.3       1 RES1    0.0000
      8 C4        -0.0562    0.9660    5.9954 C.3       1 RES1    0.0000
      9 C5         0.6053    2.1315    5.2399 C.3       1 RES1    0.0000
     10 C6         1.6959    2.7951    6.0903 C.3       1 RES1    0.0000
     11 C7         1.3086    1.7114    3.9756 C.2       1 RES1    0.0000
     12 C8         2.4603    0.8383    4.2955 C.2       1 RES1    0.0000
     13 C9         2.8300   -0.3512    3.4304 C.3       1 RES1    0.0000
     14 C10        1.6288   -1.2523    3.1257 C.3       1 RES1    0.0000
     15 C11        1.9040   -2.2580    1.9686 C.3       1 RES1    0.0000
     16 C12        2.9322   -3.2995    2.3481 C.3       1 RES1    0.0000
     17 C13        0.9252    2.0927    2.7356 C.2       1 RES1    0.0000
     18 C14       -0.3848    2.7557    2.4787 C.ar      1 RES1    0.0000
     19 C15       -1.5705    2.2321    3.0021 C.ar      1 RES1    0.0000
     20 C16       -2.7922    2.8357    2.7344 C.ar      1 RES1    0.0000
     21 C17       -2.8490    3.9626    1.9271 C.ar      1 RES1    0.0000
     22 C18       -1.6806    4.4842    1.3878 C.ar      1 RES1    0.0000
     23 C19       -0.4594    3.8839    1.6560 C.ar      1 RES1    0.0000
     24 C20        1.7602    1.8575    1.5275 C.ar      1 RES1    0.0000
     25 C21        1.1977    1.2369    0.4092 C.ar      1 RES1    0.0000
     26 C22        1.9826    0.9049   -0.6879 C.ar      1 RES1    0.0000
     27 C23        3.3304    1.2387   -0.7046 C.ar      1 RES1    0.0000
     28 C24        3.8852    1.9161    0.3734 C.ar      1 RES1    0.0000
     29 C25        3.1053    2.2233    1.4827 C.ar      1 RES1    0.0000
     30 H1         2.7237    4.3048    5.9074 H         1 RES1    0.0000
     31 H2        -0.0046    2.4256    9.0250 H         1 RES1    0.0000
     32 H3         1.0647    1.3666    8.4746 H         1 RES1    0.0000
     33 H4        -1.0791    0.6722    7.7786 H         1 RES1    0.0000
     34 H5        -1.3701    2.1078    7.1278 H         1 RES1    0.0000
     35 H6        -0.7647    0.5674    5.4303 H         1 RES1    0.0000
     36 H7         0.6199    0.2662    6.1780 H         1 RES1    0.0000
     37 H8        -0.0920    2.8119    5.0148 H         1 RES1    0.0000
     38 H9         3.5253   -0.8836    3.8923 H         1 RES1    0.0000
     39 H10        3.2141   -0.0248    2.5782 H         1 RES1    0.0000
     40 H11        0.8540   -0.6862    2.8832 H         1 RES1    0.0000
     41 H12        1.3900   -1.7585    3.9423 H         1 RES1    0.0000
     42 H13        1.0587   -2.7105    1.7234 H         1 RES1    0.0000
     43 H14        2.2238   -1.7601    1.1748 H         1 RES1    0.0000
     44 H15        2.6229   -3.7917    3.1367 H         1 RES1    0.0000
     45 H16        3.7839   -2.8588    2.5513 H         1 RES1    0.0000
     46 H17        3.0569   -3.9224    1.6018 H         1 RES1    0.0000
     47 H18       -1.5403    1.4545    3.5471 H         1 RES1    0.0000
     48 H19       -3.5900    2.4766    3.1046 H         1 RES1    0.0000
     49 H20       -3.6846    4.3759    1.7440 H         1 RES1    0.0000
     50 H21       -1.7177    5.2546    0.8333 H         1 RES1    0.0000
     51 H22        0.3344    4.2428    1.2770 H         1 RES1    0.0000
     52 H23        0.2684    1.0400    0.3986 H         1 RES1    0.0000
     53 H24        1.5971    0.4492   -1.4268 H         1 RES1    0.0000
     54 H25        3.8706    1.0047   -1.4501 H         1 RES1    0.0000
     55 H26        4.8003    2.1705    0.3525 H         1 RES1    0.0000
     56 H27        3.4920    2.6864    2.2164 H         1 RES1    0.0000
@<TRIPOS>BOND
     1    1    5 2
     2    2   10 1
     3    3    4 1
     4    4   12 2
     5    5    6 1
     6    6    7 1
     7    7    8 1
     8    8    9 1
     9    9   10 1
    10   10    3 1
    11   11    9 1
    12   12   11 1
    13   13   12 1
    14   14   13 1
    15   15   14 1
    16   16   15 1
    17   17   11 2
    18   18   17 1
    19   19   18 ar
    20   20   19 ar
    21   21   20 ar
    22   22   21 ar
    23   23   18 ar
    24   24   17 1
    25   25   24 ar
    26   26   25 ar
    27   27   26 ar
    28   28   27 ar
    29   29   24 ar
    30   30    2 1
    31   31    6 1
    32   32    6 1
    33   33    7 1
    34   34    7 1
    35   35    8 1
    36   36    8 1
    37   37    9 1
    38   38   13 1
    39   39   13 1
    40   40   14 1
    41   41   14 1
    42   42   15 1
    43   43   15 1
    44   44   16 1
    45   45   16 1
    46   46   16 1
    47   47   19 1
    48   48   20 1
    49   49   21 1
    50   50   22 1
    51   51   23 1
    52   52   25 1
    53   53   26 1
    54   54   27 1
    55   55   28 1
    56   56   29 1
    57    5   10 1
    58   22   23 ar
    59   28   29 ar
@<TRIPOS>SUBSTRUCTURE
     1 RES1 1

@<TRIPOS>CRYSIN
   9.2884    9.1677   24.8234  90.0000  99.0400  90.0000  14 1

