# MOL2 file generated by ConQuest
# Please check atom types

@<TRIPOS>MOLECULE
IWUREZ
    59    62     1
SMALL
USER_CHARGES
****
Generated from CSD

@<TRIPOS>ATOM
      1 O1         9.3558    6.8593    4.0727 O.2       1 RES1   -1.0000
      2 O2         9.2657   10.5197    7.6357 O.2       1 RES1    0.0000
      3 O3         8.5031    9.1569    9.2634 O.3       1 RES1    0.0000
      4 N1         9.3558    6.9978    5.3659 N.pl3     1 RES1    1.0000
      5 N2         9.4062    9.3164    5.0718 N.pl3     1 RES1    0.0000
      6 H1         9.3979   10.1450    5.3668 H         1 RES1    0.0000
      7 H2         9.4265    9.1568    4.2062 H         1 RES1    0.0000
      8 C1         9.3886    8.3068    5.9314 C.2       1 RES1    0.0000
      9 C2         9.3575    8.2025    7.2949 C.2       1 RES1    0.0000
     10 C3         9.3594    6.7669    7.6111 C.2       1 RES1    0.0000
     11 C4         9.3393    6.0680    6.3193 C.2       1 RES1    0.0000
     12 C5         9.0672    9.3897    8.0688 C.2       1 RES1    0.0000
     13 C6         8.2983   10.3189   10.1106 C.3       1 RES1    0.0000
     14 H3         9.0658   10.9366   10.0114 H         1 RES1    0.0000
     15 H4         8.2576   10.0310   11.0568 H         1 RES1    0.0000
     16 C7         7.0239   11.0453    9.7540 C.3       1 RES1    0.0000
     17 H5         7.0757   11.3603    8.8271 H         1 RES1    0.0000
     18 H6         6.9061   11.8114   10.3539 H         1 RES1    0.0000
     19 H7         6.2628   10.4357    9.8498 H         1 RES1    0.0000
     20 C8         9.5102    6.1743    8.8417 C.2       1 RES1    0.0000
     21 C9        10.0488    6.8958   10.0147 C.ar      1 RES1    0.0000
     22 C10       11.1161    7.7935    9.8773 C.ar      1 RES1    0.0000
     23 H8        11.5091    7.9319    9.0237 H         1 RES1    0.0000
     24 C11       11.6043    8.4823   10.9804 C.ar      1 RES1    0.0000
     25 H9        12.3225    9.0947   10.8748 H         1 RES1    0.0000
     26 C12       11.0469    8.2798   12.2375 C.ar      1 RES1    0.0000
     27 H10       11.3727    8.7630   12.9881 H         1 RES1    0.0000
     28 C13       10.0112    7.3669   12.3907 C.ar      1 RES1    0.0000
     29 H11        9.6355    7.2179   13.2503 H         1 RES1    0.0000
     30 C14        9.5220    6.6713   11.2931 C.ar      1 RES1    0.0000
     31 H12        8.8237    6.0378   11.4105 H         1 RES1    0.0000
     32 C15        9.1486    4.7515    9.0441 C.ar      1 RES1    0.0000
     33 C16       10.0852    3.8409    9.5512 C.ar      1 RES1    0.0000
     34 H13       10.9324    4.1508    9.8498 H         1 RES1    0.0000
     35 C17        9.7807    2.4888    9.6195 C.ar      1 RES1    0.0000
     36 H14       10.4289    1.8722    9.9391 H         1 RES1    0.0000
     37 C18        8.5294    2.0339    9.2215 C.ar      1 RES1    0.0000
     38 H15        8.3277    1.1061    9.2554 H         1 RES1    0.0000
     39 C19        7.5751    2.9361    8.7746 C.ar      1 RES1    0.0000
     40 H16        6.7109    2.6275    8.5288 H         1 RES1    0.0000
     41 C20        7.8786    4.2899    8.6844 C.ar      1 RES1    0.0000
     42 H17        7.2216    4.9036    8.3773 H         1 RES1    0.0000
     43 C21        9.4723    4.6194    5.9524 C.3       1 RES1    0.0000
     44 H18        9.5569    4.1040    6.8054 H         1 RES1    0.0000
     45 C22        8.2027    4.1133    5.2382 C.3       1 RES1    0.0000
     46 H19        7.4151    4.2582    5.8199 H         1 RES1    0.0000
     47 H20        8.0656    4.6260    4.4028 H         1 RES1    0.0000
     48 C23        8.3296    2.6246    4.9102 C.3       1 RES1    0.0000
     49 H21        8.3684    2.1045    5.7521 H         1 RES1    0.0000
     50 H22        7.5304    2.3295    4.4051 H         1 RES1    0.0000
     51 C24        9.5852    2.3467    4.0826 C.3       1 RES1    0.0000
     52 H23        9.6629    1.3740    3.9158 H         1 RES1    0.0000
     53 H24        9.5118    2.8034    3.2072 H         1 RES1    0.0000
     54 C25       10.8326    2.8402    4.8125 C.3       1 RES1    0.0000
     55 H25       11.6304    2.6695    4.2525 H         1 RES1    0.0000
     56 H26       10.9395    2.3373    5.6583 H         1 RES1    0.0000
     57 C26       10.7394    4.3366    5.1199 C.3       1 RES1    0.0000
     58 H27       10.7051    4.8497    4.2740 H         1 RES1    0.0000
     59 H28       11.5414    4.6252    5.6233 H         1 RES1    0.0000
@<TRIPOS>BOND
     1    1    4 1
     2    2   12 2
     3    3   12 1
     4    4    8 1
     5    5    6 1
     6    7    5 1
     7    8    5 1
     8    9    8 2
     9   10    9 1
    10   11    4 2
    11   12    9 1
    12   13    3 1
    13   14   13 1
    14   15   13 1
    15   16   13 1
    16   17   16 1
    17   18   16 1
    18   19   16 1
    19   20   10 2
    20   21   20 1
    21   22   21 ar
    22   23   22 1
    23   24   22 ar
    24   25   24 1
    25   26   24 ar
    26   27   26 1
    27   28   26 ar
    28   29   28 1
    29   30   21 ar
    30   31   30 1
    31   32   20 1
    32   33   32 ar
    33   34   33 1
    34   35   33 ar
    35   36   35 1
    36   37   35 ar
    37   38   37 1
    38   39   37 ar
    39   40   39 1
    40   41   32 ar
    41   42   41 1
    42   43   11 1
    43   44   43 1
    44   45   43 1
    45   46   45 1
    46   47   45 1
    47   48   45 1
    48   49   48 1
    49   50   48 1
    50   51   48 1
    51   52   51 1
    52   53   51 1
    53   54   51 1
    54   55   54 1
    55   56   54 1
    56   57   43 1
    57   58   57 1
    58   59   57 1
    59   10   11 1
    60   28   30 ar
    61   39   41 ar
    62   54   57 1
@<TRIPOS>SUBSTRUCTURE
     1 RES1 1

@<TRIPOS>CRYSIN
   9.5160   10.6468   11.5346  78.8500  83.6870  71.7970   2 1

