# MOL2 file generated by ConQuest
# Please check atom types

@<TRIPOS>MOLECULE
IWURUP
    59    62     1
SMALL
USER_CHARGES
****
Generated from CSD

@<TRIPOS>ATOM
      1 O1         6.8302    2.3860    7.4329 O.3       1 RES1    0.0000
      2 O2        10.2969    2.6610    7.2075 O.2       1 RES1   -1.0000
      3 O3         6.3594    2.2119   10.7917 O.2       1 RES1    0.0000
      4 N1         9.0263    2.7660    7.0348 N.pl3     1 RES1    1.0000
      5 C1         8.1120    1.9996    7.9137 C.3       1 RES1    0.0000
      6 C2         8.3763    3.5316    6.1890 C.2       1 RES1    0.0000
      7 C3         6.9579    3.3755    6.4652 C.2       1 RES1    0.0000
      8 C4         8.2845    2.4550    9.3751 C.3       1 RES1    0.0000
      9 H1         9.1939    2.1701    9.6791 H         1 RES1    0.0000
     10 C5         7.2563    1.6684   10.1818 C.2       1 RES1    0.0000
     11 C6         7.4179    0.1743   10.0967 C.3       1 RES1    0.0000
     12 H2         6.7122   -0.2705   10.6293 H         1 RES1    0.0000
     13 H3         8.2980   -0.0902   10.4649 H         1 RES1    0.0000
     14 C7         7.3160   -0.2631    8.6295 C.3       1 RES1    0.0000
     15 H4         7.5008   -1.2330    8.5631 H         1 RES1    0.0000
     16 H5         6.3949   -0.1054    8.3037 H         1 RES1    0.0000
     17 C8         8.3030    0.5014    7.7471 C.3       1 RES1    0.0000
     18 H6         9.2288    0.2552    7.9961 H         1 RES1    0.0000
     19 H7         8.1624    0.2527    6.7986 H         1 RES1    0.0000
     20 C9         8.1834    3.9583    9.5639 C.3       1 RES1    0.0000
     21 H8         7.3396    4.2792    9.1845 H         1 RES1    0.0000
     22 H9         8.9332    4.3960    9.1091 H         1 RES1    0.0000
     23 H10        8.2127    4.1700   10.5207 H         1 RES1    0.0000
     24 C10        9.1369    4.4277    5.2750 C.3       1 RES1    0.0000
     25 H11        8.6142    4.5675    4.4459 H         1 RES1    0.0000
     26 H12        9.9906    3.9923    5.0266 H         1 RES1    0.0000
     27 C11        9.4321    5.7881    5.9213 C.3       1 RES1    0.0000
     28 H13        8.5807    6.2728    6.0642 H         1 RES1    0.0000
     29 H14        9.8529    5.6443    6.8062 H         1 RES1    0.0000
     30 C12       10.3594    6.6459    5.0564 C.3       1 RES1    0.0000
     31 H15       10.5362    7.4994    5.5273 H         1 RES1    0.0000
     32 H16       11.2246    6.1750    4.9527 H         1 RES1    0.0000
     33 C13        9.7998    6.9534    3.6780 C.3       1 RES1    0.0000
     34 H17       10.3935    7.5820    3.2168 H         1 RES1    0.0000
     35 H18        8.9096    7.3521    3.7688 H         1 RES1    0.0000
     36 H19        9.7359    6.1242    3.1595 H         1 RES1    0.0000
     37 C14        5.8622    4.0258    6.0158 C.2       1 RES1    0.0000
     38 C15        5.9494    4.9713    4.8635 C.ar      1 RES1    0.0000
     39 C16        5.6792    6.3280    5.0573 C.ar      1 RES1    0.0000
     40 H20        5.4787    6.6461    5.9299 H         1 RES1    0.0000
     41 C17        5.6994    7.2181    3.9925 C.ar      1 RES1    0.0000
     42 H21        5.5224    8.1394    4.1413 H         1 RES1    0.0000
     43 C18        5.9776    6.7632    2.7078 C.ar      1 RES1    0.0000
     44 H22        5.9883    7.3699    1.9771 H         1 RES1    0.0000
     45 C19        6.2395    5.4151    2.5012 C.ar      1 RES1    0.0000
     46 H23        6.4311    5.0995    1.6258 H         1 RES1    0.0000
     47 C20        6.2220    4.5243    3.5694 C.ar      1 RES1    0.0000
     48 H24        6.3976    3.6037    3.4174 H         1 RES1    0.0000
     49 C21        4.5114    3.8315    6.6140 C.ar      1 RES1    0.0000
     50 C22        3.3735    3.9843    5.8119 C.ar      1 RES1    0.0000
     51 H25        3.4786    4.2068    4.8939 H         1 RES1    0.0000
     52 C23        2.0950    3.8166    6.3294 C.ar      1 RES1    0.0000
     53 H26        1.3381    3.9110    5.7625 H         1 RES1    0.0000
     54 C24        1.9209    3.5123    7.6715 C.ar      1 RES1    0.0000
     55 H27        1.0480    3.3942    8.0277 H         1 RES1    0.0000
     56 C25        3.0342    3.3815    8.4868 C.ar      1 RES1    0.0000
     57 H28        2.9195    3.1885    9.4092 H         1 RES1    0.0000
     58 C26        4.3157    3.5293    7.9721 C.ar      1 RES1    0.0000
     59 H29        5.0667    3.4247    8.5435 H         1 RES1    0.0000
@<TRIPOS>BOND
     1    1    5 1
     2    2    4 1
     3    3   10 2
     4    4    5 1
     5    5    8 1
     6    6    4 2
     7    7    1 1
     8    8    9 1
     9   10    8 1
    10   11   10 1
    11   12   11 1
    12   13   11 1
    13   14   11 1
    14   15   14 1
    15   16   14 1
    16   17    5 1
    17   18   17 1
    18   19   17 1
    19   20    8 1
    20   21   20 1
    21   22   20 1
    22   23   20 1
    23   24    6 1
    24   25   24 1
    25   26   24 1
    26   27   24 1
    27   28   27 1
    28   29   27 1
    29   30   27 1
    30   31   30 1
    31   32   30 1
    32   33   30 1
    33   34   33 1
    34   35   33 1
    35   36   33 1
    36   37    7 2
    37   38   37 1
    38   39   38 ar
    39   40   39 1
    40   41   39 ar
    41   42   41 1
    42   43   41 ar
    43   44   43 1
    44   45   43 ar
    45   46   45 1
    46   47   38 ar
    47   48   47 1
    48   49   37 1
    49   50   49 ar
    50   51   50 1
    51   52   50 ar
    52   53   52 1
    53   54   52 ar
    54   55   54 1
    55   56   54 ar
    56   57   56 1
    57   58   49 ar
    58   59   58 1
    59    6    7 1
    60   14   17 1
    61   45   47 ar
    62   56   58 ar
@<TRIPOS>SUBSTRUCTURE
     1 RES1 1

@<TRIPOS>CRYSIN
  11.3779   12.6980   15.0931  90.0000  92.2720  90.0000 231 1

