# MOL2 file generated by ConQuest
# Please check atom types

@<TRIPOS>MOLECULE
IWUVON
    42    44     1
SMALL
NO_CHARGES
****
Generated from CSD

@<TRIPOS>ATOM
      1 O1         4.9687    0.0907    5.8691 O.3       1 RES1    0.0000
      2 O2         6.2378    2.0966    3.6258 O.3       1 RES1    0.0000
      3 O3         7.3943   -0.6749    7.2251 O.3       1 RES1    0.0000
      4 H1         6.6526   -0.9442    7.6383 H         1 RES1    0.0000
      5 O4         2.8226    0.6347    5.9748 O.2       1 RES1    0.0000
      6 O5         3.1107    4.7330    3.1126 O.2       1 RES1    0.0000
      7 O6         1.7790    3.1670    4.0133 O.3       1 RES1    0.0000
      8 N1         5.2793    3.0881    3.1191 N.3       1 RES1    0.0000
      9 C1         7.1135    0.6604    6.8193 C.3       1 RES1    0.0000
     10 H2         7.9644    1.1379    6.6509 H         1 RES1    0.0000
     11 H3         6.6383    1.1320    7.5494 H         1 RES1    0.0000
     12 C2         6.2663    0.6915    5.5693 C.3       1 RES1    0.0000
     13 H4         6.7177    0.1556    4.8567 H         1 RES1    0.0000
     14 C3         5.9693    2.0902    5.0292 C.3       1 RES1    0.0000
     15 H5         6.4782    2.8005    5.5159 H         1 RES1    0.0000
     16 C4         4.4564    2.2737    5.1542 C.3       1 RES1    0.0000
     17 H6         4.2295    3.0291    5.7681 H         1 RES1    0.0000
     18 C5         3.9495    0.9496    5.6920 C.2       1 RES1    0.0000
     19 C6         4.0251    2.5790    3.6963 C.3       1 RES1    0.0000
     20 H7         3.7450    1.7383    3.2330 H         1 RES1    0.0000
     21 C7         2.9410    3.6343    3.5747 C.2       1 RES1    0.0000
     22 C8         0.6395    4.0651    3.8406 C.3       1 RES1    0.0000
     23 H8         0.6290    4.4326    2.9220 H         1 RES1    0.0000
     24 H9         0.6969    4.8178    4.4812 H         1 RES1    0.0000
     25 C9        -0.5999    3.2608    4.0929 C.3       1 RES1    0.0000
     26 H10       -0.6121    2.4824    3.4981 H         1 RES1    0.0000
     27 H11       -1.3901    3.8151    3.9209 H         1 RES1    0.0000
     28 H12       -0.6099    2.9588    5.0258 H         1 RES1    0.0000
     29 C10        5.3218    2.9604    1.6556 C.3       1 RES1    0.0000
     30 H13        4.4654    3.2818    1.2783 H         1 RES1    0.0000
     31 H14        5.4187    2.0044    1.4173 H         1 RES1    0.0000
     32 C11        6.4566    3.7389    1.0354 C.ar      1 RES1    0.0000
     33 C12        6.9730    3.3515   -0.1992 C.ar      1 RES1    0.0000
     34 H15        6.6424    2.5666   -0.6205 H         1 RES1    0.0000
     35 C13        7.9605    4.0962   -0.8190 C.ar      1 RES1    0.0000
     36 H16        8.2917    3.8279   -1.6681 H         1 RES1    0.0000
     37 C14        8.4675    5.2271   -0.2089 C.ar      1 RES1    0.0000
     38 H17        9.1592    5.7277   -0.6248 H         1 RES1    0.0000
     39 C15        7.9576    5.6225    1.0130 C.ar      1 RES1    0.0000
     40 H18        8.2980    6.4031    1.4345 H         1 RES1    0.0000
     41 C16        6.9559    4.8913    1.6288 C.ar      1 RES1    0.0000
     42 H19        6.6069    5.1804    2.4634 H         1 RES1    0.0000
@<TRIPOS>BOND
     1    1   12 1
     2    2    8 1
     3    3    4 1
     4    5   18 2
     5    6   21 2
     6    7   21 1
     7    8   19 1
     8    9    3 1
     9   10    9 1
    10   11    9 1
    11   12    9 1
    12   13   12 1
    13   14    2 1
    14   15   14 1
    15   16   14 1
    16   17   16 1
    17   18    1 1
    18   19   16 1
    19   20   19 1
    20   21   19 1
    21   22    7 1
    22   23   22 1
    23   24   22 1
    24   25   22 1
    25   26   25 1
    26   27   25 1
    27   28   25 1
    28   29    8 1
    29   30   29 1
    30   31   29 1
    31   32   29 1
    32   33   32 ar
    33   34   33 1
    34   35   33 ar
    35   36   35 1
    36   37   35 ar
    37   38   37 1
    38   39   37 ar
    39   40   39 1
    40   41   32 ar
    41   42   41 1
    42   12   14 1
    43   16   18 1
    44   39   41 ar
@<TRIPOS>SUBSTRUCTURE
     1 RES1 1

@<TRIPOS>CRYSIN
   9.8175    5.3650   14.4448  90.0000  97.2060  90.0000   4 1

