# MOL2 file generated by ConQuest
# Please check atom types

@<TRIPOS>MOLECULE
IWUXON
    27    29     1
SMALL
NO_CHARGES
****
Generated from CSD

@<TRIPOS>ATOM
      1 O1        -0.3676   -0.8923    8.0970 O.3       1 RES1    0.0000
      2 O2        -1.5755    3.0443   10.7842 O.2       1 RES1    0.0000
      3 O3        -0.0885    4.5087   10.2516 O.2       1 RES1    0.0000
      4 O4         3.5767    3.3880    7.4690 O.2       1 RES1    0.0000
      5 O5         3.3300    1.8067    6.0104 O.2       1 RES1    0.0000
      6 O6        -3.5757   -0.5700   10.5429 O.3       1 RES1    0.0000
      7 O7        -2.1184    0.5418   11.8555 O.3       1 RES1    0.0000
      8 N1        -1.4879   -0.8875    8.9546 N.2       1 RES1    0.0000
      9 N2        -0.5838    3.3926   10.1716 N.pl3     1 RES1    0.0000
     10 N3         2.9924    2.4157    7.0205 N.pl3     1 RES1    0.0000
     11 C1        -1.5455    0.2669    9.5406 C.2       1 RES1    0.0000
     12 C2        -0.4637    1.1235    9.0993 C.ar      1 RES1    0.0000
     13 C3         0.0567    2.4156    9.2870 C.ar      1 RES1    0.0000
     14 C4         1.1899    2.8209    8.6247 C.ar      1 RES1    0.0000
     15 H1         1.5280    3.7011    8.7129 H         1 RES1    0.0000
     16 C5         1.8059    1.9407    7.7412 C.ar      1 RES1    0.0000
     17 C6         1.3564    0.6714    7.4905 C.ar      1 RES1    0.0000
     18 H2         1.7633    0.0566    6.8922 H         1 RES1    0.0000
     19 C7         0.2230    0.3160    8.1990 C.ar      1 RES1    0.0000
     20 C8        -2.6574    0.4900   10.5562 C.3       1 RES1    0.0000
     21 H3        -3.1411    1.3350   10.3668 H         1 RES1    0.0000
     22 C9        -3.1226   -1.5466   11.4894 C.3       1 RES1    0.0000
     23 H4        -2.7006   -2.3192   11.0244 H         1 RES1    0.0000
     24 H5        -3.9102   -1.8594   11.9835 H         1 RES1    0.0000
     25 C10       -2.1291   -0.8005   12.3591 C.3       1 RES1    0.0000
     26 H6        -2.4014   -0.7192   13.2975 H         1 RES1    0.0000
     27 H7        -1.2745   -1.1879   12.2938 H         1 RES1    0.0000
@<TRIPOS>BOND
     1    1    8 1
     2    2    9 2
     3    3    9 2
     4    4   10 2
     5    5   10 2
     6    6   20 1
     7    7   20 1
     8    8   11 2
     9    9   13 1
    10   10   16 1
    11   11   12 1
    12   12   13 ar
    13   13   14 ar
    14   14   15 1
    15   16   14 ar
    16   17   16 ar
    17   18   17 1
    18   19    1 1
    19   20   11 1
    20   21   20 1
    21   22    6 1
    22   23   22 1
    23   24   22 1
    24   25    7 1
    25   26   25 1
    26   27   25 1
    27   12   19 ar
    28   17   19 ar
    29   22   25 1
@<TRIPOS>SUBSTRUCTURE
     1 RES1 1

@<TRIPOS>CRYSIN
  10.8380    8.0810   13.0250  90.0000 108.3800  90.0000  14 1

