# MOL2 file generated by ConQuest
# Please check atom types

@<TRIPOS>MOLECULE
IXAHIY01
    35    36     1
SMALL
NO_CHARGES
****
Generated from CSD

@<TRIPOS>ATOM
      1 C1         0.1819   -1.5846   16.4217 C.ar      1 RES1    0.0000
      2 C2         1.0942   -2.0817   17.3228 C.ar      1 RES1    0.0000
      3 C3         2.3241   -2.5026   16.8451 C.ar      1 RES1    0.0000
      4 C4         2.5826   -2.4089   15.4896 C.ar      1 RES1    0.0000
      5 C5         1.6077   -1.9037   14.6356 C.ar      1 RES1    0.0000
      6 C6         1.8516   -1.7885   13.1567 C.3       1 RES1    0.0000
      7 C7         2.2487   -0.3784   12.7350 C.3       1 RES1    0.0000
      8 C8         3.7558    1.4658   13.0986 C.3       1 RES1    0.0000
      9 C9         4.8564    2.0244   13.9966 C.3       1 RES1    0.0000
     10 C10        5.3079    3.3843   13.5555 C.ar      1 RES1    0.0000
     11 C11        4.6833    4.5356   14.0117 C.ar      1 RES1    0.0000
     12 C12        5.1184    5.7740   13.5830 C.ar      1 RES1    0.0000
     13 C13        6.1653    5.8337   12.7000 C.ar      1 RES1    0.0000
     14 C14        6.7425    4.6486   12.2953 C.ar      1 RES1    0.0000
     15 H1        -0.6609   -1.2307   16.7251 H         1 RES1    0.0000
     16 H2         0.8363   -2.1406   18.2481 H         1 RES1    0.0000
     17 H3         2.9885   -2.8391   17.4964 H         1 RES1    0.0000
     18 H4         3.4330   -2.6758   15.1308 H         1 RES1    0.0000
     19 H5         3.9184    4.4431   14.6458 H         1 RES1    0.0000
     20 H6         4.6903    6.5765   13.9517 H         1 RES1    0.0000
     21 H7         6.4858    6.6538   12.3619 H         1 RES1    0.0000
     22 H8         7.4683    4.6662   11.6360 H         1 RES1    0.0000
     23 H9         1.0410   -2.0561   12.6559 H         1 RES1    0.0000
     24 H10        1.5673    0.2654   12.9499 H         1 RES1    0.0000
     25 H11        2.9592    1.9977   13.2076 H         1 RES1    0.0000
     26 H12        5.6319    1.4320   13.9744 H         1 RES1    0.0000
     27 H13        2.5265   -2.4177   12.8590 H         1 RES1    0.0000
     28 H14        2.4680   -0.3602   11.8057 H         1 RES1    0.0000
     29 H15        4.0529    1.5311   12.1498 H         1 RES1    0.0000
     30 H16        4.5090    2.0531   14.9231 H         1 RES1    0.0000
     31 H17        4.9477   -0.9332   13.7713 H         1 RES1    0.0000
     32 N1         0.4111   -1.4923   15.0970 N.ar      1 RES1    0.0000
     33 N2         3.4154    0.0996   13.4846 N.3       1 RES1    0.0000
     34 N3         6.3442    3.4360   12.7038 N.ar      1 RES1    0.0000
     35 O1         4.5143   -0.7301   13.0292 O.3       1 RES1    0.0000
@<TRIPOS>BOND
     1    1    2 ar
     2    2    3 ar
     3    3    4 ar
     4    4    5 ar
     5    5    6 1
     6    6    7 1
     7    7   24 1
     8    8    9 1
     9    9   10 1
    10   10   11 ar
    11   11   12 ar
    12   12   13 ar
    13   13   14 ar
    14   14   22 1
    15   15    1 1
    16   16    2 1
    17   17    3 1
    18   18    4 1
    19   19   11 1
    20   20   12 1
    21   21   13 1
    22   23    6 1
    23   25    8 1
    24   26    9 1
    25   27    6 1
    26   28    7 1
    27   29    8 1
    28   30    9 1
    29   31   35 1
    30   32    1 ar
    31   33    7 1
    32   34   10 ar
    33   35   33 1
    34    5   32 ar
    35    8   33 1
    36   14   34 ar
@<TRIPOS>SUBSTRUCTURE
     1 RES1 1

@<TRIPOS>CRYSIN
   5.8483   14.5820   15.1550  90.0000  90.0000  90.0000  19 1

