# MOL2 file generated by ConQuest
# Please check atom types

@<TRIPOS>MOLECULE
IXAQAB
    48    54     2
SMALL
NO_CHARGES
****
Generated from CSD

@<TRIPOS>ATOM
      1 N1         0.8899    2.6499    2.7903 N.2       1 RES1    0.0000
      2 N2         2.5760    2.6302    4.2783 N.2       1 RES1    0.0000
      3 N3         0.8255    5.4631    2.7816 N.2       1 RES1    0.0000
      4 N4         2.4656    6.9338    3.3215 N.2       1 RES1    0.0000
      5 N5         4.0539    5.4246    4.3127 N.2       1 RES1    0.0000
      6 O1         1.1750    1.3373    3.1912 O.3       1 RES1    0.0000
      7 O2         1.2239    6.7858    2.7677 O.3       1 RES1    0.0000
      8 C1         2.1756    1.4293    4.0526 C.2       1 RES1    0.0000
      9 H1         2.5577    0.6858    4.4614 H         1 RES1    0.0000
     10 C2         1.7497    3.3526    3.4652 C.2       1 RES1    0.0000
     11 C3         1.8076    4.8102    3.3210 C.2       1 RES1    0.0000
     12 C4         2.8279    5.7328    3.6670 C.2       1 RES1    0.0000
     13 N6         4.0693    7.9126    7.1450 N.2       2 RES2    0.0000
     14 N7         2.4254    8.2553    8.6417 N.2       2 RES2    0.0000
     15 N8         4.8169   10.6359    7.2790 N.2       2 RES2    0.0000
     16 N9         3.5261   12.4307    7.7879 N.2       2 RES2    0.0000
     17 N10        1.5499   11.3056    8.5619 N.2       2 RES2    0.0000
     18 O3         3.5019    6.6924    7.5385 O.3       2 RES2    0.0000
     19 O4         4.7349   12.0122    7.2972 O.3       2 RES2    0.0000
     20 C5         2.5451    6.9956    8.4077 C.2       2 RES2    0.0000
     21 H2         2.0074    6.3536    8.8125 H         2 RES2    0.0000
     22 C6         3.3880    8.7812    7.8311 C.2       2 RES2    0.0000
     23 C7         3.6747   10.2113    7.7266 C.2       2 RES2    0.0000
     24 C8         2.8754   11.3393    8.0616 C.2       2 RES2    0.0000
     25 N1A        7.9059    9.1945    6.0336 N.2       1 RES1    0.0000
     26 N2A        6.2198    9.2143    4.5457 N.2       1 RES1    0.0000
     27 N3A        7.9702    6.3813    6.0424 N.2       1 RES1    0.0000
     28 N4A        6.3302    4.9107    5.5024 N.2       1 RES1    0.0000
     29 N5A        4.7419    6.4199    4.5112 N.2       1 RES1    0.0000
     30 O1A        7.6207   10.5071    5.6328 O.3       1 RES1    0.0000
     31 O2A        7.5718    5.0586    6.0562 O.3       1 RES1    0.0000
     32 C1A        6.6202   10.4152    4.7714 C.2       1 RES1    0.0000
     33 H1A        6.2381   11.1587    4.3626 H         1 RES1    0.0000
     34 C2A        7.0460    8.4919    5.3587 C.2       1 RES1    0.0000
     35 C3A        6.9881    7.0342    5.5030 C.2       1 RES1    0.0000
     36 C4A        5.9679    6.1117    5.1570 C.2       1 RES1    0.0000
     37 N6A       -1.2985   15.7763   10.5029 N.2       2 RES2    0.0000
     38 N7A        0.3453   15.4336    9.0062 N.2       2 RES2    0.0000
     39 N8A       -2.0462   13.0530   10.3688 N.2       2 RES2    0.0000
     40 N9A       -0.7554   11.2582    9.8600 N.2       2 RES2    0.0000
     41 N10A       1.2208   12.3832    9.0860 N.2       2 RES2    0.0000
     42 O3A       -0.7312   16.9965   10.1094 O.3       2 RES2    0.0000
     43 O4A       -1.9642   11.6767   10.3507 O.3       2 RES2    0.0000
     44 C5A        0.2257   16.6933    9.2402 C.2       2 RES2    0.0000
     45 H2A        0.7633   17.3353    8.8354 H         2 RES2    0.0000
     46 C6A       -0.6173   14.9077    9.8168 C.2       2 RES2    0.0000
     47 C7A       -0.9040   13.4775    9.9213 C.2       2 RES2    0.0000
     48 C8A       -0.1046   12.3496    9.5862 C.2       2 RES2    0.0000
@<TRIPOS>BOND
     1    1    6 1
     2    2    8 2
     3    3    7 1
     4    4    7 1
     5    5   12 1
     6    6    8 1
     7    8    9 1
     8   10    1 2
     9   11    3 2
    10   12    4 2
    11   13   18 1
    12   14   20 2
    13   15   19 1
    14   16   19 1
    15   17   24 1
    16   18   20 1
    17   20   21 1
    18   22   13 2
    19   23   15 2
    20   24   16 2
    21   25   30 1
    22   26   32 2
    23   27   31 1
    24   28   31 1
    25   29    5 2
    26   30   32 1
    27   32   33 1
    28   34   25 2
    29   35   27 2
    30   36   28 2
    31   37   42 1
    32   38   44 2
    33   39   43 1
    34   40   43 1
    35   41   17 2
    36   42   44 1
    37   44   45 1
    38   46   37 2
    39   47   39 2
    40   48   40 2
    41    2   10 1
    42   10   11 1
    43   11   12 1
    44   14   22 1
    45   22   23 1
    46   23   24 1
    47   26   34 1
    48   29   36 1
    49   34   35 1
    50   35   36 1
    51   38   46 1
    52   41   48 1
    53   46   47 1
    54   47   48 1
@<TRIPOS>SUBSTRUCTURE
     1 RES1 1
     2 RES2 13

@<TRIPOS>CRYSIN
   7.4104    8.6411    9.4156  69.5890  87.2650  83.7810   2 1

