# MOL2 file generated by ConQuest
# Please check atom types

@<TRIPOS>MOLECULE
IXETEL
    42    43     1
SMALL
NO_CHARGES
****
Generated from CSD

@<TRIPOS>ATOM
      1 O1         9.9644    5.8865    3.8331 O.2       1 RES1    0.0000
      2 O2        10.4890    4.3337    5.2050 O.2       1 RES1    0.0000
      3 O3         7.9717    7.5653   -1.6272 O.2       1 RES1    0.0000
      4 O4         9.0984    6.5599   -3.1424 O.2       1 RES1    0.0000
      5 O5         5.7261    8.3739    1.0748 O.2       1 RES1    0.0000
      6 N1         7.4903    6.0842    2.9620 N.pl3     1 RES1    0.0000
      7 H1         8.2126    6.5511    2.9829 H         1 RES1    0.0000
      8 N2         9.6453    4.9977    4.6168 N.pl3     1 RES1    0.0000
      9 N3         7.3073    6.3347    0.5979 N.3       1 RES1    0.0000
     10 H2         7.3178    7.0896    0.1872 H         1 RES1    0.0000
     11 N4         8.5573    6.5609   -2.0458 N.pl3     1 RES1    0.0000
     12 C1         6.5951    6.2582    1.8332 C.3       1 RES1    0.0000
     13 H3         5.9802    5.4952    1.7958 H         1 RES1    0.0000
     14 C2         7.2483    5.2181    3.9973 C.ar      1 RES1    0.0000
     15 C3         5.9371    4.7878    4.2872 C.ar      1 RES1    0.0000
     16 H4         5.2337    5.1027    3.7667 H         1 RES1    0.0000
     17 C4         5.6683    3.9233    5.3052 C.ar      1 RES1    0.0000
     18 H5         4.7914    3.6463    5.4453 H         1 RES1    0.0000
     19 C5         6.6573    3.4510    6.1288 C.ar      1 RES1    0.0000
     20 H6         6.4539    2.8846    6.8377 H         1 RES1    0.0000
     21 C6         7.9461    3.8282    5.8885 C.ar      1 RES1    0.0000
     22 H7         8.6287    3.5071    6.4331 H         1 RES1    0.0000
     23 C7         8.2518    4.6930    4.8318 C.ar      1 RES1    0.0000
     24 C8         7.9726    5.2910    0.0266 C.ar      1 RES1    0.0000
     25 C9         8.0617    4.0494    0.6775 C.ar      1 RES1    0.0000
     26 H8         7.6306    3.9342    1.4927 H         1 RES1    0.0000
     27 C10        8.7672    3.0027    0.1413 C.ar      1 RES1    0.0000
     28 H9         8.8056    2.1951    0.6002 H         1 RES1    0.0000
     29 C11        9.4223    3.1293   -1.0688 C.ar      1 RES1    0.0000
     30 H10        9.9197    2.4213   -1.4105 H         1 RES1    0.0000
     31 C12        9.3297    4.3021   -1.7583 C.ar      1 RES1    0.0000
     32 H11        9.7463    4.3874   -2.5856 H         1 RES1    0.0000
     33 C13        8.6151    5.3750   -1.2282 C.ar      1 RES1    0.0000
     34 C14        5.7763    7.5474    1.9371 C.2       1 RES1    0.0000
     35 O6         5.1529    7.6081    3.0976 O.3       1 RES1    0.0000
     36 C15        4.5109    9.1005    3.5903 C.3       1 RES1    0.0000
     37 H12        4.4992    9.2248    4.5528 H         1 RES1    0.0000
     38 H13        4.9074    9.8651    3.1447 H         1 RES1    0.0000
     39 C16        3.3844    8.7420    3.1000 C.3       1 RES1    0.0000
     40 H14        2.7402    9.4422    3.2305 H         1 RES1    0.0000
     41 H15        3.0816    7.9443    3.5420 H         1 RES1    0.0000
     42 H16        3.4839    8.5688    2.1617 H         1 RES1    0.0000
@<TRIPOS>BOND
     1    1    8 2
     2    2    8 2
     3    3   11 2
     4    4   11 2
     5    5   34 2
     6    6    7 1
     7    8   23 1
     8    9   10 1
     9   11   33 1
    10   12    6 1
    11   13   12 1
    12   14    6 1
    13   15   14 ar
    14   16   15 1
    15   17   15 ar
    16   18   17 1
    17   19   17 ar
    18   20   19 1
    19   21   19 ar
    20   22   21 1
    21   23   14 ar
    22   24    9 1
    23   25   24 ar
    24   26   25 1
    25   27   25 ar
    26   28   27 1
    27   29   27 ar
    28   30   29 1
    29   31   29 ar
    30   32   31 1
    31   33   24 ar
    32   34   12 1
    33   35   34 1
    34   36   35 1
    35   37   36 1
    36   38   36 1
    37   39   36 1
    38   40   39 1
    39   41   39 1
    40   42   39 1
    41    9   12 1
    42   21   23 ar
    43   31   33 ar
@<TRIPOS>SUBSTRUCTURE
     1 RES1 1

@<TRIPOS>CRYSIN
   8.4717    9.2422   12.8680  70.1830  77.7180  62.9260   2 1

