# MOL2 file generated by ConQuest
# Please check atom types

@<TRIPOS>MOLECULE
IXEWUD
    40    42     1
SMALL
NO_CHARGES
****
Generated from CSD

@<TRIPOS>ATOM
      1 O1        -2.4323   -0.3575   -1.8785 O.2       1 RES1    0.0000
      2 O2        -1.8580    1.1881   -3.2361 O.2       1 RES1    0.0000
      3 N1         5.8943    2.4207   -1.2557 N.1       1 RES1    0.0000
      4 N2        -1.5599    0.3339   -2.4346 N.pl3     1 RES1    0.0000
      5 C1         4.6354   -1.9352   -1.4494 C.3       1 RES1    0.0000
      6 C2         4.0708   -2.6266   -2.7351 C.2       1 RES1    0.0000
      7 C3         4.9915   -2.7949   -3.7637 C.2       1 RES1    0.0000
      8 C4         6.3222   -2.4068   -3.7320 C.2       1 RES1    0.0000
      9 C5         6.8744   -1.6458   -2.7902 C.2       1 RES1    0.0000
     10 C6         5.9219   -1.1603   -1.6397 C.3       1 RES1    0.0000
     11 C7         5.0247    0.1252   -2.0088 C.3       1 RES1    0.0000
     12 C8         3.8417   -0.5760   -1.1689 C.3       1 RES1    0.0000
     13 C9         4.6381   -2.9660   -0.2889 C.3       1 RES1    0.0000
     14 C10        4.4725   -3.5503   -5.0244 C.3       1 RES1    0.0000
     15 C11        8.2410   -1.2103   -2.7001 C.3       1 RES1    0.0000
     16 C12        5.4802    1.3912   -1.6097 C.1       1 RES1    0.0000
     17 C13        2.4571   -0.3297   -1.5095 C.ar      1 RES1    0.0000
     18 C14        1.4908   -1.2131   -1.0804 C.ar      1 RES1    0.0000
     19 C15        0.1795   -1.0031   -1.3626 C.ar      1 RES1    0.0000
     20 C16       -0.2209    0.0835   -2.1357 C.ar      1 RES1    0.0000
     21 C17        0.7454    0.9460   -2.5748 C.ar      1 RES1    0.0000
     22 C18        2.0844    0.6859   -2.2926 C.ar      1 RES1    0.0000
     23 H1         3.1542   -2.9173   -2.8003 H         1 RES1    0.0000
     24 H2         6.9186   -2.6892   -4.4333 H         1 RES1    0.0000
     25 H3         6.4037   -1.0323   -0.8165 H         1 RES1    0.0000
     26 H4         4.8162    0.1169   -2.9188 H         1 RES1    0.0000
     27 H5         3.9728   -0.3408   -0.2471 H         1 RES1    0.0000
     28 H6         5.2013   -3.7020   -0.5093 H         1 RES1    0.0000
     29 H7         4.9543   -2.5584    0.5093 H         1 RES1    0.0000
     30 H8         3.7519   -3.2916   -0.1403 H         1 RES1    0.0000
     31 H9         5.1392   -3.6505   -5.6773 H         1 RES1    0.0000
     32 H10        4.1164   -4.4004   -4.7823 H         1 RES1    0.0000
     33 H11        3.7354   -3.0384   -5.4218 H         1 RES1    0.0000
     34 H12        8.4467   -0.6511   -3.4815 H         1 RES1    0.0000
     35 H13        8.3321   -0.6052   -1.9353 H         1 RES1    0.0000
     36 H14        8.8249   -1.8962   -2.6383 H         1 RES1    0.0000
     37 H15        1.7545   -1.9936   -0.5811 H         1 RES1    0.0000
     38 H16       -0.4859   -1.6027   -1.0303 H         1 RES1    0.0000
     39 H17        0.5246    1.7237   -3.0958 H         1 RES1    0.0000
     40 H18        2.7484    1.2729   -2.6683 H         1 RES1    0.0000
@<TRIPOS>BOND
     1    1    4 2
     2    2    4 2
     3    3   16 3
     4    4   20 1
     5    5    6 1
     6    6    7 2
     7    7    8 1
     8    8    9 2
     9    9   10 1
    10   10    5 1
    11   11   10 1
    12   12    5 1
    13   13    5 1
    14   14    7 1
    15   15    9 1
    16   16   11 1
    17   17   12 1
    18   18   17 ar
    19   19   18 ar
    20   20   19 ar
    21   21   20 ar
    22   22   17 ar
    23   23    6 1
    24   24    8 1
    25   25   10 1
    26   26   11 1
    27   27   12 1
    28   28   13 1
    29   29   13 1
    30   30   13 1
    31   31   14 1
    32   32   14 1
    33   33   14 1
    34   34   15 1
    35   35   15 1
    36   36   15 1
    37   37   18 1
    38   38   19 1
    39   39   21 1
    40   40   22 1
    41   11   12 1
    42   21   22 ar
@<TRIPOS>SUBSTRUCTURE
     1 RES1 1

@<TRIPOS>CRYSIN
  13.8040   13.9120   16.6980  90.0000  90.0000  90.0000  61 1

