# MOL2 file generated by ConQuest
# Please check atom types

@<TRIPOS>MOLECULE
IXINAF
    33    33     1
SMALL
NO_CHARGES
****
Generated from CSD

@<TRIPOS>ATOM
      1 O1         5.0199    4.2071    4.7990 O.2       1 RES1    0.0000
      2 O2         6.6278    4.9777    3.3974 O.3       1 RES1    0.0000
      3 O3         8.3248    7.6046    9.8763 O.2       1 RES1    0.0000
      4 O4         9.9252    8.0837    8.4870 O.2       1 RES1    0.0000
      5 O5         6.6050    2.2007    1.1514 O.2       1 RES1    0.0000
      6 O6         8.0235    2.9185    2.7510 O.3       1 RES1    0.0000
      7 O7         3.1809    5.8078    1.0683 O.3       1 RES1    0.0000
      8 O8         4.4915    6.6249    2.7118 O.2       1 RES1    0.0000
      9 N1         8.8426    7.5822    8.7568 N.pl3     1 RES1    0.0000
     10 C1         6.2102    5.6600    6.9472 C.ar      1 RES1    0.0000
     11 H1         5.3868    5.2217    7.1266 H         1 RES1    0.0000
     12 C2         6.8878    6.3001    7.9695 C.ar      1 RES1    0.0000
     13 H2         6.5372    6.3210    8.8524 H         1 RES1    0.0000
     14 C3         8.0921    6.9099    7.6663 C.ar      1 RES1    0.0000
     15 C4         8.6330    6.9328    6.3933 C.ar      1 RES1    0.0000
     16 H3         9.4566    7.3738    6.2196 H         1 RES1    0.0000
     17 C5         7.9361    6.2922    5.3795 C.ar      1 RES1    0.0000
     18 H4         8.2824    6.2886    4.4952 H         1 RES1    0.0000
     19 C6         6.7316    5.6550    5.6571 C.ar      1 RES1    0.0000
     20 C7         6.0012    4.8783    4.6177 C.2       1 RES1    0.0000
     21 C8         6.1136    4.2162    2.3423 C.2       1 RES1    0.0000
     22 C9         5.0556    4.5546    1.6403 C.2       1 RES1    0.0000
     23 H5         4.7963    3.9832    0.9284 H         1 RES1    0.0000
     24 C10        6.9323    2.9927    2.0091 C.2       1 RES1    0.0000
     25 C11        4.2400    5.7677    1.8852 C.2       1 RES1    0.0000
     26 C12        8.8257    1.7262    2.5530 C.3       1 RES1    0.0000
     27 H6         8.3108    0.9370    2.8236 H         1 RES1    0.0000
     28 H7         9.6396    1.7862    3.0970 H         1 RES1    0.0000
     29 H8         9.0698    1.6492    1.6076 H         1 RES1    0.0000
     30 C13        2.3764    7.0123    1.1833 C.3       1 RES1    0.0000
     31 H9         2.0341    7.0899    2.0988 H         1 RES1    0.0000
     32 H10        1.6247    6.9643    0.5553 H         1 RES1    0.0000
     33 H11        2.9280    7.7944    0.9739 H         1 RES1    0.0000
@<TRIPOS>BOND
     1    1   20 2
     2    2   20 1
     3    3    9 2
     4    4    9 2
     5    5   24 2
     6    6   24 1
     7    7   25 1
     8    8   25 2
     9    9   14 1
    10   10   11 1
    11   12   10 ar
    12   13   12 1
    13   14   12 ar
    14   15   14 ar
    15   16   15 1
    16   17   15 ar
    17   18   17 1
    18   19   10 ar
    19   20   19 1
    20   21    2 1
    21   22   21 2
    22   23   22 1
    23   24   21 1
    24   25   22 1
    25   26    6 1
    26   27   26 1
    27   28   26 1
    28   29   26 1
    29   30    7 1
    30   31   30 1
    31   32   30 1
    32   33   30 1
    33   17   19 ar
@<TRIPOS>SUBSTRUCTURE
     1 RES1 1

@<TRIPOS>CRYSIN
   5.5380    8.3770   14.4300  86.7920  80.8710  81.7850   2 1

