# MOL2 file generated by ConQuest
# Please check atom types

@<TRIPOS>MOLECULE
IXIZEW
    84    87     3
SMALL
NO_CHARGES
****
Generated from CSD

@<TRIPOS>ATOM
      1 O1         1.0759    1.8431   -2.5505 O.2       1 RES1    0.0000
      2 O2         1.4657    3.8974   -1.9850 O.2       1 RES1    0.0000
      3 O3         2.9130    5.0206    2.4171 O.2       1 RES1    0.0000
      4 O4         3.4587    3.4527    3.8007 O.2       1 RES1    0.0000
      5 O5         0.7702   -1.4815   -2.8942 O.3       1 RES1    0.0000
      6 H1         0.3279   -2.0217   -3.4536 H         1 RES1    0.0000
      7 N1         2.2492    0.5537    1.2429 N.ar      1 RES1    0.0000
      8 N2         1.4334   -0.1067   -0.8181 N.pl3     1 RES1    0.0000
      9 H2         1.1991    0.1460   -1.6016 H         1 RES1    0.0000
     10 N3         1.4495    2.7024   -1.7229 N.pl3     1 RES1    0.0000
     11 N4         3.0251    3.8503    2.7193 N.pl3     1 RES1    0.0000
     12 C1         1.8401    0.8884   -0.0142 C.ar      1 RES1    0.0000
     13 C2         1.8529    2.2565   -0.4075 C.ar      1 RES1    0.0000
     14 C3         2.2486    3.2348    0.4805 C.ar      1 RES1    0.0000
     15 H3         2.2638    4.1490    0.2245 H         1 RES1    0.0000
     16 C4         2.6242    2.8428    1.7532 C.ar      1 RES1    0.0000
     17 C5         2.6262    1.5073    2.0834 C.ar      1 RES1    0.0000
     18 H4         2.9114    1.2568    2.9529 H         1 RES1    0.0000
     19 C6         1.3667   -1.4961   -0.6212 C.ar      1 RES1    0.0000
     20 C7         0.9982   -2.2250   -1.7678 C.ar      1 RES1    0.0000
     21 C8         0.9004   -3.5897   -1.7182 C.ar      1 RES1    0.0000
     22 H5         0.6505   -4.0738   -2.4953 H         1 RES1    0.0000
     23 C9         1.1647   -4.2737   -0.5349 C.ar      1 RES1    0.0000
     24 H6         1.1004   -5.2205   -0.5008 H         1 RES1    0.0000
     25 C10        1.5248   -3.5515    0.5992 C.ar      1 RES1    0.0000
     26 H7         1.7012   -4.0120    1.4117 H         1 RES1    0.0000
     27 C11        1.6269   -2.1902    0.5612 C.ar      1 RES1    0.0000
     28 H8         1.8766   -1.7128    1.3426 H         1 RES1    0.0000
     29 O6         0.6325    3.3403    4.6883 O.2       2 RES2    0.0000
     30 O7         1.2869    1.3534    5.2387 O.2       2 RES2    0.0000
     31 O8         2.6377    0.3235    9.6793 O.2       2 RES2    0.0000
     32 O9         3.1673    1.9409   11.0357 O.2       2 RES2    0.0000
     33 O10        0.3062    6.7076    4.2652 O.3       2 RES2    0.0000
     34 H9        -0.1028    7.1996    3.6954 H         2 RES2    0.0000
     35 N5         1.8887    4.7746    8.4221 N.ar      2 RES2    0.0000
     36 N6         1.0444    5.3699    6.3465 N.pl3     2 RES2    0.0000
     37 H10        0.7735    5.0543    5.5863 H         2 RES2    0.0000
     38 N7         1.1377    2.5418    5.5146 N.pl3     2 RES2    0.0000
     39 N8         2.7311    1.5253    9.9633 N.pl3     2 RES2    0.0000
     40 C12        1.4775    4.4074    7.1814 C.ar      2 RES2    0.0000
     41 C13        1.5232    3.0146    6.8132 C.ar      2 RES2    0.0000
     42 C14        1.9416    2.0711    7.7210 C.ar      2 RES2    0.0000
     43 H11        1.9718    1.1513    7.4858 H         2 RES2    0.0000
     44 C15        2.3127    2.4856    8.9704 C.ar      2 RES2    0.0000
     45 C16        2.2892    3.8548    9.2825 C.ar      2 RES2    0.0000
     46 H12        2.5733    4.1299   10.1451 H         2 RES2    0.0000
     47 C17        0.9752    6.7672    6.5239 C.ar      2 RES2    0.0000
     48 C18        0.5640    7.4759    5.3670 C.ar      2 RES2    0.0000
     49 C19        0.4688    8.8585    5.3920 C.ar      2 RES2    0.0000
     50 H13        0.2056    9.3347    4.6149 H         2 RES2    0.0000
     51 C20        0.7590    9.5369    6.5589 C.ar      2 RES2    0.0000
     52 H14        0.6932   10.4849    6.5792 H         2 RES2    0.0000
     53 C21        1.1437    8.8563    7.6999 C.ar      2 RES2    0.0000
     54 H15        1.3356    9.3381    8.4960 H         2 RES2    0.0000
     55 C22        1.2529    7.4602    7.6891 C.ar      2 RES2    0.0000
     56 H16        1.5157    6.9929    8.4744 H         2 RES2    0.0000
     57 O11        5.5982    7.3681    9.7276 O.2       3 RES3    0.0000
     58 O12        5.0980    9.3954    9.1703 O.2       3 RES3    0.0000
     59 O13        3.6445   10.4748    4.7647 O.2       3 RES3    0.0000
     60 O14        3.0752    8.8742    3.4083 O.2       3 RES3    0.0000
     61 O15        5.8727    4.0098   10.1114 O.3       3 RES3    0.0000
     62 H17        6.2303    3.4819   10.6804 H         3 RES3    0.0000
     63 N9         4.3217    6.0023    5.9804 N.ar      3 RES3    0.0000
     64 N10        5.1679    5.3834    8.0453 N.pl3     3 RES3    0.0000
     65 H18        5.4205    5.6384    8.8543 H         3 RES3    0.0000
     66 N11        5.1604    8.1914    8.9044 N.pl3     3 RES3    0.0000
     67 N12        3.5267    9.2707    4.4798 N.pl3     3 RES3    0.0000
     68 C23        4.7470    6.3550    7.2190 C.ar      3 RES3    0.0000
     69 C24        4.7389    7.7252    7.6010 C.ar      3 RES3    0.0000
     70 C25        4.3294    8.6979    6.7100 C.ar      3 RES3    0.0000
     71 H19        4.3222    9.6155    6.9591 H         3 RES3    0.0000
     72 C26        3.9365    8.3082    5.4658 C.ar      3 RES3    0.0000
     73 C27        3.9301    6.9401    5.1369 C.ar      3 RES3    0.0000
     74 H20        3.6315    6.6796    4.2739 H         3 RES3    0.0000
     75 C28        5.2410    3.9895    7.8449 C.ar      3 RES3    0.0000
     76 C29        5.6384    3.2539    8.9847 C.ar      3 RES3    0.0000
     77 C30        5.7533    1.8712    8.9432 C.ar      3 RES3    0.0000
     78 H21        6.0110    1.3871    9.7177 H         3 RES3    0.0000
     79 C31        5.4894    1.2108    7.7655 C.ar      3 RES3    0.0000
     80 H22        5.5704    0.2651    7.7318 H         3 RES3    0.0000
     81 C32        5.1052    1.9105    6.6258 C.ar      3 RES3    0.0000
     82 H23        4.9220    1.4388    5.8237 H         3 RES3    0.0000
     83 C33        4.9860    3.3010    6.6565 C.ar      3 RES3    0.0000
     84 H24        4.7335    3.7761    5.8755 H         3 RES3    0.0000
@<TRIPOS>BOND
     1    1   10 2
     2    2   10 2
     3    3   11 2
     4    4   11 2
     5    5    6 1
     6    7   12 ar
     7    8    9 1
     8   10   13 1
     9   11   16 1
    10   12    8 1
    11   13   12 ar
    12   14   13 ar
    13   15   14 1
    14   16   14 ar
    15   17    7 ar
    16   18   17 1
    17   19    8 1
    18   20    5 1
    19   21   20 ar
    20   22   21 1
    21   23   21 ar
    22   24   23 1
    23   25   23 ar
    24   26   25 1
    25   27   19 ar
    26   28   27 1
    27   29   38 2
    28   30   38 2
    29   31   39 2
    30   32   39 2
    31   33   34 1
    32   35   40 ar
    33   36   37 1
    34   38   41 1
    35   39   44 1
    36   40   36 1
    37   41   40 ar
    38   42   41 ar
    39   43   42 1
    40   44   42 ar
    41   45   35 ar
    42   46   45 1
    43   47   36 1
    44   48   33 1
    45   49   48 ar
    46   50   49 1
    47   51   49 ar
    48   52   51 1
    49   53   51 ar
    50   54   53 1
    51   55   47 ar
    52   56   55 1
    53   57   66 2
    54   58   66 2
    55   59   67 2
    56   60   67 2
    57   61   62 1
    58   63   68 ar
    59   64   65 1
    60   66   69 1
    61   67   72 1
    62   68   64 1
    63   69   68 ar
    64   70   69 ar
    65   71   70 1
    66   72   70 ar
    67   73   63 ar
    68   74   73 1
    69   75   64 1
    70   76   61 1
    71   77   76 ar
    72   78   77 1
    73   79   77 ar
    74   80   79 1
    75   81   79 ar
    76   82   81 1
    77   83   75 ar
    78   84   83 1
    79   16   17 ar
    80   19   20 ar
    81   25   27 ar
    82   44   45 ar
    83   47   48 ar
    84   53   55 ar
    85   72   73 ar
    86   75   76 ar
    87   81   83 ar
@<TRIPOS>SUBSTRUCTURE
     1 RES1 1
     2 RES2 29
     3 RES3 57

@<TRIPOS>CRYSIN
   6.9648   11.2318   43.2214  90.0000  92.7800  90.0000  14 1

