# MOL2 file generated by ConQuest
# Please check atom types

@<TRIPOS>MOLECULE
IXOGAD02
    27    28     1
SMALL
NO_CHARGES
****
Generated from CSD

@<TRIPOS>ATOM
      1 O1         3.2290    2.3374    1.1810 O.3       1 RES1    0.0000
      2 C1         2.5440    1.5035    0.3172 C.ar      1 RES1    0.0000
      3 C2         2.5101    0.1683    0.6984 C.ar      1 RES1    0.0000
      4 H1         2.8741   -0.0975    1.5341 H         1 RES1    0.0000
      5 C3         1.9470   -0.7674   -0.1387 C.ar      1 RES1    0.0000
      6 H2         1.9194   -1.6842    0.1094 H         1 RES1    0.0000
      7 C4         1.4243   -0.3497   -1.3466 C.ar      1 RES1    0.0000
      8 N1         0.8636   -1.3474   -2.2545 N.pl3     1 RES1    0.0000
      9 O2         0.3726   -0.9594   -3.3181 O.2       1 RES1    0.0000
     10 O3         0.9262   -2.5329   -1.9231 O.2       1 RES1    0.0000
     11 C5         1.4343    0.9813   -1.7304 C.ar      1 RES1    0.0000
     12 H3         1.0515    1.2465   -2.5581 H         1 RES1    0.0000
     13 C6         2.0085    1.9190   -0.8934 C.ar      1 RES1    0.0000
     14 H4         2.0357    2.8356   -1.1429 H         1 RES1    0.0000
     15 C7         2.9697    3.6917    1.2359 C.ar      1 RES1    0.0000
     16 C8         4.0555    4.5009    1.5316 C.ar      1 RES1    0.0000
     17 H5         4.9185    4.1202    1.6459 H         1 RES1    0.0000
     18 C9         3.8755    5.8631    1.6589 C.ar      1 RES1    0.0000
     19 H6         4.6131    6.4324    1.8457 H         1 RES1    0.0000
     20 C10        2.6082    6.3854    1.5108 C.ar      1 RES1    0.0000
     21 N2         2.4141    7.8355    1.6264 N.pl3     1 RES1    0.0000
     22 O4         1.2688    8.2694    1.6553 O.2       1 RES1    0.0000
     23 O5         3.4021    8.5548    1.6814 O.2       1 RES1    0.0000
     24 C11        1.5106    5.5872    1.2418 C.ar      1 RES1    0.0000
     25 H7         0.6442    5.9685    1.1595 H         1 RES1    0.0000
     26 C12        1.6946    4.2237    1.0955 C.ar      1 RES1    0.0000
     27 H8         0.9570    3.6575    0.9015 H         1 RES1    0.0000
@<TRIPOS>BOND
     1    1    2 1
     2    2    3 ar
     3    3    4 1
     4    5    3 ar
     5    6    5 1
     6    7    5 ar
     7    8    7 1
     8    9    8 2
     9   10    8 2
    10   11    7 ar
    11   12   11 1
    12   13    2 ar
    13   14   13 1
    14   15    1 1
    15   16   15 ar
    16   17   16 1
    17   18   16 ar
    18   19   18 1
    19   20   18 ar
    20   21   20 1
    21   22   21 2
    22   23   21 2
    23   24   20 ar
    24   25   24 1
    25   26   15 ar
    26   27   26 1
    27   11   13 ar
    28   24   26 ar
@<TRIPOS>SUBSTRUCTURE
     1 RES1 1

@<TRIPOS>CRYSIN
   8.1114   11.8942   12.3970  90.0000 106.4020  90.0000  14 1

