# MOL2 file generated by ConQuest
# Please check atom types

@<TRIPOS>MOLECULE
IXOGAD01
    27    28     1
SMALL
NO_CHARGES
****
Generated from CSD

@<TRIPOS>ATOM
      1 O1         5.6126    0.4023    7.3285 O.3       1 RES1    0.0000
      2 C1         4.1773    0.5389    5.4649 C.ar      1 RES1    0.0000
      3 H1         3.7498   -0.2549    5.7641 H         1 RES1    0.0000
      4 N1         3.9822    2.9862    2.6731 N.pl3     1 RES1    0.0000
      5 O2         4.3886    4.1301    2.4742 O.2       1 RES1    0.0000
      6 C2         3.7786    1.1395    4.2871 C.ar      1 RES1    0.0000
      7 H2         3.0827    0.7648    3.7600 H         1 RES1    0.0000
      8 C3         4.4203    2.3054    3.8934 C.ar      1 RES1    0.0000
      9 C4         5.4584    2.8604    4.6182 C.ar      1 RES1    0.0000
     10 H3         5.8895    3.6498    4.3131 H         1 RES1    0.0000
     11 C5         5.2043    1.0991    6.2084 C.ar      1 RES1    0.0000
     12 C6         5.8608    2.2535    5.7906 C.ar      1 RES1    0.0000
     13 H4         6.5726    2.6171    6.3035 H         1 RES1    0.0000
     14 O3         3.2319    2.3935    1.9044 O.2       1 RES1    0.0000
     15 C1B        7.0480    0.5389    9.1921 C.ar      1 RES1    0.0000
     16 H1B        7.4754   -0.2549    8.8929 H         1 RES1    0.0000
     17 N1B        7.2430    2.9862   11.9839 N.pl3     1 RES1    0.0000
     18 O2B        6.8366    4.1301   12.1828 O.2       1 RES1    0.0000
     19 C2B        7.4466    1.1395   10.3699 C.ar      1 RES1    0.0000
     20 H2B        8.1425    0.7648   10.8970 H         1 RES1    0.0000
     21 C3B        6.8049    2.3054   10.7636 C.ar      1 RES1    0.0000
     22 C4B        5.7669    2.8604   10.0388 C.ar      1 RES1    0.0000
     23 H3B        5.3358    3.6498   10.3439 H         1 RES1    0.0000
     24 C5B        6.0209    1.0991    8.4486 C.ar      1 RES1    0.0000
     25 C6B        5.3644    2.2535    8.8664 C.ar      1 RES1    0.0000
     26 H4B        4.6526    2.6171    8.3535 H         1 RES1    0.0000
     27 O3B        7.9934    2.3935   12.7526 O.2       1 RES1    0.0000
@<TRIPOS>BOND
     1    1   11 1
     2    2    3 1
     3    4    5 2
     4    6    2 ar
     5    7    6 1
     6    8    4 1
     7    9    8 ar
     8   10    9 1
     9   11    2 ar
    10   12    9 ar
    11   13   12 1
    12   14    4 2
    13   15   16 1
    14   17   18 2
    15   19   15 ar
    16   20   19 1
    17   21   17 1
    18   22   21 ar
    19   23   22 1
    20   24    1 1
    21   25   22 ar
    22   26   25 1
    23   27   17 2
    24    6    8 ar
    25   11   12 ar
    26   15   24 ar
    27   19   21 ar
    28   24   25 ar
@<TRIPOS>SUBSTRUCTURE
     1 RES1 1

@<TRIPOS>CRYSIN
  12.4081    9.2706    9.8031  90.0000  94.6140  90.0000  15 1

