# MOL2 file generated by ConQuest
# Please check atom types

@<TRIPOS>MOLECULE
IXOZAY02
    41    43     1
SMALL
USER_CHARGES
****
Generated from CSD

@<TRIPOS>ATOM
      1 O1         3.2443    6.4655   10.3853 O.3       1 RES1    0.0000
      2 O2         2.8467    8.2584   12.2841 O.3       1 RES1    0.0000
      3 H1         2.8089    8.8843   12.8420 H         1 RES1    0.0000
      4 O3         4.8470   10.1803    7.9556 O.2       1 RES1   -1.0000
      5 N1         5.9480   10.8595    8.1971 N.pl3     1 RES1    1.0000
      6 C1         3.3591    5.6979    9.1939 C.3       1 RES1    0.0000
      7 H2         3.4592    6.2984    8.4263 H         1 RES1    0.0000
      8 H3         2.5535    5.1514    9.0789 H         1 RES1    0.0000
      9 H4         4.1442    5.1135    9.2562 H         1 RES1    0.0000
     10 C2         4.2492    7.3774   10.5951 C.ar      1 RES1    0.0000
     11 C3         5.4426    7.3899    9.9051 C.ar      1 RES1    0.0000
     12 H5         5.5967    6.7307    9.2377 H         1 RES1    0.0000
     13 C4         6.4353    8.3446   10.1581 C.ar      1 RES1    0.0000
     14 C5         7.6839    8.2968    9.3031 C.3       1 RES1    0.0000
     15 H6         7.9579    7.3539    9.1811 H         1 RES1    0.0000
     16 H7         8.4175    8.7691    9.7722 H         1 RES1    0.0000
     17 C6         7.4663    8.9463    7.9157 C.3       1 RES1    0.0000
     18 H8         8.2854    8.8575    7.3661 H         1 RES1    0.0000
     19 H9         6.7217    8.4962    7.4424 H         1 RES1    0.0000
     20 C7         7.1451   10.3805    8.1227 C.2       1 RES1    0.0000
     21 H10        7.8708   10.9890    8.2058 H         1 RES1    0.0000
     22 C8         5.7298   12.2200    8.7401 C.3       1 RES1    0.0000
     23 H11        4.9042   12.6046    8.3524 H         1 RES1    0.0000
     24 H12        6.4889   12.8034    8.4891 H         1 RES1    0.0000
     25 C9         4.0177    8.3291   11.6027 C.ar      1 RES1    0.0000
     26 C10        4.9841    9.2964   11.8332 C.ar      1 RES1    0.0000
     27 H13        4.8276    9.9556   12.4996 H         1 RES1    0.0000
     28 C11        6.1873    9.3311   11.1123 C.ar      1 RES1    0.0000
     29 C12        5.6052   12.1649   10.2619 C.3       1 RES1    0.0000
     30 H14        5.3218   13.0543   10.5898 H         1 RES1    0.0000
     31 H15        4.8952   11.5176   10.4999 H         1 RES1    0.0000
     32 C13        6.8835   11.7688   10.9719 C.ar      1 RES1    0.0000
     33 C14        7.1587   10.4453   11.3652 C.ar      1 RES1    0.0000
     34 C15        8.3738   10.1640   11.9965 C.ar      1 RES1    0.0000
     35 H16        8.5557    9.2756   12.2780 H         1 RES1    0.0000
     36 C16        9.3216   11.1560   12.2207 C.ar      1 RES1    0.0000
     37 H17       10.1419   10.9433   12.6511 H         1 RES1    0.0000
     38 C17        9.0645   12.4571   11.8141 C.ar      1 RES1    0.0000
     39 H18        9.7108   13.1395   11.9492 H         1 RES1    0.0000
     40 C18        7.8507   12.7503   11.2069 C.ar      1 RES1    0.0000
     41 H19        7.6725   13.6460   10.9432 H         1 RES1    0.0000
@<TRIPOS>BOND
     1    1    6 1
     2    2    3 1
     3    4    5 1
     4    5   20 2
     5    6    7 1
     6    8    6 1
     7    9    6 1
     8   10    1 1
     9   11   10 ar
    10   12   11 1
    11   13   11 ar
    12   14   13 1
    13   15   14 1
    14   16   14 1
    15   17   14 1
    16   18   17 1
    17   19   17 1
    18   20   17 1
    19   21   20 1
    20   22    5 1
    21   23   22 1
    22   24   22 1
    23   25    2 1
    24   26   25 ar
    25   27   26 1
    26   28   13 ar
    27   29   22 1
    28   30   29 1
    29   31   29 1
    30   32   29 1
    31   33   28 1
    32   34   33 ar
    33   35   34 1
    34   36   34 ar
    35   37   36 1
    36   38   36 ar
    37   39   38 1
    38   40   32 ar
    39   41   40 1
    40   10   25 ar
    41   26   28 ar
    42   32   33 ar
    43   38   40 ar
@<TRIPOS>SUBSTRUCTURE
     1 RES1 1

@<TRIPOS>CRYSIN
  15.0206   15.7775   12.3137  90.0000  90.0000  90.0000  56 1

