# MOL2 file generated by ConQuest
# Please check atom types

@<TRIPOS>MOLECULE
IXUQID
   132   142     2
SMALL
NO_CHARGES
****
Generated from CSD

@<TRIPOS>ATOM
      1 C1         7.6855    8.0566    4.8548 C.2       1 RES1    0.0000
      2 C2         7.5244   10.2383    4.5730 C.2       1 RES1    0.0000
      3 C3         7.3460   11.5323    3.8970 C.ar      1 RES1    0.0000
      4 C4         6.2428   12.2927    4.2775 C.ar      1 RES1    0.0000
      5 H1         5.7010   12.0090    4.9775 H         1 RES1    0.0000
      6 C5         5.9558   13.4576    3.6204 C.ar      1 RES1    0.0000
      7 H2         5.2123   13.9565    3.8717 H         1 RES1    0.0000
      8 C6         6.7551   13.8963    2.5909 C.ar      1 RES1    0.0000
      9 H3         6.5542   14.6882    2.1477 H         1 RES1    0.0000
     10 C7         7.8535   13.1566    2.2218 C.ar      1 RES1    0.0000
     11 H4         8.3872   13.4589    1.5237 H         1 RES1    0.0000
     12 C8         8.1873   11.9741    2.8626 C.ar      1 RES1    0.0000
     13 C9         9.4339   11.2679    2.4600 C.ar      1 RES1    0.0000
     14 C10       10.3423   10.7931    3.4085 C.ar      1 RES1    0.0000
     15 H5        10.1408   10.8653    4.3129 H         1 RES1    0.0000
     16 C11        9.7722   11.1320    1.1232 C.ar      1 RES1    0.0000
     17 H6         9.1794   11.4311    0.4702 H         1 RES1    0.0000
     18 C12       10.9725   10.5614    0.7369 C.ar      1 RES1    0.0000
     19 H7        11.1757   10.4854   -0.1683 H         1 RES1    0.0000
     20 C13       11.5315   10.2202    3.0219 C.ar      1 RES1    0.0000
     21 H8        12.1181    9.9049    3.6715 H         1 RES1    0.0000
     22 C14       11.8710   10.1046    1.6773 C.ar      1 RES1    0.0000
     23 C15       13.1695    9.4286    1.3095 C.3       1 RES1    0.0000
     24 H9        13.8520    9.7030    1.9417 H         1 RES1    0.0000
     25 H10       13.0562    8.4697    1.3989 H         1 RES1    0.0000
     26 C16       11.5919    5.7635   -1.5681 C.3       1 RES1    0.0000
     27 H11       12.0384    5.2929   -0.8620 H         1 RES1    0.0000
     28 H12       11.4662    5.1738   -2.3161 H         1 RES1    0.0000
     29 H13       10.7382    6.0727   -1.2567 H         1 RES1    0.0000
     30 C17       12.4232    6.9347   -1.9910 C.3       1 RES1    0.0000
     31 H14       13.2614    6.6251   -2.3712 H         1 RES1    0.0000
     32 H15       11.9531    7.4478   -2.6673 H         1 RES1    0.0000
     33 C18       13.3577    8.8763   -1.0893 C.2       1 RES1    0.0000
     34 C19       14.4130   10.4830   -1.9826 C.ar      1 RES1    0.0000
     35 C20       14.3477   10.7963   -0.6127 C.ar      1 RES1    0.0000
     36 C21       15.0280   11.3021   -2.9111 C.ar      1 RES1    0.0000
     37 H16       15.0474   11.0753   -3.8137 H         1 RES1    0.0000
     38 C22       15.6107   12.4631   -2.4592 C.ar      1 RES1    0.0000
     39 H17       16.0272   13.0389   -3.0591 H         1 RES1    0.0000
     40 C23       15.5782   12.7743   -1.1177 C.ar      1 RES1    0.0000
     41 H18       15.9867   13.5619   -0.8388 H         1 RES1    0.0000
     42 C24       14.9666   11.9731   -0.1506 C.ar      1 RES1    0.0000
     43 C25       15.1272   12.4943    1.2329 C.2       1 RES1    0.0000
     44 C26       14.6486   12.1858    3.5298 C.3       1 RES1    0.0000
     45 H19       13.7912   12.3327    3.9588 H         1 RES1    0.0000
     46 H20       15.1589   13.0095    3.5728 H         1 RES1    0.0000
     47 C27       13.9700   10.1912    6.1417 C.3       1 RES1    0.0000
     48 H21       13.3297   10.8827    5.9585 H         1 RES1    0.0000
     49 H22       14.2789   10.2714    7.0469 H         1 RES1    0.0000
     50 H23       13.5567    9.3324    6.0195 H         1 RES1    0.0000
     51 C28       15.1048   10.3217    5.2248 C.2       1 RES1    0.0000
     52 C29       15.3823   11.0977    4.2183 C.2       1 RES1    0.0000
     53 C30       17.1227    9.7645    4.5027 C.2       1 RES1    0.0000
     54 N1         7.6525    9.0566    3.9280 N.am      1 RES1    0.0000
     55 N2         7.4957   10.0955    5.8587 N.2       1 RES1    0.0000
     56 N3        13.6427    9.7193   -0.0447 N.pl3     1 RES1    0.0000
     57 N4        13.7929    9.2666   -2.2485 N.2       1 RES1    0.0000
     58 O1         7.7750    6.8682    4.7227 O.2       1 RES1    0.0000
     59 O2         7.5971    8.6774    6.0581 O.3       1 RES1    0.0000
     60 O3        12.6836    7.7688   -0.8275 O.3       1 RES1    0.0000
     61 O4        15.7917   13.4389    1.5101 O.2       1 RES1    0.0000
     62 O5        14.4513   11.7978    2.1489 O.3       1 RES1    0.0000
     63 O6        16.6633   10.7843    3.7414 O.3       1 RES1    0.0000
     64 O7        16.1908    9.4627    5.4225 O.3       1 RES1    0.0000
     65 O8        18.1718    9.2322    4.3741 O.2       1 RES1    0.0000
     66 H24        7.6195    8.9191    3.0301 H         1 RES1    0.0000
     67 C31        9.3689    6.8283   23.9102 C.2       2 RES2    0.0000
     68 C32        8.6781    8.7499   23.0734 C.2       2 RES2    0.0000
     69 C33        8.2699   10.1608   22.9829 C.ar      2 RES2    0.0000
     70 C34        9.0800   11.0026   22.2318 C.ar      2 RES2    0.0000
     71 H25        9.8457   10.6647   21.8257 H         2 RES2    0.0000
     72 C35        8.7622   12.3257   22.0811 C.ar      2 RES2    0.0000
     73 H26        9.3185   12.8878   21.5935 H         2 RES2    0.0000
     74 C36        7.6173   12.8181   22.6552 C.ar      2 RES2    0.0000
     75 H27        7.3784   13.7077   22.5281 H         2 RES2    0.0000
     76 C37        6.8154   11.9860   23.4243 C.ar      2 RES2    0.0000
     77 H28        6.0493   12.3353   23.8167 H         2 RES2    0.0000
     78 C38        7.1246   10.6537   23.6214 C.ar      2 RES2    0.0000
     79 C39        6.2216    9.8168   24.4660 C.ar      2 RES2    0.0000
     80 C40        5.7434    8.5786   24.0533 C.ar      2 RES2    0.0000
     81 H29        6.0422    8.2182   23.2508 H         2 RES2    0.0000
     82 C41        4.8311    7.8712   24.8154 C.ar      2 RES2    0.0000
     83 H30        4.5264    7.0438   24.5191 H         2 RES2    0.0000
     84 C42        4.3658    8.3819   26.0179 C.ar      2 RES2    0.0000
     85 C43        5.7707   10.3083   25.6890 C.ar      2 RES2    0.0000
     86 H31        6.0871   11.1262   25.9993 H         2 RES2    0.0000
     87 C44        4.8603    9.6000   26.4492 C.ar      2 RES2    0.0000
     88 H32        4.5746    9.9477   27.2647 H         2 RES2    0.0000
     89 C45        3.3323    7.5889   26.7800 C.3       2 RES2    0.0000
     90 H33        2.5909    7.3956   26.1851 H         2 RES2    0.0000
     91 H34        3.7257    6.7415   27.0413 H         2 RES2    0.0000
     92 C46        6.0212    6.3220   30.8445 C.3       2 RES2    0.0000
     93 H35        5.8283    5.4534   30.4834 H         2 RES2    0.0000
     94 H36        6.3159    6.2319   31.7547 H         2 RES2    0.0000
     95 H37        6.7118    6.7388   30.3238 H         2 RES2    0.0000
     96 C47        4.7895    7.1646   30.8013 C.3       2 RES2    0.0000
     97 H38        4.0926    6.7589   31.3396 H         2 RES2    0.0000
     98 H39        4.9782    8.0457   31.1597 H         2 RES2    0.0000
     99 C48        3.2714    8.0407   29.2447 C.2       2 RES2    0.0000
    100 C49        1.6975    9.0760   28.1180 C.ar      2 RES2    0.0000
    101 C50        1.5802    9.2948   29.5016 C.ar      2 RES2    0.0000
    102 C51        0.5654   10.0661   30.0313 C.ar      2 RES2    0.0000
    103 H40        0.5066   10.2179   30.9478 H         2 RES2    0.0000
    104 C52       -0.3555   10.6026   29.1629 C.ar      2 RES2    0.0000
    105 H41       -1.0488   11.1262   29.4937 H         2 RES2    0.0000
    106 C53       -0.2645   10.3751   27.8020 C.ar      2 RES2    0.0000
    107 H42       -0.9147   10.7383   27.2444 H         2 RES2    0.0000
    108 C54        0.7600    9.6254   27.2334 C.ar      2 RES2    0.0000
    109 C55        0.8598    9.5624   25.7526 C.2       2 RES2    0.0000
    110 C56       -0.3905    9.5745   23.7372 C.3       2 RES2    0.0000
    111 H43       -1.1914    9.1452   23.3959 H         2 RES2    0.0000
    112 H44        0.3790    9.1211   23.3582 H         2 RES2    0.0000
    113 C57        1.8127   11.5167   22.1415 C.3       2 RES2    0.0000
    114 H45        2.0761   10.6045   22.2756 H         2 RES2    0.0000
    115 H46        2.4424   12.0986   22.5745 H         2 RES2    0.0000
    116 H47        1.7915   11.7094   21.2017 H         2 RES2    0.0000
    117 C58        0.4740   11.7321   22.7156 C.2       2 RES2    0.0000
    118 C59       -0.3783   10.9750   23.3347 C.2       2 RES2    0.0000
    119 C60       -1.3214   12.9440   23.1353 C.2       2 RES2    0.0000
    120 N5         9.0168    8.0986   24.2199 N.am      2 RES2    0.0000
    121 N6         8.7915    7.9922   22.0295 N.2       2 RES2    0.0000
    122 N7         2.8079    8.2466   27.9764 N.pl3     2 RES2    0.0000
    123 N8         2.5908    8.6301   30.1813 N.2       2 RES2    0.0000
    124 O9         9.7287    5.9185   24.6050 O.2       2 RES2    0.0000
    125 O10        9.2405    6.7337   22.5539 O.3       2 RES2    0.0000
    126 O11        4.3437    7.2772   29.4093 O.3       2 RES2    0.0000
    127 O12        1.8712    9.6172   25.1231 O.2       2 RES2    0.0000
    128 O13       -0.3571    9.4586   25.1875 O.3       2 RES2    0.0000
    129 O14       -0.0875   13.0031   22.5795 O.3       2 RES2    0.0000
    130 O15       -1.5245   11.7321   23.6028 O.3       2 RES2    0.0000
    131 O16       -2.0840   13.8682   23.1843 O.2       2 RES2    0.0000
    132 H48        9.0569    8.3854   25.0270 H         2 RES2    0.0000
@<TRIPOS>BOND
     1    1   54 1
     2    2    3 1
     3    3    4 ar
     4    4    5 1
     5    6    4 ar
     6    7    6 1
     7    8    6 ar
     8    9    8 1
     9   10    8 ar
    10   11   10 1
    11   12    3 ar
    12   13   12 1
    13   14   13 ar
    14   15   14 1
    15   16   13 ar
    16   17   16 1
    17   18   16 ar
    18   19   18 1
    19   20   14 ar
    20   21   20 1
    21   22   18 ar
    22   23   22 1
    23   24   23 1
    24   25   23 1
    25   26   27 1
    26   28   26 1
    27   29   26 1
    28   30   26 1
    29   31   30 1
    30   32   30 1
    31   33   56 1
    32   34   35 ar
    33   35   42 ar
    34   36   34 ar
    35   37   36 1
    36   38   36 ar
    37   39   38 1
    38   40   38 ar
    39   41   40 1
    40   42   40 ar
    41   43   42 1
    42   44   45 1
    43   46   44 1
    44   47   48 1
    45   49   47 1
    46   50   47 1
    47   51   47 1
    48   52   44 1
    49   53   63 1
    50   54    2 1
    51   55    2 2
    52   56   23 1
    53   57   33 2
    54   58    1 2
    55   59    1 1
    56   60   30 1
    57   61   43 2
    58   62   43 1
    59   63   52 1
    60   64   51 1
    61   65   53 2
    62   66   54 1
    63   67  120 1
    64   68   69 1
    65   69   70 ar
    66   70   71 1
    67   72   70 ar
    68   73   72 1
    69   74   72 ar
    70   75   74 1
    71   76   74 ar
    72   77   76 1
    73   78   69 ar
    74   79   78 1
    75   80   79 ar
    76   81   80 1
    77   82   80 ar
    78   83   82 1
    79   84   82 ar
    80   85   79 ar
    81   86   85 1
    82   87   84 ar
    83   88   87 1
    84   89   84 1
    85   90   89 1
    86   91   89 1
    87   92   93 1
    88   94   92 1
    89   95   92 1
    90   96   92 1
    91   97   96 1
    92   98   96 1
    93   99  122 1
    94  100  101 ar
    95  101  102 ar
    96  102  103 1
    97  104  102 ar
    98  105  104 1
    99  106  104 ar
   100  107  106 1
   101  108  100 ar
   102  109  108 1
   103  110  111 1
   104  112  110 1
   105  113  114 1
   106  115  113 1
   107  116  113 1
   108  117  113 1
   109  118  110 1
   110  119  129 1
   111  120   68 1
   112  121   68 2
   113  122   89 1
   114  123   99 2
   115  124   67 2
   116  125   67 1
   117  126   96 1
   118  127  109 2
   119  128  109 1
   120  129  117 1
   121  130  118 1
   122  131  119 2
   123  132  120 1
   124   10   12 ar
   125   20   22 ar
   126   33   60 1
   127   34   57 1
   128   35   56 1
   129   44   62 1
   130   51   52 2
   131   53   64 1
   132   55   59 1
   133   76   78 ar
   134   85   87 ar
   135   99  126 1
   136  100  122 1
   137  101  123 1
   138  106  108 ar
   139  110  128 1
   140  117  118 2
   141  119  130 1
   142  121  125 1
@<TRIPOS>SUBSTRUCTURE
     1 RES1 1
     2 RES2 67

@<TRIPOS>CRYSIN
  13.8670   13.3760   29.4220  90.0000  99.4400  90.0000 231 1

