# MOL2 file generated by ConQuest
# Please check atom types

@<TRIPOS>MOLECULE
IYAPAB
    15    15     1
SMALL
USER_CHARGES
****
Generated from CSD

@<TRIPOS>ATOM
      1 C1         0.5487    2.1519    6.3445 C.2       1 RES1    0.0000
      2 C2        -0.6638    2.3473    5.6150 C.2       1 RES1    0.0000
      3 N1         1.1763    1.3770    5.3766 N.am      1 RES1    0.0000
      4 N2         0.4604    1.1371    4.2554 N.2       1 RES1    0.0000
      5 N3        -0.6806    1.7291    4.3905 N.2       1 RES1    0.0000
      6 O1         0.9964    2.4904    7.4118 O.2       1 RES1    0.0000
      7 N4        -1.7157    3.0489    6.0457 N.1       1 RES1    1.0000
      8 N5        -2.5648    3.6342    6.4415 N.2       1 RES1   -1.0000
      9 O2         2.4574    0.8956    5.4704 O.3       1 RES1    0.0000
     10 O3         1.5133   -0.9252    6.4296 O.2       1 RES1    0.0000
     11 C3         2.5012   -0.3760    6.0982 C.2       1 RES1    0.0000
     12 C4         3.9179   -0.7799    6.2388 C.3       1 RES1    0.0000
     13 H1         3.9644   -1.7288    6.4788 H         1 RES1    0.0000
     14 H2         4.3422   -0.2438    6.9405 H         1 RES1    0.0000
     15 H3         4.3841   -0.6343    5.3894 H         1 RES1    0.0000
@<TRIPOS>BOND
     1    1    2 1
     2    2    5 1
     3    3    1 1
     4    4    3 1
     5    5    4 2
     6    6    1 2
     7    7    2 2
     8    8    7 2
     9    9    3 1
    10   10   11 2
    11   11    9 1
    12   12   11 1
    13   13   12 1
    14   14   12 1
    15   15   12 1
@<TRIPOS>SUBSTRUCTURE
     1 RES1 1

@<TRIPOS>CRYSIN
   6.3090    7.2540    8.4300  94.0770 106.6660 108.4710   2 1

