# MOL2 file generated by ConQuest
# Please check atom types

@<TRIPOS>MOLECULE
IYAWEK
    31    31     1
SMALL
NO_CHARGES
****
Generated from CSD

@<TRIPOS>ATOM
      1 N1         0.2671    5.3671    1.3283 N.2       1 RES1    0.0000
      2 N2         0.9682    2.5594    3.2422 N.2       1 RES1    0.0000
      3 N3         0.9841    1.2032    3.0311 N.3       1 RES1    0.0000
      4 N4         0.9300   -1.6418    2.4944 N.pl3     1 RES1    0.0000
      5 N5         2.0193   -2.4677    7.1286 N.pl3     1 RES1    0.0000
      6 O1         0.3001    6.7467    1.5414 O.3       1 RES1    0.0000
      7 H1         0.0775    7.1349    0.8544 H         1 RES1    0.0000
      8 O2         0.7744   -0.8939    1.5315 O.2       1 RES1    0.0000
      9 O3         0.8394   -2.8551    2.3868 O.2       1 RES1    0.0000
     10 O4         2.0049   -3.6579    6.8538 O.2       1 RES1    0.0000
     11 O5         2.2401   -2.0419    8.2389 O.2       1 RES1    0.0000
     12 C1         0.6167    4.7139    2.3858 C.2       1 RES1    0.0000
     13 C2         0.6120    3.2517    2.2126 C.2       1 RES1    0.0000
     14 C3         1.2439    0.3139    4.0238 C.ar      1 RES1    0.0000
     15 C4         1.2149   -1.0757    3.8028 C.ar      1 RES1    0.0000
     16 C5         1.4768   -1.9791    4.8165 C.ar      1 RES1    0.0000
     17 H2         1.4640   -2.8936    4.6512 H         1 RES1    0.0000
     18 C6         1.7515   -1.5028    6.0562 C.ar      1 RES1    0.0000
     19 C7         1.7935   -0.1391    6.3200 C.ar      1 RES1    0.0000
     20 H3         1.9945    0.1612    7.1774 H         1 RES1    0.0000
     21 C8         1.5412    0.7557    5.3343 C.ar      1 RES1    0.0000
     22 H4         1.5656    1.6665    5.5195 H         1 RES1    0.0000
     23 C9         1.0165    5.3367    3.6644 C.3       1 RES1    0.0000
     24 H5         1.6397    6.0469    3.4931 H         1 RES1    0.0000
     25 H6         1.4301    4.6770    4.2260 H         1 RES1    0.0000
     26 H7         0.2406    5.6912    4.1045 H         1 RES1    0.0000
     27 C10        0.2037    2.6733    0.8982 C.3       1 RES1    0.0000
     28 H8         0.9799    2.3496    0.4361 H         1 RES1    0.0000
     29 H9        -0.2240    3.3514    0.3704 H         1 RES1    0.0000
     30 H10       -0.4080    1.9483    1.0445 H         1 RES1    0.0000
     31 H11        0.8140    0.8739    2.2703 H         1 RES1    0.0000
@<TRIPOS>BOND
     1    1    6 1
     2    2    3 1
     3    3   14 1
     4    4    8 2
     5    5   10 2
     6    6    7 1
     7    9    4 2
     8   11    5 2
     9   12    1 2
    10   13    2 2
    11   14   15 ar
    12   15    4 1
    13   16   15 ar
    14   17   16 1
    15   18    5 1
    16   19   18 ar
    17   20   19 1
    18   21   14 ar
    19   22   21 1
    20   23   12 1
    21   24   23 1
    22   25   23 1
    23   26   23 1
    24   27   13 1
    25   28   27 1
    26   29   27 1
    27   30   27 1
    28   31    3 1
    29   12   13 1
    30   16   18 ar
    31   19   21 ar
@<TRIPOS>SUBSTRUCTURE
     1 RES1 1

@<TRIPOS>CRYSIN
  10.1400   12.3079   10.6624  90.0000 110.9500  90.0000  14 1

