# MOL2 file generated by ConQuest
# Please check atom types

@<TRIPOS>MOLECULE
IYENOR
    65    67     1
SMALL
NO_CHARGES
****
Generated from CSD

@<TRIPOS>ATOM
      1 O1         4.0608    6.0346    4.8296 O.2       1 RES1    0.0000
      2 C1         3.5408    5.8245    3.7676 C.2       1 RES1    0.0000
      3 O2         4.2012    5.6876    2.6102 O.3       1 RES1    0.0000
      4 C2         5.6607    5.8515    2.6402 C.3       1 RES1    0.0000
      5 C3         6.1842    5.1802    1.4018 C.3       1 RES1    0.0000
      6 C4         5.9985    7.3076    2.7103 C.3       1 RES1    0.0000
      7 C5         2.0257    5.6996    3.5492 C.3       1 RES1    0.0000
      8 C6         1.2804    5.8775    4.8899 C.3       1 RES1    0.0000
      9 C7         1.4725    4.7084    5.8705 C.3       1 RES1    0.0000
     10 C8         1.1772    3.3816    5.2290 C.2       1 RES1    0.0000
     11 N1         0.4243    2.4324    5.6718 N.2       1 RES1    0.0000
     12 N2        -0.1786    2.6573    6.8938 N.3       1 RES1    0.0000
     13 C9        -1.0470    1.7552    7.3960 C.ar      1 RES1    0.0000
     14 C10       -1.7262    1.9632    8.6283 C.ar      1 RES1    0.0000
     15 N3        -1.6162    3.2026    9.3719 N.pl3     1 RES1    0.0000
     16 O3        -0.8068    4.0665    8.9956 O.2       1 RES1    0.0000
     17 O4        -2.3501    3.3726   10.3458 O.2       1 RES1    0.0000
     18 C11       -2.5621    0.9942    9.1671 C.ar      1 RES1    0.0000
     19 C12       -2.7507   -0.1822    8.4887 C.ar      1 RES1    0.0000
     20 N4        -3.6196   -1.1890    9.0738 N.pl3     1 RES1    0.0000
     21 O5        -3.7941   -2.2363    8.4548 O.2       1 RES1    0.0000
     22 O6        -4.1426   -0.9524   10.1629 O.2       1 RES1    0.0000
     23 C13       -2.1274   -0.4203    7.2553 C.ar      1 RES1    0.0000
     24 C14       -1.3082    0.5348    6.7178 C.ar      1 RES1    0.0000
     25 C15        1.8656    3.1811    3.9160 C.3       1 RES1    0.0000
     26 C16        1.5581    4.3571    2.9636 C.3       1 RES1    0.0000
     27 C17        2.0414    3.8373    1.6118 C.3       1 RES1    0.0000
     28 C18        1.7123    2.3410    1.6318 C.3       1 RES1    0.0000
     29 C19        1.4986    1.9441    3.0928 C.3       1 RES1    0.0000
     30 C20        1.6003    6.8766    2.6666 C.2       1 RES1    0.0000
     31 O7         2.2405    7.9893    3.0426 O.3       1 RES1    0.0000
     32 C21        1.8700    9.2551    2.3959 C.3       1 RES1    0.0000
     33 C22        2.1974   10.3303    3.3998 C.3       1 RES1    0.0000
     34 C23        2.6248    9.3854    1.0991 C.3       1 RES1    0.0000
     35 O8         0.7523    6.8188    1.8139 O.2       1 RES1    0.0000
     36 H1         5.9966    5.3785    3.4270 H         1 RES1    0.0000
     37 H2         7.1510    5.2638    1.3769 H         1 RES1    0.0000
     38 H3         5.8101    5.6169    0.5981 H         1 RES1    0.0000
     39 H4         5.9454    4.2463    1.3849 H         1 RES1    0.0000
     40 H5         6.9656    7.4067    2.6962 H         1 RES1    0.0000
     41 H6         5.6341    7.7284    3.5134 H         1 RES1    0.0000
     42 H7         5.6409    7.7276    1.9126 H         1 RES1    0.0000
     43 H8         1.5543    6.7289    5.3172 H         1 RES1    0.0000
     44 H9         0.3320    5.9483    4.6696 H         1 RES1    0.0000
     45 H10        0.9100    4.8633    6.6525 H         1 RES1    0.0000
     46 H11        2.4004    4.6850    6.1664 H         1 RES1    0.0000
     47 H12       -2.9784    1.1538    9.9772 H         1 RES1    0.0000
     48 H13       -2.2639   -1.2192    6.7965 H         1 RES1    0.0000
     49 H14       -0.8863    0.3798    5.8705 H         1 RES1    0.0000
     50 H15        2.8471    3.1901    4.0747 H         1 RES1    0.0000
     51 H16        0.5443    4.3770    2.8721 H         1 RES1    0.0000
     52 H17        3.0258    3.9412    1.5512 H         1 RES1    0.0000
     53 H18        1.6113    4.3142    0.8715 H         1 RES1    0.0000
     54 H19        2.4140    1.7778    1.1690 H         1 RES1    0.0000
     55 H20        0.8777    2.2072    1.1450 H         1 RES1    0.0000
     56 H21        2.0530    1.1782    3.3407 H         1 RES1    0.0000
     57 H22        0.5557    1.7220    3.2255 H         1 RES1    0.0000
     58 H23        0.9131    9.2287    2.2196 H         1 RES1    0.0000
     59 H24        1.9456   11.1871    3.0256 H         1 RES1    0.0000
     60 H25        3.1685   10.3244    3.5757 H         1 RES1    0.0000
     61 H26        1.6952   10.1853    4.2298 H         1 RES1    0.0000
     62 H27        2.3455   10.2193    0.6685 H         1 RES1    0.0000
     63 H28        3.5630    9.4425    1.3001 H         1 RES1    0.0000
     64 H29        2.4211    8.6154    0.5405 H         1 RES1    0.0000
     65 H30       -0.0360    3.3951    7.3402 H         1 RES1    0.0000
@<TRIPOS>BOND
     1    1    2 2
     2    2    3 1
     3    3    4 1
     4    4    5 1
     5    5   37 1
     6    6    4 1
     7    7    2 1
     8    8    7 1
     9    9    8 1
    10   10    9 1
    11   11   10 2
    12   12   11 1
    13   13   12 1
    14   14   13 ar
    15   15   14 1
    16   16   15 2
    17   17   15 2
    18   18   14 ar
    19   19   18 ar
    20   20   19 1
    21   21   20 2
    22   22   20 2
    23   23   19 ar
    24   24   13 ar
    25   25   10 1
    26   26    7 1
    27   27   26 1
    28   28   27 1
    29   29   25 1
    30   30    7 1
    31   31   30 1
    32   32   31 1
    33   33   32 1
    34   34   32 1
    35   35   30 2
    36   36    4 1
    37   38    5 1
    38   39    5 1
    39   40    6 1
    40   41    6 1
    41   42    6 1
    42   43    8 1
    43   44    8 1
    44   45    9 1
    45   46    9 1
    46   47   18 1
    47   48   23 1
    48   49   24 1
    49   50   25 1
    50   51   26 1
    51   52   27 1
    52   53   27 1
    53   54   28 1
    54   55   28 1
    55   56   29 1
    56   57   29 1
    57   58   32 1
    58   59   33 1
    59   60   33 1
    60   61   33 1
    61   62   34 1
    62   63   34 1
    63   64   34 1
    64   65   12 1
    65   23   24 ar
    66   25   26 1
    67   28   29 1
@<TRIPOS>SUBSTRUCTURE
     1 RES1 1

@<TRIPOS>CRYSIN
   8.6692    9.3702   16.0180  90.4796  92.8552 111.2682   2 1

