# MOL2 file generated by ConQuest
# Please check atom types

@<TRIPOS>MOLECULE
IYENUX
    48    51     1
SMALL
NO_CHARGES
****
Generated from CSD

@<TRIPOS>ATOM
      1 O1        13.1873    3.5535   10.5743 O.3       1 RES1    0.0000
      2 C1        13.4583    3.7118    9.2662 C.2       1 RES1    0.0000
      3 O2        14.1504    4.5941    8.8265 O.2       1 RES1    0.0000
      4 C2        12.8093    2.6690    8.4260 C.3       1 RES1    0.0000
      5 C3        11.4126    2.1565    8.7951 C.3       1 RES1    0.0000
      6 C4        12.6236    1.2769    8.9731 C.3       1 RES1    0.0000
      7 C5        10.6654    2.0113    7.5307 C.2       1 RES1    0.0000
      8 N1         9.3994    1.8022    7.5680 N.2       1 RES1    0.0000
      9 N2         8.7907    1.7267    6.3240 N.3       1 RES1    0.0000
     10 C6         7.4508    1.6191    6.2403 C.ar      1 RES1    0.0000
     11 C7         6.6509    1.5898    7.4158 C.ar      1 RES1    0.0000
     12 C8         5.2926    1.4595    7.3532 C.ar      1 RES1    0.0000
     13 C9         4.6615    1.3493    6.1054 C.ar      1 RES1    0.0000
     14 N3         3.2197    1.1969    6.0444 N.pl3     1 RES1    0.0000
     15 O3         2.5925    1.2296    7.1040 O.2       1 RES1    0.0000
     16 O4         2.6878    1.0562    4.9407 O.2       1 RES1    0.0000
     17 C10        5.3725    1.3936    4.9365 C.ar      1 RES1    0.0000
     18 C11        6.7589    1.5309    4.9987 C.ar      1 RES1    0.0000
     19 N4         7.4403    1.5833    3.7333 N.pl3     1 RES1    0.0000
     20 O5         8.6823    1.6345    3.7060 O.2       1 RES1    0.0000
     21 O6         6.7669    1.5826    2.7042 O.2       1 RES1    0.0000
     22 C12       11.5566    2.2622    6.3331 C.3       1 RES1    0.0000
     23 C13       12.9040    2.8057    6.9118 C.3       1 RES1    0.0000
     24 C14       14.0116    1.9939    6.2071 C.3       1 RES1    0.0000
     25 C15       13.3419    1.4282    4.9616 C.3       1 RES1    0.0000
     26 C16       11.9347    1.0555    5.4425 C.3       1 RES1    0.0000
     27 C17       13.7082    4.5851   11.4527 C.3       1 RES1    0.0000
     28 C18       13.3714    4.2136   12.8628 C.3       1 RES1    0.0000
     29 H1        10.9456    2.4501    9.5839 H         1 RES1    0.0000
     30 H2        12.8837    1.0972    9.9077 H         1 RES1    0.0000
     31 H3        12.7664    0.5379    8.3708 H         1 RES1    0.0000
     32 H4         7.0888    1.6553    8.2454 H         1 RES1    0.0000
     33 H5         4.7695    1.4415    8.1470 H         1 RES1    0.0000
     34 H6         4.9499    1.3181    4.1212 H         1 RES1    0.0000
     35 H7        11.1302    2.9506    5.7924 H         1 RES1    0.0000
     36 H8        12.9862    3.7561    6.7130 H         1 RES1    0.0000
     37 H9        14.7902    2.5241    5.9923 H         1 RES1    0.0000
     38 H10       14.2923    1.2636    6.7757 H         1 RES1    0.0000
     39 H11       13.8262    0.6669    4.5972 H         1 RES1    0.0000
     40 H12       13.2760    2.1388    4.2630 H         1 RES1    0.0000
     41 H13       11.9628    0.2367    5.9879 H         1 RES1    0.0000
     42 H14       11.2813    0.9131    4.7270 H         1 RES1    0.0000
     43 H15       14.6694    4.6338   11.2998 H         1 RES1    0.0000
     44 H16       13.3000    5.4317   11.2118 H         1 RES1    0.0000
     45 H17       13.7179    4.8964   13.4858 H         1 RES1    0.0000
     46 H18       13.7538    3.3442   13.0754 H         1 RES1    0.0000
     47 H19       12.3997    4.1775   12.9590 H         1 RES1    0.0000
     48 H20        9.2730    1.7401    5.5895 H         1 RES1    0.0000
@<TRIPOS>BOND
     1    1    2 1
     2    2    3 2
     3    4    2 1
     4    5    4 1
     5    6    4 1
     6    7    5 1
     7    8    7 2
     8    9    8 1
     9   10    9 1
    10   11   10 ar
    11   12   11 ar
    12   13   12 ar
    13   14   13 1
    14   15   14 2
    15   16   14 2
    16   17   13 ar
    17   18   10 ar
    18   19   18 1
    19   20   19 2
    20   21   19 2
    21   22    7 1
    22   23    4 1
    23   24   23 1
    24   25   24 1
    25   26   22 1
    26   27    1 1
    27   28   27 1
    28   29    5 1
    29   30    6 1
    30   31    6 1
    31   32   11 1
    32   33   12 1
    33   34   17 1
    34   35   22 1
    35   36   23 1
    36   37   24 1
    37   38   24 1
    38   39   25 1
    39   40   25 1
    40   41   26 1
    41   42   26 1
    42   43   27 1
    43   44   27 1
    44   45   28 1
    45   46   28 1
    46   47   28 1
    47   48    9 1
    48    5    6 1
    49   17   18 ar
    50   22   23 1
    51   25   26 1
@<TRIPOS>SUBSTRUCTURE
     1 RES1 1

@<TRIPOS>CRYSIN
  19.3518    6.3277   16.0896  90.0000 111.9700  90.0000  14 1

