# MOL2 file generated by ConQuest
# Please check atom types

@<TRIPOS>MOLECULE
IYEPAF
    48    51     1
SMALL
NO_CHARGES
****
Generated from CSD

@<TRIPOS>ATOM
      1 O1         3.0381    8.8677    2.3623 O.2       1 RES1    0.0000
      2 C1         2.5643    9.6260    3.1769 C.2       1 RES1    0.0000
      3 O2         2.3575   10.9287    2.9344 O.3       1 RES1    0.0000
      4 C2         2.7355   11.4118    1.6104 C.3       1 RES1    0.0000
      5 C3         1.5781   11.4023    0.7037 C.3       1 RES1    0.0000
      6 H1         1.7636   11.9456   -0.0607 H         1 RES1    0.0000
      7 H2         0.8368   11.7980    1.1665 H         1 RES1    0.0000
      8 H3         1.3555   10.5177    0.4209 H         1 RES1    0.0000
      9 H4         3.0997   12.3047    1.6942 H         1 RES1    0.0000
     10 H5         3.4121   10.8071    1.2335 H         1 RES1    0.0000
     11 C4         2.1140    9.2126    4.5402 C.3       1 RES1    0.0000
     12 C5         0.8080    9.7724    5.0407 C.3       1 RES1    0.0000
     13 C6         2.0856   10.2224    5.7067 C.3       1 RES1    0.0000
     14 C7         2.4767    9.4535    6.9192 C.2       1 RES1    0.0000
     15 N1         2.8774    9.8740    8.0681 N.2       1 RES1    0.0000
     16 N2         2.8973   11.2653    8.1869 N.3       1 RES1    0.0000
     17 C8         3.3978   11.8311    9.3173 C.ar      1 RES1    0.0000
     18 C9         3.4575   13.2508    9.4909 C.ar      1 RES1    0.0000
     19 N3         2.9787   14.1685    8.4683 N.pl3     1 RES1    0.0000
     20 O3         3.0933   15.3874    8.6602 O.2       1 RES1    0.0000
     21 O4         2.4607   13.7078    7.4449 O.2       1 RES1    0.0000
     22 C10        3.9618   13.8236   10.6490 C.ar      1 RES1    0.0000
     23 C11        4.4151   13.0027   11.6524 C.ar      1 RES1    0.0000
     24 N4         4.9655   13.6015   12.8664 N.pl3     1 RES1    0.0000
     25 O5         4.9416   14.8370   12.9815 O.2       1 RES1    0.0000
     26 O6         5.4326   12.8492   13.7210 O.2       1 RES1    0.0000
     27 C12        4.3649   11.6102   11.5453 C.ar      1 RES1    0.0000
     28 C13        3.8682   11.0338   10.3902 C.ar      1 RES1    0.0000
     29 H6         3.8261   10.1031   10.3265 H         1 RES1    0.0000
     30 H7         4.6698   11.0752   12.2574 H         1 RES1    0.0000
     31 H8         3.9800   14.7508   10.7454 H         1 RES1    0.0000
     32 H9         2.6284   11.8630    7.3234 H         1 RES1    0.0000
     33 C14        2.3739    7.9488    6.6302 C.3       1 RES1    0.0000
     34 C15        2.5713    7.8720    5.0931 C.3       1 RES1    0.0000
     35 C16        4.0647    7.5933    4.9591 C.3       1 RES1    0.0000
     36 C17        4.3769    6.6319    6.0858 C.3       1 RES1    0.0000
     37 C18        3.4715    7.0795    7.2627 C.3       1 RES1    0.0000
     38 H10        3.9750    7.5838    7.9245 H         1 RES1    0.0000
     39 H11        3.0635    6.2988    7.6857 H         1 RES1    0.0000
     40 H12        5.3275    6.6921    6.3308 H         1 RES1    0.0000
     41 H13        4.1681    5.7283    5.8177 H         1 RES1    0.0000
     42 H14        4.5674    8.4118    5.0952 H         1 RES1    0.0000
     43 H15        4.2749    7.2366    4.0795 H         1 RES1    0.0000
     44 H16        2.0532    7.1291    4.7015 H         1 RES1    0.0000
     45 H17        1.4675    7.6240    6.8836 H         1 RES1    0.0000
     46 H18        2.4223   11.1307    5.5727 H         1 RES1    0.0000
     47 H19        0.3095   10.3913    4.4711 H         1 RES1    0.0000
     48 H20        0.1889    9.1937    5.5098 H         1 RES1    0.0000
@<TRIPOS>BOND
     1    1    2 2
     2    2    3 1
     3    3    4 1
     4    4    5 1
     5    5    6 1
     6    7    5 1
     7    8    5 1
     8    9    4 1
     9   10    4 1
    10   11    2 1
    11   12   11 1
    12   13   11 1
    13   14   13 1
    14   15   14 2
    15   16   15 1
    16   17   16 1
    17   18   17 ar
    18   19   18 1
    19   20   19 2
    20   21   19 2
    21   22   18 ar
    22   23   22 ar
    23   24   23 1
    24   25   24 2
    25   26   24 2
    26   27   23 ar
    27   28   17 ar
    28   29   28 1
    29   30   27 1
    30   31   22 1
    31   32   16 1
    32   33   14 1
    33   34   11 1
    34   35   34 1
    35   36   35 1
    36   37   33 1
    37   38   37 1
    38   39   37 1
    39   40   36 1
    40   41   36 1
    41   42   35 1
    42   43   35 1
    43   44   34 1
    44   45   33 1
    45   46   13 1
    46   47   12 1
    47   48   12 1
    48   12   13 1
    49   27   28 ar
    50   33   34 1
    51   36   37 1
@<TRIPOS>SUBSTRUCTURE
     1 RES1 1

@<TRIPOS>CRYSIN
   7.2890   11.8110   21.1800  90.0000  98.5970  90.0000 231 1

