# MOL2 file generated by ConQuest
# Please check atom types

@<TRIPOS>MOLECULE
IYEPEJ
   130   134     2
SMALL
NO_CHARGES
****
Generated from CSD

@<TRIPOS>ATOM
      1 O1         2.8663    5.7298   25.1594 O.2       1 RES1    0.0000
      2 C1         1.8596    6.3751   25.0755 C.2       1 RES1    0.0000
      3 O2         0.6273    5.8676   24.9248 O.3       1 RES1    0.0000
      4 C2         0.4859    4.4057   25.0099 C.3       1 RES1    0.0000
      5 C3         0.3749    4.0353   26.4725 C.3       1 RES1    0.0000
      6 C4        -0.7401    4.0556   24.2096 C.3       1 RES1    0.0000
      7 C5         1.7764    7.9108   25.1511 C.3       1 RES1    0.0000
      8 C6         0.8859    8.2380   26.3573 C.2       1 RES1    0.0000
      9 O3         1.3055    7.5923   27.4521 O.3       1 RES1    0.0000
     10 C7         0.5723    7.8592   28.7026 C.3       1 RES1    0.0000
     11 C8         0.7107    6.6246   29.5449 C.3       1 RES1    0.0000
     12 C9         1.1333    9.1048   29.3366 C.3       1 RES1    0.0000
     13 O4        -0.0572    8.9886   26.3241 O.2       1 RES1    0.0000
     14 C10        1.1268    8.4875   23.8846 C.3       1 RES1    0.0000
     15 C11        1.8736    8.0681   22.6272 C.3       1 RES1    0.0000
     16 C12        3.3684    8.1560   22.7661 C.2       1 RES1    0.0000
     17 N1         4.2018    7.7882   21.8570 N.2       1 RES1    0.0000
     18 N2         3.6095    7.3687   20.6660 N.3       1 RES1    0.0000
     19 C13        4.3258    6.6474   19.7787 C.ar      1 RES1    0.0000
     20 C14        3.7801    6.1773   18.5466 C.ar      1 RES1    0.0000
     21 N3         2.4173    6.4639   18.1525 N.pl3     1 RES1    0.0000
     22 O5         1.9794    5.9447   17.1252 O.2       1 RES1    0.0000
     23 O6         1.7351    7.2241   18.8544 O.2       1 RES1    0.0000
     24 C15        4.5216    5.3874   17.6795 C.ar      1 RES1    0.0000
     25 C16        5.8071    5.0517   18.0152 C.ar      1 RES1    0.0000
     26 N4         6.5619    4.1900   17.1183 N.pl3     1 RES1    0.0000
     27 O7         7.6649    3.7909   17.4834 O.2       1 RES1    0.0000
     28 O8         6.0609    3.8941   16.0315 O.2       1 RES1    0.0000
     29 C17        6.3862    5.4931   19.2096 C.ar      1 RES1    0.0000
     30 C18        5.6638    6.2787   20.0637 C.ar      1 RES1    0.0000
     31 C19        3.9667    8.7437   24.0139 C.3       1 RES1    0.0000
     32 C20        3.1859    8.5145   25.3536 C.3       1 RES1    0.0000
     33 C21        3.1483    9.9047   26.0387 C.3       1 RES1    0.0000
     34 C22        4.2029   10.7504   25.3353 C.3       1 RES1    0.0000
     35 C23        4.1022   10.2794   23.8884 C.3       1 RES1    0.0000
     36 H1         1.2832    4.0074   24.6128 H         1 RES1    0.0000
     37 H2         0.2099    3.0814   26.5354 H         1 RES1    0.0000
     38 H3         1.1892    4.2755   26.9436 H         1 RES1    0.0000
     39 H4        -0.3931    4.5122   26.8635 H         1 RES1    0.0000
     40 H5        -0.8519    3.0941   24.1932 H         1 RES1    0.0000
     41 H6        -1.5590    4.4285   24.6128 H         1 RES1    0.0000
     42 H7        -0.6567    4.3981   23.2967 H         1 RES1    0.0000
     43 H8        -0.3745    7.9996   28.4543 H         1 RES1    0.0000
     44 H9         0.2138    6.7311   30.3807 H         1 RES1    0.0000
     45 H10        1.6652    6.4927   29.7475 H         1 RES1    0.0000
     46 H11        0.3679    5.8407   29.0494 H         1 RES1    0.0000
     47 H12        0.6763    9.2519   30.1938 H         1 RES1    0.0000
     48 H13        2.0840    8.9644   29.5224 H         1 RES1    0.0000
     49 H14        1.0062    9.8912   28.7480 H         1 RES1    0.0000
     50 H15        1.1357    9.4667   23.9452 H         1 RES1    0.0000
     51 H16        0.2202    8.1898   23.8384 H         1 RES1    0.0000
     52 H17        1.6159    8.6355   21.9196 H         1 RES1    0.0000
     53 H18        1.6361    7.1506   22.4079 H         1 RES1    0.0000
     54 H19        4.1369    5.0796   16.8879 H         1 RES1    0.0000
     55 H20        7.2652    5.2488   19.4209 H         1 RES1    0.0000
     56 H21        6.0450    6.5916   20.8629 H         1 RES1    0.0000
     57 H22        4.8544    8.3683   24.1169 H         1 RES1    0.0000
     58 H23        3.7048    7.8854   25.8984 H         1 RES1    0.0000
     59 H24        3.3162    9.8396   27.0123 H         1 RES1    0.0000
     60 H25        2.2729   10.3216   25.9136 H         1 RES1    0.0000
     61 H26        5.0890   10.5593   25.6771 H         1 RES1    0.0000
     62 H27        4.0248   11.7127   25.4215 H         1 RES1    0.0000
     63 H28        4.8691   10.5280   23.3539 H         1 RES1    0.0000
     64 H29        3.2778   10.6633   23.4913 H         1 RES1    0.0000
     65 H30        2.8051    7.5869   20.4776 H         1 RES1    0.0000
     66 O9        -7.3080   11.5671   24.2046 O.3       2 RES2    0.0000
     67 C24       -6.0955   11.0582   24.4102 C.2       2 RES2    0.0000
     68 O10       -5.0971   11.7089   24.5701 O.2       2 RES2    0.0000
     69 C25       -6.1422    9.5124   24.4388 C.3       2 RES2    0.0000
     70 C26       -6.9739    9.1251   25.6607 C.2       2 RES2    0.0000
     71 O11       -7.8571    8.3123   25.6664 O.2       2 RES2    0.0000
     72 O12       -6.5679    9.8156   26.7372 O.3       2 RES2    0.0000
     73 C27       -7.2269    9.5098   28.0148 C.3       2 RES2    0.0000
     74 C28       -6.5979    8.2626   28.5916 C.3       2 RES2    0.0000
     75 C29       -7.0477   10.7411   28.8682 C.3       2 RES2    0.0000
     76 C30       -6.7890    8.9374   23.1720 C.3       2 RES2    0.0000
     77 C31       -5.9304    9.2122   21.9341 C.3       2 RES2    0.0000
     78 C32       -4.5207    8.7124   22.1088 C.2       2 RES2    0.0000
     79 N5        -3.8336    8.0070   21.2787 N.2       2 RES2    0.0000
     80 N6        -4.4503    7.6487   20.0915 N.3       2 RES2    0.0000
     81 C33       -3.8125    6.8157   19.2447 C.ar      2 RES2    0.0000
     82 C34       -4.3928    6.3709   18.0213 C.ar      2 RES2    0.0000
     83 N7        -5.6636    6.8724   17.5448 N.pl3     2 RES2    0.0000
     84 O13       -6.2863    7.6877   18.2380 O.2       2 RES2    0.0000
     85 O14       -6.0916    6.4800   16.4633 O.2       2 RES2    0.0000
     86 C35       -3.7543    5.4373   17.2076 C.ar      2 RES2    0.0000
     87 C36       -2.5108    4.9866   17.5627 C.ar      2 RES2    0.0000
     88 N8        -1.8665    3.9770   16.7254 N.pl3     2 RES2    0.0000
     89 O15       -2.5084    3.4730   15.8156 O.2       2 RES2    0.0000
     90 O16       -0.7096    3.6607   16.9993 O.2       2 RES2    0.0000
     91 C37       -1.8687    5.4585   18.7140 C.ar      2 RES2    0.0000
     92 C38       -2.5071    6.3345   19.5418 C.ar      2 RES2    0.0000
     93 C39       -3.8162    9.1657   23.3757 C.3       2 RES2    0.0000
     94 C40       -4.7084    8.9881   24.6223 C.3       2 RES2    0.0000
     95 C41       -4.5506    7.5057   24.9462 C.3       2 RES2    0.0000
     96 C42       -3.0566    7.2419   24.6887 C.3       2 RES2    0.0000
     97 C43       -2.5721    8.3547   23.7571 C.3       2 RES2    0.0000
     98 C44       -7.4068   13.0403   24.2988 C.3       2 RES2    0.0000
     99 C45       -8.6131   13.4437   23.5004 C.3       2 RES2    0.0000
    100 C46       -7.4870   13.4090   25.7637 C.3       2 RES2    0.0000
    101 H31       -8.1904    9.3526   27.8477 H         2 RES2    0.0000
    102 H32       -7.0173    8.0664   29.4575 H         2 RES2    0.0000
    103 H33       -5.6447    8.4215   28.7327 H         2 RES2    0.0000
    104 H34       -6.7193    7.4897   28.0003 H         2 RES2    0.0000
    105 H35       -7.5044   10.6320   29.7284 H         2 RES2    0.0000
    106 H36       -6.0903   10.8984   29.0455 H         2 RES2    0.0000
    107 H37       -7.4059   11.5326   28.4123 H         2 RES2    0.0000
    108 H38       -7.6663    9.3230   23.0487 H         2 RES2    0.0000
    109 H39       -6.8719    7.9776   23.2776 H         2 RES2    0.0000
    110 H40       -5.8660   10.1779   21.7861 H         2 RES2    0.0000
    111 H41       -6.3432    8.8071   21.1490 H         2 RES2    0.0000
    112 H42       -4.1786    5.1152   16.4263 H         2 RES2    0.0000
    113 H43       -1.0230    5.1659   18.9288 H         2 RES2    0.0000
    114 H44       -2.0896    6.6288   20.3174 H         2 RES2    0.0000
    115 H45       -3.5921   10.1238   23.2547 H         2 RES2    0.0000
    116 H46       -4.2759    9.5039   25.3414 H         2 RES2    0.0000
    117 H47       -4.8253    7.2994   25.8831 H         2 RES2    0.0000
    118 H48       -5.1032    6.9518   24.3343 H         2 RES2    0.0000
    119 H49       -2.5527    7.2867   25.5207 H         2 RES2    0.0000
    120 H50       -2.9473    6.3616   24.2504 H         2 RES2    0.0000
    121 H51       -1.9481    8.9306   24.2466 H         2 RES2    0.0000
    122 H52       -2.1255    7.9903   22.9915 H         2 RES2    0.0000
    123 H53       -6.5927   13.4166   23.8994 H         2 RES2    0.0000
    124 H54       -8.6590   14.4094   23.4913 H         2 RES2    0.0000
    125 H55       -9.4225   13.0750   23.8956 H         2 RES2    0.0000
    126 H56       -8.5215   13.1113   22.5872 H         2 RES2    0.0000
    127 H57       -7.5947   14.3806   25.8450 H         2 RES2    0.0000
    128 H58       -8.2630   12.9769   26.1845 H         2 RES2    0.0000
    129 H59       -6.6810   13.1274   26.2226 H         2 RES2    0.0000
    130 H60       -5.2220    7.9497   19.8901 H         2 RES2    0.0000
@<TRIPOS>BOND
     1    1    2 2
     2    2    3 1
     3    3    4 1
     4    4    5 1
     5    5   37 1
     6    6    4 1
     7    7    2 1
     8    8    7 1
     9    9    8 1
    10   10    9 1
    11   11   10 1
    12   12   10 1
    13   13    8 2
    14   14    7 1
    15   15   14 1
    16   16   15 1
    17   17   16 2
    18   18   17 1
    19   19   18 1
    20   20   19 ar
    21   21   20 1
    22   22   21 2
    23   23   21 2
    24   24   20 ar
    25   25   24 ar
    26   26   25 1
    27   27   26 2
    28   28   26 2
    29   29   25 ar
    30   30   19 ar
    31   31   16 1
    32   32    7 1
    33   33   32 1
    34   34   33 1
    35   35   31 1
    36   36    4 1
    37   38    5 1
    38   39    5 1
    39   40    6 1
    40   41    6 1
    41   42    6 1
    42   43   10 1
    43   44   11 1
    44   45   11 1
    45   46   11 1
    46   47   12 1
    47   48   12 1
    48   49   12 1
    49   50   14 1
    50   51   14 1
    51   52   15 1
    52   53   15 1
    53   54   24 1
    54   55   29 1
    55   56   30 1
    56   57   31 1
    57   58   32 1
    58   59   33 1
    59   60   33 1
    60   61   34 1
    61   62   34 1
    62   63   35 1
    63   64   35 1
    64   65   18 1
    65   66   67 1
    66   67   68 2
    67   69   67 1
    68   70   69 1
    69   71   70 2
    70   72   70 1
    71   73   72 1
    72   74   73 1
    73   75   73 1
    74   76   69 1
    75   77   76 1
    76   78   77 1
    77   79   78 2
    78   80   79 1
    79   81   80 1
    80   82   81 ar
    81   83   82 1
    82   84   83 2
    83   85   83 2
    84   86   82 ar
    85   87   86 ar
    86   88   87 1
    87   89   88 2
    88   90   88 2
    89   91   87 ar
    90   92   81 ar
    91   93   78 1
    92   94   69 1
    93   95   94 1
    94   96   95 1
    95   97   93 1
    96   98   66 1
    97   99   98 1
    98  100   98 1
    99  101   73 1
   100  102   74 1
   101  103   74 1
   102  104   74 1
   103  105   75 1
   104  106   75 1
   105  107   75 1
   106  108   76 1
   107  109   76 1
   108  110   77 1
   109  111   77 1
   110  112   86 1
   111  113   91 1
   112  114   92 1
   113  115   93 1
   114  116   94 1
   115  117   95 1
   116  118   95 1
   117  119   96 1
   118  120   96 1
   119  121   97 1
   120  122   97 1
   121  123   98 1
   122  124   99 1
   123  125   99 1
   124  126   99 1
   125  127  100 1
   126  128  100 1
   127  129  100 1
   128  130   80 1
   129   29   30 ar
   130   31   32 1
   131   34   35 1
   132   91   92 ar
   133   93   94 1
   134   96   97 1
@<TRIPOS>SUBSTRUCTURE
     1 RES1 1
     2 RES2 66

@<TRIPOS>CRYSIN
  14.7496    8.4562   38.6953  90.0000  99.6520  90.0000 231 1

