# MOL2 file generated by ConQuest
# Please check atom types

@<TRIPOS>MOLECULE
IYIGII
    79    71     2
SMALL
NO_CHARGES
****
Generated from CSD

@<TRIPOS>ATOM
      1 N1         1.7169    0.8362    3.0167 N.3       1 RES1    0.0000
      2 O1         4.2440    1.7382    1.3527 O.3       1 RES1    0.0000
      3 N2         2.6329    0.6122    4.0000 N.2       1 RES1    0.0000
      4 O2         6.1136    0.5132    1.2155 O.2       1 RES1    0.0000
      5 C1         4.9784    0.6476    1.5672 C.2       1 RES1    0.0000
      6 C2         0.1299    1.3904    4.7228 C.ar      1 RES1    0.0000
      7 H1         0.8044    1.0936    5.3963 H         1 RES1    0.0000
      8 C3         0.4885    1.2998    3.3682 C.ar      1 RES1    0.0000
      9 C4        -2.0247    2.2144    4.1400 C.ar      1 RES1    0.0000
     10 C5         3.7582    0.0805    3.6766 C.2       1 RES1    0.0000
     11 O3        -4.1790    2.8858    3.6910 O.2       1 RES1    0.0000
     12 C6        -1.0969    1.8400    5.1057 C.ar      1 RES1    0.0000
     13 H2        -1.3133    1.8968    6.0079 H         1 RES1    0.0000
     14 O4         0.8070    1.1292    0.5902 O.2       1 RES1    0.0000
     15 C7        -0.4803    1.7038    2.4271 C.ar      1 RES1    0.0000
     16 O5        -1.0261    2.1730    0.2455 O.2       1 RES1    0.0000
     17 C8        -1.7333    2.1460    2.8100 C.ar      1 RES1    0.0000
     18 H3        -2.3645    2.3920    2.1729 H         1 RES1    0.0000
     19 C9         4.1722   -0.3800    2.3068 C.3       1 RES1    0.0000
     20 H4         4.6958   -1.1920    2.3906 H         1 RES1    0.0000
     21 H5         3.3785   -0.5905    1.7900 H         1 RES1    0.0000
     22 O6        -3.5847    2.7572    5.7335 O.2       1 RES1    0.0000
     23 N3        -0.2157    1.6684    0.9937 N.pl3     1 RES1    0.0000
     24 N4        -3.3485    2.6617    4.5483 N.pl3     1 RES1    0.0000
     25 C10        3.8431    3.7777    0.1389 C.3       1 RES1    0.0000
     26 H6         3.3077    4.0809    0.8878 H         1 RES1    0.0000
     27 H7         4.2798    4.5539   -0.2448 H         1 RES1    0.0000
     28 C11        4.8896    2.8374    0.6438 C.3       1 RES1    0.0000
     29 H8         5.4075    2.4904   -0.1000 H         1 RES1    0.0000
     30 H9         5.4920    3.3063    1.2419 H         1 RES1    0.0000
     31 C12        2.9490    3.1809   -0.8785 C.3       1 RES1    0.0000
     32 H10        3.4705    2.8777   -1.6248 H         1 RES1    0.0000
     33 H11        2.3179    3.8412   -1.1758 H         1 RES1    0.0000
     34 H12        2.4774    2.4380   -0.4947 H         1 RES1    0.0000
     35 H13        1.9568    0.7571    2.2365 H         1 RES1    0.0000
     36 H14        4.8822    3.6333    1.1979 Du        2 SUP2    0.0000
     37 H15        5.8137    2.6079    0.4566 Du        2 SUP2    0.0000
     38 C13        4.2135    3.0920   -0.5566 Du        2 SUP2    0.0000
     39 H16        4.0823    2.2714   -1.0564 Du        2 SUP2    0.0000
     40 H17        4.7130    3.7158   -1.1064 Du        2 SUP2    0.0000
     41 C14        2.9114    3.6729   -0.1525 Du        2 SUP2    0.0000
     42 H18        2.3057    3.6412   -0.8997 Du        2 SUP2    0.0000
     43 H19        3.0397    4.5856    0.1135 Du        2 SUP2    0.0000
     44 H20        2.5495    3.1698    0.5761 Du        2 SUP2    0.0000
     45 N1B        6.7434   -0.8362    5.4547 N.3       1 RES1    0.0000
     46 O1B        4.2163   -1.7382    7.1187 O.3       1 RES1    0.0000
     47 N2B        5.8274   -0.6122    4.4714 N.2       1 RES1    0.0000
     48 O2B        2.3467   -0.5132    7.2559 O.2       1 RES1    0.0000
     49 C1B        3.4819   -0.6476    6.9042 C.2       1 RES1    0.0000
     50 C2B        8.3305   -1.3904    3.7486 C.ar      1 RES1    0.0000
     51 H1B        7.6559   -1.0936    3.0751 H         1 RES1    0.0000
     52 C3B        7.9718   -1.2998    5.1032 C.ar      1 RES1    0.0000
     53 C4B       10.4850   -2.2144    4.3314 C.ar      1 RES1    0.0000
     54 C5B        4.7021   -0.0805    4.7948 C.2       1 RES1    0.0000
     55 O3B       12.6393   -2.8858    4.7804 O.2       1 RES1    0.0000
     56 C6B        9.5572   -1.8400    3.3657 C.ar      1 RES1    0.0000
     57 H2B        9.7736   -1.8968    2.4635 H         1 RES1    0.0000
     58 O4B        7.6533   -1.1292    7.8812 O.2       1 RES1    0.0000
     59 C7B        8.9406   -1.7038    6.0444 C.ar      1 RES1    0.0000
     60 O5B        9.4864   -2.1730    8.2259 O.2       1 RES1    0.0000
     61 C8B       10.1937   -2.1460    5.6614 C.ar      1 RES1    0.0000
     62 H3B       10.8248   -2.3920    6.2985 H         1 RES1    0.0000
     63 C9B        4.2881    0.3800    6.1647 C.3       1 RES1    0.0000
     64 H4B        3.7645    1.1920    6.0808 H         1 RES1    0.0000
     65 H5B        5.0818    0.5905    6.6814 H         1 RES1    0.0000
     66 O6B       12.0451   -2.7572    2.7380 O.2       1 RES1    0.0000
     67 N3B        8.6760   -1.6684    7.4777 N.pl3     1 RES1    0.0000
     68 N4B       11.8088   -2.6617    3.9231 N.pl3     1 RES1    0.0000
     69 C10B       4.6172   -3.7777    8.3325 C.3       1 RES1    0.0000
     70 H6B        5.1526   -4.0809    7.5836 H         1 RES1    0.0000
     71 H7B        4.1805   -4.5539    8.7162 H         1 RES1    0.0000
     72 C11B       3.5708   -2.8374    7.8276 C.3       1 RES1    0.0000
     73 H8B        3.0528   -2.4904    8.5714 H         1 RES1    0.0000
     74 H9B        2.9683   -3.3063    7.2295 H         1 RES1    0.0000
     75 C12B       5.5113   -3.1809    9.3499 C.3       1 RES1    0.0000
     76 H10B       4.9898   -2.8777   10.0962 H         1 RES1    0.0000
     77 H11B       6.1424   -3.8412    9.6473 H         1 RES1    0.0000
     78 H12B       5.9829   -2.4380    8.9661 H         1 RES1    0.0000
     79 H13B       6.5035   -0.7571    6.2350 H         1 RES1    0.0000
@<TRIPOS>BOND
     1    1    3 1
     2    2    5 1
     3    3   10 2
     4    4    5 2
     5    5   19 1
     6    6    7 1
     7    8    1 1
     8    9   12 ar
     9   10   19 1
    10   11   24 2
    11   12    6 ar
    12   13   12 1
    13   14   23 2
    14   15    8 ar
    15   16   23 2
    16   17    9 ar
    17   18   17 1
    18   19   20 1
    19   21   19 1
    20   22   24 2
    21   23   15 1
    22   24    9 1
    23   25   26 1
    24   27   25 1
    25   28    2 1
    26   29   28 1
    27   30   28 1
    28   31   25 1
    29   32   31 1
    30   33   31 1
    31   34   31 1
    32   35    1 1
    33   45   47 1
    34   46   49 1
    35   47   54 2
    36   48   49 2
    37   49   63 1
    38   50   51 1
    39   52   45 1
    40   53   56 ar
    41   54   10 1
    42   55   68 2
    43   56   50 ar
    44   57   56 1
    45   58   67 2
    46   59   52 ar
    47   60   67 2
    48   61   53 ar
    49   62   61 1
    50   63   54 1
    51   64   63 1
    52   65   63 1
    53   66   68 2
    54   67   59 1
    55   68   53 1
    56   69   70 1
    57   71   69 1
    58   72   46 1
    59   73   72 1
    60   74   72 1
    61   75   69 1
    62   76   75 1
    63   77   75 1
    64   78   75 1
    65   79   45 1
    66    6    8 ar
    67   15   17 ar
    68   25   28 1
    69   50   52 ar
    70   59   61 ar
    71   69   72 1
@<TRIPOS>SUBSTRUCTURE
     1 RES1 1
     2 SUP2 36

@<TRIPOS>CRYSIN
  10.2500   15.8727    8.6584  90.0000 101.9290  90.0000  14 1

