# MOL2 file generated by ConQuest
# Please check atom types

@<TRIPOS>MOLECULE
IYIKUY
    86    94     2
SMALL
NO_CHARGES
****
Generated from CSD

@<TRIPOS>ATOM
      1 O1        10.5581    2.6608    7.8059 O.3       1 RES1    0.0000
      2 N1        10.5700    2.7551    6.4001 N.2       1 RES1    0.0000
      3 C1        10.6027    1.5798    5.8930 C.2       1 RES1    0.0000
      4 C2        10.6234    0.4731    6.8957 C.3       1 RES1    0.0000
      5 H1        11.4744   -0.0307    6.8624 H         1 RES1    0.0000
      6 H2         9.8675   -0.1518    6.7621 H         1 RES1    0.0000
      7 C3        12.8141    1.6743    9.1922 C.ar      1 RES1    0.0000
      8 H3        12.9104    2.4551    8.6596 H         1 RES1    0.0000
      9 C4        13.8730    1.2444    9.9907 C.ar      1 RES1    0.0000
     10 H4        14.6874    1.7334   10.0051 H         1 RES1    0.0000
     11 C5        13.7399    0.1234   10.7519 C.ar      1 RES1    0.0000
     12 H5        14.4741   -0.1819   11.2722 H         1 RES1    0.0000
     13 C6        12.5627   -0.5658   10.7732 C.ar      1 RES1    0.0000
     14 H6        12.4815   -1.3371   11.3224 H         1 RES1    0.0000
     15 C7         7.8536   -0.3727   10.3865 C.ar      1 RES1    0.0000
     16 H7         7.7738   -1.1150   10.9743 H         1 RES1    0.0000
     17 C8         6.7600    0.4217   10.1218 C.ar      1 RES1    0.0000
     18 H8         5.9254    0.2162   10.5258 H         1 RES1    0.0000
     19 C9         6.8530    1.5048    9.2819 C.ar      1 RES1    0.0000
     20 H9         6.0920    2.0499    9.1175 H         1 RES1    0.0000
     21 C10        8.0500    1.7942    8.6828 C.ar      1 RES1    0.0000
     22 H10        8.1140    2.5437    8.1013 H         1 RES1    0.0000
     23 C11       10.4818    1.2650    8.2189 C.3       1 RES1    0.0000
     24 N2        10.2427   -0.8115   10.0531 N.pl3     1 RES1    0.0000
     25 C12       10.1316   -2.0192   10.8532 C.3       1 RES1    0.0000
     26 H11       10.9153   -2.5862   10.6983 H         1 RES1    0.0000
     27 H12        9.3211   -2.5065   10.5979 H         1 RES1    0.0000
     28 H13       10.0831   -1.7789   11.8023 H         1 RES1    0.0000
     29 C13       11.4726   -0.1536    9.9982 C.ar      1 RES1    0.0000
     30 C14        9.1673    1.0117    8.9096 C.ar      1 RES1    0.0000
     31 C15       11.6108    0.9597    9.1708 C.ar      1 RES1    0.0000
     32 C16        9.0878   -0.0762    9.7809 C.ar      1 RES1    0.0000
     33 C17       10.6645    1.3873    4.4330 C.ar      1 RES1    0.0000
     34 C18       10.3541    2.4191    3.5520 C.ar      1 RES1    0.0000
     35 H14       10.0717    3.2618    3.8891 H         1 RES1    0.0000
     36 C19       10.4559    2.2171    2.1839 C.ar      1 RES1    0.0000
     37 H15       10.2416    2.9240    1.5870 H         1 RES1    0.0000
     38 C20       10.8655    0.9957    1.6827 C.ar      1 RES1    0.0000
     39 H16       10.9360    0.8634    0.7433 H         1 RES1    0.0000
     40 C21       11.1687   -0.0236    2.5483 C.ar      1 RES1    0.0000
     41 H17       11.4514   -0.8640    2.2080 H         1 RES1    0.0000
     42 C22       11.0656    0.1630    3.9208 C.ar      1 RES1    0.0000
     43 H18       11.2724   -0.5522    4.5101 H         1 RES1    0.0000
     44 O2        10.2652    5.4670   16.3209 O.3       2 RES2    0.0000
     45 N3        10.1633    5.4659   17.7275 N.2       2 RES2    0.0000
     46 C23       10.0974    4.2605   18.1503 C.2       2 RES2    0.0000
     47 C24       10.1680    3.2228   17.0818 C.3       2 RES2    0.0000
     48 H19        9.3821    2.6216   17.1059 H         2 RES2    0.0000
     49 H20       10.9953    2.6836   17.1530 H         2 RES2    0.0000
     50 C25       12.5356    4.5157   14.9772 C.ar      2 RES2    0.0000
     51 H21       12.6046    5.2663   15.5565 H         2 RES2    0.0000
     52 C26       13.6246    4.1394   14.2079 C.ar      2 RES2    0.0000
     53 H22       14.4334    4.6355   14.2455 H         2 RES2    0.0000
     54 C27       13.5208    3.0350   13.3868 C.ar      2 RES2    0.0000
     55 H23       14.2756    2.7551   12.8812 H         2 RES2    0.0000
     56 C28       12.3375    2.3305   13.2880 C.ar      2 RES2    0.0000
     57 H24       12.2794    1.5786   12.7087 H         2 RES2    0.0000
     58 C29        7.6321    2.6370   13.4313 C.ar      2 RES2    0.0000
     59 H25        7.5634    1.9070   12.8279 H         2 RES2    0.0000
     60 C30        6.5480    3.4744   13.6336 C.ar      2 RES2    0.0000
     61 H26        5.7358    3.3073   13.1697 H         2 RES2    0.0000
     62 C31        6.6309    4.5464   14.4967 C.ar      2 RES2    0.0000
     63 H27        5.8849    5.1234   14.6156 H         2 RES2    0.0000
     64 C32        7.8056    4.7761   15.1886 C.ar      2 RES2    0.0000
     65 H28        7.8644    5.5120   15.7855 H         2 RES2    0.0000
     66 C33       10.1707    4.0999   15.8106 C.3       2 RES2    0.0000
     67 N4         9.9791    2.0877   13.9153 N.pl3     2 RES2    0.0000
     68 C34        9.8891    0.9024   13.0813 C.3       2 RES2    0.0000
     69 H29        9.0482    0.4353   13.2670 H         2 RES2    0.0000
     70 H30       10.6430    0.3077   13.2764 H         2 RES2    0.0000
     71 H31        9.9147    1.1646   12.1379 H         2 RES2    0.0000
     72 C35       11.2252    2.7244   14.0382 C.ar      2 RES2    0.0000
     73 C36        8.8986    3.9386   15.0161 C.ar      2 RES2    0.0000
     74 C37       11.3472    3.8099   14.9126 C.ar      2 RES2    0.0000
     75 C38        8.8293    2.8691   14.1182 C.ar      2 RES2    0.0000
     76 C39        9.9926    3.9788   19.5962 C.ar      2 RES2    0.0000
     77 C40        9.5423    4.9610   20.4735 C.ar      2 RES2    0.0000
     78 H32        9.2782    5.8108   20.1419 H         2 RES2    0.0000
     79 C41        9.4799    4.6976   21.8287 C.ar      2 RES2    0.0000
     80 H33        9.1708    5.3708   22.4221 H         2 RES2    0.0000
     81 C42        9.8618    3.4703   22.3296 C.ar      2 RES2    0.0000
     82 H34        9.8328    3.3038   23.2658 H         2 RES2    0.0000
     83 C43       10.2826    2.4893   21.4633 C.ar      2 RES2    0.0000
     84 H35       10.5359    1.6389   21.8011 H         2 RES2    0.0000
     85 C44       10.3396    2.7338   20.0943 C.ar      2 RES2    0.0000
     86 H36       10.6161    2.0458   19.5021 H         2 RES2    0.0000
@<TRIPOS>BOND
     1    1    2 1
     2    2    3 2
     3    3    4 1
     4    4    5 1
     5    6    4 1
     6    7    8 1
     7    9    7 ar
     8   10    9 1
     9   11    9 ar
    10   12   11 1
    11   13   11 ar
    12   14   13 1
    13   15   16 1
    14   17   15 ar
    15   18   17 1
    16   19   17 ar
    17   20   19 1
    18   21   19 ar
    19   22   21 1
    20   23    1 1
    21   24   25 1
    22   25   26 1
    23   27   25 1
    24   28   25 1
    25   29   13 ar
    26   30   21 ar
    27   31    7 ar
    28   32   15 ar
    29   33    3 1
    30   34   33 ar
    31   35   34 1
    32   36   34 ar
    33   37   36 1
    34   38   36 ar
    35   39   38 1
    36   40   38 ar
    37   41   40 1
    38   42   33 ar
    39   43   42 1
    40   44   45 1
    41   45   46 2
    42   46   47 1
    43   47   48 1
    44   49   47 1
    45   50   51 1
    46   52   50 ar
    47   53   52 1
    48   54   52 ar
    49   55   54 1
    50   56   54 ar
    51   57   56 1
    52   58   59 1
    53   60   58 ar
    54   61   60 1
    55   62   60 ar
    56   63   62 1
    57   64   62 ar
    58   65   64 1
    59   66   44 1
    60   67   68 1
    61   68   69 1
    62   70   68 1
    63   71   68 1
    64   72   56 ar
    65   73   64 ar
    66   74   50 ar
    67   75   58 ar
    68   76   46 1
    69   77   76 ar
    70   78   77 1
    71   79   77 ar
    72   80   79 1
    73   81   79 ar
    74   82   81 1
    75   83   81 ar
    76   84   83 1
    77   85   76 ar
    78   86   85 1
    79    4   23 1
    80   23   30 1
    81   23   31 1
    82   24   29 1
    83   24   32 1
    84   29   31 ar
    85   30   32 ar
    86   40   42 ar
    87   47   66 1
    88   66   73 1
    89   66   74 1
    90   67   72 1
    91   67   75 1
    92   72   74 ar
    93   73   75 ar
    94   83   85 ar
@<TRIPOS>SUBSTRUCTURE
     1 RES1 1
     2 RES2 44

@<TRIPOS>CRYSIN
  18.1333    5.9059   32.6188  90.0000 105.9440  90.0000  14 1

