# MOL2 file generated by ConQuest
# Please check atom types

@<TRIPOS>MOLECULE
IYIYEU
    24    24     2
SMALL
NO_CHARGES
****
Generated from CSD

@<TRIPOS>ATOM
      1 O1         1.1189   -3.0965    5.1597 O.3       1 RES1    0.0000
      2 O2         2.1991    1.4577    7.7807 O.2       1 RES1    0.0000
      3 O3         0.0545    1.5354    7.6634 O.2       1 RES1    0.0000
      4 N1         1.2432    2.4338    4.7831 N.ar      1 RES1    0.0000
      5 N2         1.1426    1.1825    7.2458 N.pl3     1 RES1    0.0000
      6 C1         1.2997    3.0140    3.6014 C.ar      1 RES1    0.0000
      7 H1         1.3264    3.9637    3.5713 H         1 RES1    0.0000
      8 C2         1.3276    2.3230    2.3704 C.ar      1 RES1    0.0000
      9 H2         1.4090    2.8154    1.5362 H         1 RES1    0.0000
     10 C3         1.2906    0.9548    2.3764 C.ar      1 RES1    0.0000
     11 H3         1.3325    0.4244    1.5602 H         1 RES1    0.0000
     12 C4         1.2060   -1.1468    3.7087 C.ar      1 RES1    0.0000
     13 H4         1.2152   -1.6752    2.9215 H         1 RES1    0.0000
     14 F1         1.2943   -1.8802    2.5803 Du        2 SUP2    0.0000
     15 C5         1.1623   -1.7572    4.9388 C.ar      1 RES1    0.0000
     16 C6         1.1532   -0.9768    6.1246 C.ar      1 RES1    0.0000
     17 H5         1.1124   -1.4221    6.9857 H         1 RES1    0.0000
     18 C7         1.1745    0.3768    6.0165 C.ar      1 RES1    0.0000
     19 C8         1.2158    1.0700    4.7842 C.ar      1 RES1    0.0000
     20 C9         1.2365    0.2676    3.6138 C.ar      1 RES1    0.0000
     21 C10        1.1093   -3.9411    3.9992 C.3       1 RES1    0.0000
     22 H6         1.9170   -3.8804    3.5121 H         1 RES1    0.0000
     23 H7         0.3609   -3.7603    3.4367 H         1 RES1    0.0000
     24 H8         1.0248   -4.8509    4.3608 H         1 RES1    0.0000
@<TRIPOS>BOND
     1    1   15 1
     2    2    5 2
     3    3    5 2
     4    4    6 ar
     5    5   18 1
     6    6    7 1
     7    8    6 ar
     8    9    8 1
     9   10    8 ar
    10   11   10 1
    11   12   13 1
    12   15   12 ar
    13   16   15 ar
    14   17   16 1
    15   18   16 ar
    16   19    4 ar
    17   20   10 ar
    18   21    1 1
    19   22   21 1
    20   23   21 1
    21   24   21 1
    22   12   20 ar
    23   18   19 ar
    24   19   20 ar
@<TRIPOS>SUBSTRUCTURE
     1 RES1 1
     2 SUP2 14

@<TRIPOS>CRYSIN
   6.7140   16.0150    8.6240  90.0000  96.2700  90.0000  14 1

