# MOL2 file generated by ConQuest
# Please check atom types

@<TRIPOS>MOLECULE
IYIYOF
    40    40     1
SMALL
NO_CHARGES
****
Generated from CSD

@<TRIPOS>ATOM
      1 C1         3.0715    2.7269   11.0485 C.2       1 RES1    0.0000
      2 C2         3.8075    3.7081   10.1436 C.3       1 RES1    0.0000
      3 H1         3.1860    4.4317    9.8419 H         1 RES1    0.0000
      4 C3         5.0226    4.3260   10.9051 C.3       1 RES1    0.0000
      5 H2         5.6574    4.7000   10.2299 H         1 RES1    0.0000
      6 C4         4.6675    5.4338   11.8901 C.3       1 RES1    0.0000
      7 H3         4.0883    5.0458   12.6071 H         1 RES1    0.0000
      8 C5         3.9069    6.5697   11.2185 C.3       1 RES1    0.0000
      9 H4         4.4121    6.8865   10.4403 H         1 RES1    0.0000
     10 H5         3.7905    7.3057   11.8557 H         1 RES1    0.0000
     11 H6         3.0279    6.2471   10.9267 H         1 RES1    0.0000
     12 C6         5.9415    5.9705   12.5371 C.3       1 RES1    0.0000
     13 H7         6.5138    6.3694   11.8502 H         1 RES1    0.0000
     14 H8         6.4207    5.2358   12.9732 H         1 RES1    0.0000
     15 H9         5.7080    6.6508   13.2027 H         1 RES1    0.0000
     16 C7         4.7055    3.4208    7.8500 C.ar      1 RES1    0.0000
     17 C8         5.1388    2.6063    6.7596 C.ar      1 RES1    0.0000
     18 C9         5.6165    3.1502    5.5734 C.ar      1 RES1    0.0000
     19 H10        5.9031    2.5845    4.8663 H         1 RES1    0.0000
     20 C10        5.6689    4.5124    5.4376 C.ar      1 RES1    0.0000
     21 C11        5.2333    5.3702    6.4560 C.ar      1 RES1    0.0000
     22 H11        5.2631    6.3124    6.3363 H         1 RES1    0.0000
     23 C12        4.7639    4.8324    7.6238 C.ar      1 RES1    0.0000
     24 H12        4.4662    5.4185    8.3091 H         1 RES1    0.0000
     25 C13        1.7265    2.5093   12.9584 C.3       1 RES1    0.0000
     26 H13        1.1385    1.8823   12.4868 H         1 RES1    0.0000
     27 H14        1.1946    3.0591   13.5716 H         1 RES1    0.0000
     28 H15        2.3967    2.0087   13.4678 H         1 RES1    0.0000
     29 N1         5.1159    1.1619    6.8246 N.pl3     1 RES1    0.0000
     30 N2         6.2377    5.0738    4.2275 N.pl3     1 RES1    0.0000
     31 N3         4.2545    2.9286    9.0039 N.pl3     1 RES1    0.0000
     32 O1         3.1192    1.5365   10.9073 O.2       1 RES1    0.0000
     33 O2         2.3934    3.3667   11.9923 O.3       1 RES1    0.0000
     34 O3         5.6840    3.2856   11.6059 O.3       1 RES1    0.0000
     35 O4         4.8281    0.6053    7.8965 O.2       1 RES1    0.0000
     36 O5         5.3798    0.5220    5.8082 O.2       1 RES1    0.0000
     37 O6         6.5989    4.3287    3.3340 O.2       1 RES1    0.0000
     38 O7         6.3420    6.3106    4.1690 O.2       1 RES1    0.0000
     39 H16        4.2307    2.1286    9.0687 H         1 RES1    0.0000
     40 H17        6.1681    2.9523   11.0496 H         1 RES1    0.0000
@<TRIPOS>BOND
     1    1    2 1
     2    2    3 1
     3    4    2 1
     4    5    4 1
     5    6    4 1
     6    7    6 1
     7    8    6 1
     8    9    8 1
     9   10    8 1
    10   11    8 1
    11   12    6 1
    12   13   12 1
    13   14   12 1
    14   15   12 1
    15   16   17 ar
    16   17   18 ar
    17   18   19 1
    18   20   18 ar
    19   21   20 ar
    20   22   21 1
    21   23   16 ar
    22   24   23 1
    23   25   26 1
    24   27   25 1
    25   28   25 1
    26   29   17 1
    27   30   20 1
    28   31    2 1
    29   32    1 2
    30   33    1 1
    31   34    4 1
    32   35   29 2
    33   36   29 2
    34   37   30 2
    35   38   30 2
    36   39   31 1
    37   40   34 1
    38   16   31 1
    39   21   23 ar
    40   25   33 1
@<TRIPOS>SUBSTRUCTURE
     1 RES1 1

@<TRIPOS>CRYSIN
   6.8458    8.1555   27.3235  90.0000  90.0000  90.0000  19 1

