# MOL2 file generated by ConQuest
# Please check atom types

@<TRIPOS>MOLECULE
IYIZIB
   202   192     5
SMALL
NO_CHARGES
****
Generated from CSD

@<TRIPOS>ATOM
      1 O1         6.0246    1.4437   10.1652 O.2       1 RES1    0.0000
      2 O2         5.2620    1.5218    8.2132 O.2       1 RES1    0.0000
      3 O3        13.9607    2.5166    6.0492 O.3       1 RES1    0.0000
      4 O4        16.0292    2.6506    6.7626 O.2       1 RES1    0.0000
      5 O5        11.2081    2.4566    2.7688 O.2       1 RES1    0.0000
      6 O6        12.9754    2.1836    1.4786 O.3       1 RES1    0.0000
      7 N1         6.1682    1.5330    8.9638 N.pl3     1 RES1    0.0000
      8 C1         7.4952    1.7403    8.4044 C.ar      1 RES1    0.0000
      9 C2         8.5524    1.9714    9.2577 C.ar      1 RES1    0.0000
     10 H1         8.4232    1.9923   10.1995 H         1 RES1    0.0000
     11 C3         9.7806    2.1683    8.7241 C.ar      1 RES1    0.0000
     12 H2        10.5200    2.3086    9.3034 H         1 RES1    0.0000
     13 C4         9.9939    2.1711    7.3343 C.ar      1 RES1    0.0000
     14 C5         8.8982    1.9421    6.5152 C.ar      1 RES1    0.0000
     15 H3         9.0132    1.9351    5.5706 H         1 RES1    0.0000
     16 C6         7.6465    1.7243    7.0432 C.ar      1 RES1    0.0000
     17 H4         6.9032    1.5665    6.4753 H         1 RES1    0.0000
     18 C7        11.3473    2.3679    6.8234 C.2       1 RES1    0.0000
     19 H5        12.0415    2.4908    7.4627 H         1 RES1    0.0000
     20 C8        11.6887    2.3903    5.5421 C.2       1 RES1    0.0000
     21 H6        10.9799    2.3302    4.9114 H         1 RES1    0.0000
     22 C9        13.0276    2.4957    5.0113 C.2       1 RES1    0.0000
     23 C10       15.2847    2.8021    5.8446 C.2       1 RES1    0.0000
     24 C11       15.6565    3.2908    4.4719 C.3       1 RES1    0.0000
     25 H7        16.6376    3.1484    4.3406 H         1 RES1    0.0000
     26 C12       14.9116    2.4964    3.4103 C.3       1 RES1    0.0000
     27 H8        15.0425    2.9411    2.5256 H         1 RES1    0.0000
     28 C13       13.4153    2.4747    3.7299 C.2       1 RES1    0.0000
     29 C14       15.3757    4.7896    4.4034 C.3       1 RES1    0.0000
     30 H9        15.6520    5.1352    3.5301 H         1 RES1    0.0000
     31 H10       15.8770    5.2482    5.1111 H         1 RES1    0.0000
     32 H11       14.4144    4.9474    4.5290 H         1 RES1    0.0000
     33 C15       15.4215    1.0583    3.3161 C.3       1 RES1    0.0000
     34 H12       14.8223    0.5438    2.7197 H         1 RES1    0.0000
     35 H13       15.3792    0.6436    4.2151 H         1 RES1    0.0000
     36 C16       16.8610    0.9557    2.7882 C.3       1 RES1    0.0000
     37 H14       16.9276    1.4234    1.9292 H         1 RES1    0.0000
     38 H15       17.0993    0.0126    2.6654 H         1 RES1    0.0000
     39 H16       17.4758    1.3669    3.4303 H         1 RES1    0.0000
     40 C17       12.3971    2.3972    2.6312 C.2       1 RES1    0.0000
     41 C18       12.0137    2.0475    0.3681 C.3       1 RES1    0.0000
     42 H17       11.2152    1.5560    0.6849 H         1 RES1    0.0000
     43 H18       11.7229    2.9473    0.0742 H         1 RES1    0.0000
     44 C19       12.5653    1.3780   -0.6963 C.3       1 RES1    0.0000
     45 H19       13.3799    1.8402   -0.9874 H         1 RES1    0.0000
     46 H20       11.9229    1.3536   -1.4355 H         1 RES1    0.0000
     47 H21       12.7915    0.4621   -0.4281 H         1 RES1    0.0000
     48 O7        11.6521    5.4730    1.4283 O.2       2 RES2    0.0000
     49 O8         9.5205    5.1128    1.3284 O.2       2 RES2    0.0000
     50 O9        10.4750    6.0650   10.2974 O.3       2 RES2    0.0000
     51 O10       11.8806    6.4769   11.9086 O.2       2 RES2    0.0000
     52 O11        6.4774    5.0374    9.1116 O.2       2 RES2    0.0000
     53 O12        6.0773    4.6765   11.2437 O.3       2 RES2    0.0000
     54 N2        10.5386    5.3488    1.9491 N.pl3     2 RES2    0.0000
     55 C20       10.4662    5.4989    3.4217 C.ar      2 RES2    0.0000
     56 C21       11.5698    5.8898    4.1095 C.ar      2 RES2    0.0000
     57 H22       12.3783    6.0957    3.6557 H         2 RES2    0.0000
     58 C22       11.4899    5.9805    5.4878 C.ar      2 RES2    0.0000
     59 H23       12.2526    6.2500    5.9844 H         2 RES2    0.0000
     60 C23       10.3072    5.6852    6.1671 C.ar      2 RES2    0.0000
     61 C24        9.1941    5.3006    5.4251 C.ar      2 RES2    0.0000
     62 H24        8.3753    5.1170    5.8674 H         2 RES2    0.0000
     63 C25        9.2682    5.1819    4.0495 C.ar      2 RES2    0.0000
     64 H25        8.5176    4.8901    3.5473 H         2 RES2    0.0000
     65 C26       10.2788    5.7976    7.6339 C.2       2 RES2    0.0000
     66 H26       11.0748    6.0811    8.0677 H         2 RES2    0.0000
     67 C27        9.2249    5.5352    8.4044 C.2       2 RES2    0.0000
     68 H27        8.4195    5.2587    7.9792 H         2 RES2    0.0000
     69 C28        9.2328    5.6469    9.8513 C.2       2 RES2    0.0000
     70 C29       10.8323    5.9819   11.6321 C.2       2 RES2    0.0000
     71 C30        9.9232    5.2224   12.5282 C.3       2 RES2    0.0000
     72 H28       10.1139    5.5037   13.4671 H         2 RES2    0.0000
     73 C31        8.4872    5.5952   12.2114 C.3       2 RES2    0.0000
     74 C32        8.2309    5.4130   10.7160 C.2       2 RES2    0.0000
     75 C33       10.2086    3.7271   12.4197 C.3       2 RES2    0.0000
     76 H29       10.0510    3.4297   11.4979 H         2 RES2    0.0000
     77 H30        9.6162    3.2363   13.0276 H         2 RES2    0.0000
     78 H31       11.1425    3.5540   12.6623 H         2 RES2    0.0000
     79 C34        8.4265    7.0228   12.7365 C.3       2 RES2    0.0000
     80 H32        8.8144    7.6580   12.0830 H         2 RES2    0.0000
     81 H33        8.9107    7.1066   13.5955 H         2 RES2    0.0000
     82 C35        6.8775    7.2811   12.9305 C.3       2 RES2    0.0000
     83 H34        6.5109    6.6123   13.5413 H         2 RES2    0.0000
     84 H35        6.4250    7.2196   12.0630 H         2 RES2    0.0000
     85 H36        6.7411    8.1781   13.3044 H         2 RES2    0.0000
     86 C36        6.8781    5.0674   10.2508 C.2       2 RES2    0.0000
     87 C37        4.7974    3.9442   10.9843 C.3       2 RES2    0.0000
     88 H37        4.5975    3.2601   11.6749 H         2 RES2    0.0000
     89 H38        4.7650    3.5344   10.0825 H         2 RES2    0.0000
     90 C38        3.9154    5.1659   11.1041 C.3       2 RES2    0.0000
     91 H39        3.9401    5.4975   12.0230 H         2 RES2    0.0000
     92 H40        2.9957    4.9299   10.8644 H         2 RES2    0.0000
     93 H41        4.2406    5.8626   10.4963 H         2 RES2    0.0000
     94 H42        8.0641    4.9495   12.6994 H         2 RES2    0.0000
     95 C39        7.9088    7.0018   12.6338 Du        5 SUP5    0.0000
     96 H43        8.4366    7.7202   12.2057 Du        5 SUP5    0.0000
     97 H44        6.9712    7.0800   12.3284 Du        5 SUP5    0.0000
     98 C40        7.9690    7.1554   14.1263 Du        5 SUP5    0.0000
     99 H45        7.6500    8.0462   14.3774 Du        5 SUP5    0.0000
    100 H46        8.8918    7.0381   14.4316 Du        5 SUP5    0.0000
    101 H47        7.3981    6.4755   14.5486 Du        5 SUP5    0.0000
    102 C41        4.6529    4.7819   10.8416 Du        5 SUP5    0.0000
    103 H48        4.4465    4.1152   10.1424 Du        5 SUP5    0.0000
    104 H49        4.4724    5.6866   10.4734 Du        5 SUP5    0.0000
    105 C42        3.8008    4.5446   12.0630 Du        5 SUP5    0.0000
    106 H50        3.8049    5.3432   12.6280 Du        5 SUP5    0.0000
    107 H51        4.1605    3.7836   12.5681 Du        5 SUP5    0.0000
    108 H52        2.8824    4.3442   11.7862 Du        5 SUP5    0.0000
    109 O13        5.3595    4.4845    3.8298 O.2       3 RES3    0.0000
    110 O14        6.1936    4.5027    5.7647 O.2       3 RES3    0.0000
    111 O15       -2.3966    3.1295    8.0971 O.3       3 RES3    0.0000
    112 O16       -4.4351    2.9418    7.3314 O.2       3 RES3    0.0000
    113 O17        0.2344    3.5791   11.4697 O.2       3 RES3    0.0000
    114 O18       -1.5756    4.1837   12.5818 O.3       3 RES3    0.0000
    115 N3         5.2564    4.4608    5.0369 N.pl3     3 RES3    0.0000
    116 C43        3.9244    4.3484    5.6334 C.ar      3 RES3    0.0000
    117 C44        2.8628    4.0336    4.8144 C.ar      3 RES3    0.0000
    118 H53        2.9832    3.9435    3.8783 H         3 RES3    0.0000
    119 C45        1.6279    3.8535    5.3766 C.ar      3 RES3    0.0000
    120 H54        0.8905    3.6377    4.8201 H         3 RES3    0.0000
    121 C46        1.4291    3.9791    6.7492 C.ar      3 RES3    0.0000
    122 C47        2.5345    4.3100    7.5426 C.ar      3 RES3    0.0000
    123 H55        2.4186    4.4161    8.4786 H         3 RES3    0.0000
    124 C48        3.7898    4.4859    6.9918 C.ar      3 RES3    0.0000
    125 H56        4.5366    4.6961    7.5397 H         3 RES3    0.0000
    126 C49        0.1177    3.7341    7.3114 C.2       3 RES3    0.0000
    127 H57       -0.5907    3.5910    6.6950 H         3 RES3    0.0000
    128 C50       -0.1980    3.6880    8.6099 C.2       3 RES3    0.0000
    129 H58        0.4981    3.8388    9.2406 H         3 RES3    0.0000
    130 C51       -1.4923    3.4304    9.1122 C.2       3 RES3    0.0000
    131 C52       -3.7483    3.2719    8.2646 C.2       3 RES3    0.0000
    132 C53       -4.2348    3.8032    9.5888 C.3       3 RES3    0.0000
    133 H59       -5.1819    3.5051    9.7172 H         3 RES3    0.0000
    134 C54       -3.3723    3.1728   10.7074 C.3       3 RES3    0.0000
    135 H60       -3.6043    3.6154   11.5750 H         3 RES3    0.0000
    136 C55       -1.9188    3.4528   10.4049 C.2       3 RES3    0.0000
    137 C56       -4.2105    5.2943    9.6116 C.3       3 RES3    0.0000
    138 H61       -4.7709    5.6420    8.8867 H         3 RES3    0.0000
    139 H62       -3.2877    5.6064    9.4917 H         3 RES3    0.0000
    140 H63       -4.5503    5.6147   10.4706 H         3 RES3    0.0000
    141 C57       -3.6393    1.6852   10.8416 C.3       3 RES3    0.0000
    142 H64       -4.6139    1.5246   10.7873 H         3 RES3    0.0000
    143 H65       -3.2130    1.2084   10.0882 H         3 RES3    0.0000
    144 C58       -3.1159    1.1190   12.1486 C.3       3 RES3    0.0000
    145 H66       -2.1410    1.2307   12.1857 H         3 RES3    0.0000
    146 H67       -3.3372    0.1661   12.2057 H         3 RES3    0.0000
    147 H68       -3.5267    1.5944   12.8992 H         3 RES3    0.0000
    148 C59       -0.9504    3.7257   11.5122 C.2       3 RES3    0.0000
    149 C60       -0.7435    4.4126   13.7838 C.3       3 RES3    0.0000
    150 H69       -0.4827    3.5477   14.1891 H         3 RES3    0.0000
    151 H70        0.0783    4.9069   13.5413 H         3 RES3    0.0000
    152 C61       -1.5428    5.1959   14.7341 C.3       3 RES3    0.0000
    153 H71       -1.7476    6.0699   14.3432 H         3 RES3    0.0000
    154 H72       -1.0327    5.3208   15.5617 H         3 RES3    0.0000
    155 H73       -2.3761    4.7191   14.9311 H         3 RES3    0.0000
    156 O19        0.2683    0.5026   12.7211 O.2       4 RES4    0.0000
    157 O20        2.3442    1.0611   12.6098 O.2       4 RES4    0.0000
    158 O21        0.8317    0.6311    3.6634 O.3       4 RES4    0.0000
    159 O22       -0.5849    0.7484    1.9837 O.2       4 RES4    0.0000
    160 O23        4.9107    0.7798    4.9953 O.2       4 RES4    0.0000
    161 O24        5.4638    0.9522    2.8723 O.3       4 RES4    0.0000
    162 N4         1.2899    0.7309   12.0858 N.pl3     4 RES4    0.0000
    163 C62        1.2260    0.6485   10.6218 C.ar      4 RES4    0.0000
    164 C63        0.0695    0.2157   10.0197 C.ar      4 RES4    0.0000
    165 H74       -0.6809   -0.0398   10.5419 H         4 RES4    0.0000
    166 C64        0.0210    0.1578    8.6242 C.ar      4 RES4    0.0000
    167 H75       -0.7799   -0.1187    8.1904 H         4 RES4    0.0000
    168 C65        1.1399    0.5026    7.8565 C.ar      4 RES4    0.0000
    169 C66        2.2964    0.8977    8.5214 C.ar      4 RES4    0.0000
    170 H76        3.0664    1.1169    8.0135 H         4 RES4    0.0000
    171 C67        2.3560    0.9801    9.8970 C.ar      4 RES4    0.0000
    172 H77        3.1536    1.2566   10.3364 H         4 RES4    0.0000
    173 C68        1.0640    0.4503    6.3896 C.2       4 RES4    0.0000
    174 H78        0.2122    0.3379    5.9816 H         4 RES4    0.0000
    175 C69        2.1402    0.5543    5.6077 C.2       4 RES4    0.0000
    176 H79        2.9863    0.5990    6.0386 H         4 RES4    0.0000
    177 C70        2.1303    0.6052    4.1665 C.2       4 RES4    0.0000
    178 C71        0.5458    0.5375    2.3173 C.2       4 RES4    0.0000
    179 C72        1.6601    0.0935    1.4212 C.3       4 RES4    0.0000
    180 H80        1.4358    0.3819    0.4909 H         4 RES4    0.0000
    181 C73        2.9780    0.7840    1.8264 C.3       4 RES4    0.0000
    182 H81        3.7213    0.2730    1.3927 H         4 RES4    0.0000
    183 C74        3.1911    0.6918    3.3161 C.2       4 RES4    0.0000
    184 C75        1.7490   -1.4262    1.4298 C.3       4 RES4    0.0000
    185 H82        1.9589   -1.7361    2.3344 H         4 RES4    0.0000
    186 H83        2.4518   -1.7159    0.8105 H         4 RES4    0.0000
    187 H84        0.8914   -1.8053    1.1472 H         4 RES4    0.0000
    188 C76        3.0715    2.2157    1.3213 C.3       4 RES4    0.0000
    189 H85        3.8083    2.6758    1.7950 H         4 RES4    0.0000
    190 H86        2.2320    2.6890    1.5382 H         4 RES4    0.0000
    191 C77        3.3157    2.3100   -0.1855 C.3       4 RES4    0.0000
    192 H87        4.1711    1.8827   -0.4052 H         4 RES4    0.0000
    193 H88        3.3430    3.2524   -0.4509 H         4 RES4    0.0000
    194 H89        2.5910    1.8555   -0.6621 H         4 RES4    0.0000
    195 C78        4.5823    0.7867    3.8469 C.2       4 RES4    0.0000
    196 C79        6.8393    1.1616    3.2819 C.3       4 RES4    0.0000
    197 H90        6.8800    1.9225    3.9126 H         4 RES4    0.0000
    198 H91        7.1663    0.3553    3.7527 H         4 RES4    0.0000
    199 C80        7.6861    1.4290    2.1774 C.3       4 RES4    0.0000
    200 H92        7.7292    0.6367    1.6010 H         4 RES4    0.0000
    201 H93        8.5826    1.6496    2.4999 H         4 RES4    0.0000
    202 H94        7.3277    2.1843    1.6666 H         4 RES4    0.0000
@<TRIPOS>BOND
     1    1    7 2
     2    2    7 2
     3    3   22 1
     4    4   23 2
     5    5   40 2
     6    6   40 1
     7    7    8 1
     8    8    9 ar
     9    9   10 1
    10   11    9 ar
    11   12   11 1
    12   13   11 ar
    13   14   13 ar
    14   15   14 1
    15   16    8 ar
    16   17   16 1
    17   18   13 1
    18   19   18 1
    19   20   18 2
    20   21   20 1
    21   22   20 1
    22   23    3 1
    23   24   23 1
    24   25   24 1
    25   26   24 1
    26   27   26 1
    27   28   22 2
    28   29   24 1
    29   30   29 1
    30   31   29 1
    31   32   29 1
    32   33   26 1
    33   34   33 1
    34   35   33 1
    35   36   33 1
    36   37   36 1
    37   38   36 1
    38   39   36 1
    39   40   28 1
    40   41    6 1
    41   42   41 1
    42   43   41 1
    43   44   41 1
    44   45   44 1
    45   46   44 1
    46   47   44 1
    47   48   54 2
    48   49   54 2
    49   50   69 1
    50   51   70 2
    51   52   86 2
    52   53   86 1
    53   54   55 1
    54   55   56 ar
    55   56   57 1
    56   58   56 ar
    57   59   58 1
    58   60   58 ar
    59   61   60 ar
    60   62   61 1
    61   63   55 ar
    62   64   63 1
    63   65   60 1
    64   66   65 1
    65   67   65 2
    66   68   67 1
    67   69   67 1
    68   70   50 1
    69   71   70 1
    70   72   71 1
    71   73   71 1
    72   74   69 2
    73   75   71 1
    74   76   75 1
    75   77   75 1
    76   78   75 1
    77   79   73 1
    78   80   79 1
    79   81   79 1
    80   82   79 1
    81   83   82 1
    82   84   82 1
    83   85   82 1
    84   86   74 1
    85   87   53 1
    86   88   87 1
    87   89   87 1
    88   90   87 1
    89   91   90 1
    90   92   90 1
    91   93   90 1
    92   94   73 1
    93  109  115 2
    94  110  115 2
    95  111  130 1
    96  112  131 2
    97  113  148 2
    98  114  148 1
    99  115  116 1
   100  116  117 ar
   101  117  118 1
   102  119  117 ar
   103  120  119 1
   104  121  119 ar
   105  122  121 ar
   106  123  122 1
   107  124  116 ar
   108  125  124 1
   109  126  121 1
   110  127  126 1
   111  128  126 2
   112  129  128 1
   113  130  128 1
   114  131  111 1
   115  132  131 1
   116  133  132 1
   117  134  132 1
   118  135  134 1
   119  136  130 2
   120  137  132 1
   121  138  137 1
   122  139  137 1
   123  140  137 1
   124  141  134 1
   125  142  141 1
   126  143  141 1
   127  144  141 1
   128  145  144 1
   129  146  144 1
   130  147  144 1
   131  148  136 1
   132  149  114 1
   133  150  149 1
   134  151  149 1
   135  152  149 1
   136  153  152 1
   137  154  152 1
   138  155  152 1
   139  156  162 2
   140  157  162 2
   141  158  177 1
   142  159  178 2
   143  160  195 2
   144  161  195 1
   145  162  163 1
   146  163  164 ar
   147  164  165 1
   148  166  164 ar
   149  167  166 1
   150  168  166 ar
   151  169  168 ar
   152  170  169 1
   153  171  163 ar
   154  172  171 1
   155  173  168 1
   156  174  173 1
   157  175  173 2
   158  176  175 1
   159  177  175 1
   160  178  158 1
   161  179  178 1
   162  180  179 1
   163  181  179 1
   164  182  181 1
   165  183  177 2
   166  184  179 1
   167  185  184 1
   168  186  184 1
   169  187  184 1
   170  188  181 1
   171  189  188 1
   172  190  188 1
   173  191  188 1
   174  192  191 1
   175  193  191 1
   176  194  191 1
   177  195  183 1
   178  196  161 1
   179  197  196 1
   180  198  196 1
   181  199  196 1
   182  200  199 1
   183  201  199 1
   184  202  199 1
   185   14   16 ar
   186   26   28 1
   187   61   63 ar
   188   73   74 1
   189  122  124 ar
   190  134  136 1
   191  169  171 ar
   192  181  183 1
@<TRIPOS>SUBSTRUCTURE
     1 RES1 1
     2 RES2 48
     3 RES3 109
     4 RES4 156
     5 SUP5 95

@<TRIPOS>CRYSIN
  37.1180    6.9809   29.3200  90.0000 103.2630  90.0000   5 1

