# MOL2 file generated by ConQuest
# Please check atom types

@<TRIPOS>MOLECULE
IYOHIP
    51    53     1
SMALL
NO_CHARGES
****
Generated from CSD

@<TRIPOS>ATOM
      1 C1         6.3958    5.1620    0.6827 C.3       1 RES1    0.0000
      2 H1         7.2968    5.5428    0.6288 H         1 RES1    0.0000
      3 C2         5.7673    5.6696    1.9948 C.3       1 RES1    0.0000
      4 H2         5.9333    6.6348    2.0195 H         1 RES1    0.0000
      5 O1         3.8611    7.4897    0.7795 O.3       1 RES1    0.0000
      6 H3         3.8013    7.7830    0.0172 H         1 RES1    0.0000
      7 C3         4.1317    5.4061   -0.4876 C.3       1 RES1    0.0000
      8 H4         3.9200    4.4497   -0.4528 H         1 RES1    0.0000
      9 N1         6.5507    3.6709    0.7475 N.pl3     1 RES1    0.0000
     10 C4         6.4869    5.0894    3.2020 C.ar      1 RES1    0.0000
     11 C5         6.2671    4.9217   -1.8381 C.ar      1 RES1    0.0000
     12 C6         3.5600    6.0881    0.7775 C.3       1 RES1    0.0000
     13 C7         5.6605    5.5713   -0.5928 C.3       1 RES1    0.0000
     14 H5         5.8172    6.5331   -0.6932 H         1 RES1    0.0000
     15 C8         4.2431    5.5007    2.0311 C.3       1 RES1    0.0000
     16 H6         4.0326    4.5450    2.0860 H         1 RES1    0.0000
     17 O2         5.5506    2.9770    0.8484 O.2       1 RES1    0.0000
     18 O3         3.5900    7.2004   -1.9388 O.2       1 RES1    0.0000
     19 C9         3.4869    6.0060   -1.7334 C.2       1 RES1    0.0000
     20 O4         7.6804    3.2276    0.7076 O.2       1 RES1    0.0000
     21 C10        3.7338    6.1868    3.2827 C.2       1 RES1    0.0000
     22 H7         3.9737    7.0765    3.4037 H         1 RES1    0.0000
     23 C11        5.9038    3.6495   -2.2581 C.ar      1 RES1    0.0000
     24 H8         5.2506    3.1808   -1.7920 H         1 RES1    0.0000
     25 C12        6.8273    3.3633    4.8495 C.ar      1 RES1    0.0000
     26 H9         6.5553    2.5654    5.2429 H         1 RES1    0.0000
     27 C13        7.2310    5.5891   -2.5558 C.ar      1 RES1    0.0000
     28 H10        7.4866    6.4431   -2.2920 H         1 RES1    0.0000
     29 O5         3.0623    5.6980    4.1179 O.2       1 RES1    0.0000
     30 C14        6.5042    3.0706   -3.3623 C.ar      1 RES1    0.0000
     31 H11        6.2633    2.2127   -3.6291 H         1 RES1    0.0000
     32 C15        7.6243    5.7206    3.6894 C.ar      1 RES1    0.0000
     33 H12        7.9024    6.5215    3.3071 H         1 RES1    0.0000
     34 C16        6.0988    3.8989    3.8074 C.ar      1 RES1    0.0000
     35 H13        5.3373    3.4583    3.5067 H         1 RES1    0.0000
     36 C17        7.8262    5.0143   -3.6604 C.ar      1 RES1    0.0000
     37 H14        8.4811    5.4792   -4.1291 H         1 RES1    0.0000
     38 C18        8.3451    5.1816    4.7274 C.ar      1 RES1    0.0000
     39 H15        9.1039    5.6191    5.0390 H         1 RES1    0.0000
     40 C19        7.9518    4.0027    5.3069 C.ar      1 RES1    0.0000
     41 H16        8.4447    3.6384    6.0069 H         1 RES1    0.0000
     42 C20        7.4562    3.7686   -4.0649 C.ar      1 RES1    0.0000
     43 H17        7.8487    3.3884   -4.8180 H         1 RES1    0.0000
     44 C21        2.0479    5.8817    0.8546 C.3       1 RES1    0.0000
     45 H18        1.7057    6.3139    1.6396 H         1 RES1    0.0000
     46 H19        1.8556    4.9422    0.8971 H         1 RES1    0.0000
     47 H20        1.6338    6.2578    0.0751 H         1 RES1    0.0000
     48 C22        2.7089    5.1149   -2.6446 C.3       1 RES1    0.0000
     49 H21        2.4057    5.6191   -3.4037 H         1 RES1    0.0000
     50 H22        1.9518    4.7590   -2.1740 H         1 RES1    0.0000
     51 H23        3.2694    4.3946   -2.9423 H         1 RES1    0.0000
@<TRIPOS>BOND
     1    1    2 1
     2    3    1 1
     3    4    3 1
     4    5    6 1
     5    7    8 1
     6    9    1 1
     7   10    3 1
     8   11   13 1
     9   12    5 1
    10   13    1 1
    11   14   13 1
    12   15    3 1
    13   16   15 1
    14   17    9 2
    15   18   19 2
    16   19    7 1
    17   20    9 2
    18   21   15 1
    19   22   21 1
    20   23   11 ar
    21   24   23 1
    22   25   26 1
    23   27   11 ar
    24   28   27 1
    25   29   21 2
    26   30   23 ar
    27   31   30 1
    28   32   10 ar
    29   33   32 1
    30   34   10 ar
    31   35   34 1
    32   36   27 ar
    33   37   36 1
    34   38   32 ar
    35   39   38 1
    36   40   25 ar
    37   41   40 1
    38   42   30 ar
    39   43   42 1
    40   44   12 1
    41   45   44 1
    42   46   44 1
    43   47   44 1
    44   48   19 1
    45   49   48 1
    46   50   48 1
    47   51   48 1
    48    7   12 1
    49    7   13 1
    50   12   15 1
    51   25   34 ar
    52   36   42 ar
    53   38   40 ar
@<TRIPOS>SUBSTRUCTURE
     1 RES1 1

@<TRIPOS>CRYSIN
   8.6630   10.5920   21.4610  90.0000  90.0000  90.0000  19 1

