# MOL2 file generated by ConQuest
# Please check atom types

@<TRIPOS>MOLECULE
IYOZIG
    98    94     3
SMALL
NO_CHARGES
****
Generated from CSD

@<TRIPOS>ATOM
      1 O1         3.4867   12.3950    3.0428 O.2       1 RES1    0.0000
      2 C1         3.4370   12.4846    4.2593 C.2       1 RES1    0.0000
      3 N1         3.9672   11.6466    5.1625 N.am      1 RES1    0.0000
      4 C2         3.7373   12.0059    6.5586 C.3       1 RES1    0.0000
      5 C3         3.2249   13.4435    6.4903 C.3       1 RES1    0.0000
      6 C4         2.7100   13.6136    5.0389 C.3       1 RES1    0.0000
      7 C5         3.1393   14.9000    4.3312 C.2       1 RES1    0.0000
      8 O2         4.3965   15.2240    4.6695 O.3       1 RES1    0.0000
      9 C6         5.0018   16.3407    3.9606 C.3       1 RES1    0.0000
     10 O3         2.4734   15.4978    3.5283 O.2       1 RES1    0.0000
     11 C7         1.1822   13.4278    4.8422 C.3       1 RES1    0.0000
     12 C8         0.7380   12.0343    5.1936 C.2       1 RES1    0.0000
     13 C9         0.1913   11.5824    6.3511 C.2       1 RES1    0.0000
     14 O4        -0.0349   10.2339    6.2873 O.3       1 RES1    0.0000
     15 C10        0.3823    9.8472    5.0497 C.2       1 RES1    0.0000
     16 C11        0.8611   10.8880    4.3624 C.2       1 RES1    0.0000
     17 C12        0.4108   14.4985    5.6123 C.3       1 RES1    0.0000
     18 N2        -1.0342   14.4794    5.2152 N.pl3     1 RES1    0.0000
     19 O5        -1.3089   14.4402    4.0310 O.2       1 RES1    0.0000
     20 O6        -1.8683   14.5040    6.1079 O.2       1 RES1    0.0000
     21 C13        5.1183   11.6879    7.1152 C.3       1 RES1    0.0000
     22 O7         5.4916   10.5056    6.3791 O.3       1 RES1    0.0000
     23 C14        5.0668   10.6707    5.0017 C.3       1 RES1    0.0000
     24 C15        4.5555    9.3402    4.5291 C.3       1 RES1    0.0000
     25 C16        6.1722   11.2344    4.1597 C.3       1 RES1    0.0000
     26 O8         7.5495    5.7635    3.0866 O.2       2 RES2    0.0000
     27 C17        7.6993    5.6290    1.8652 C.2       2 RES2    0.0000
     28 N3         8.3379    6.4580    1.0387 N.am      2 RES2    0.0000
     29 C18        8.3632    6.0415   -0.3682 C.3       2 RES2    0.0000
     30 C19        7.8243    4.6008   -0.3310 C.3       2 RES2    0.0000
     31 C20        7.1221    4.4623    1.0471 C.3       2 RES2    0.0000
     32 C21        7.5033    3.1774    1.7896 C.2       2 RES2    0.0000
     33 O9         6.7291    2.4520    2.3377 O.2       2 RES2    0.0000
     34 O10        8.8221    3.0088    1.7848 O.3       2 RES2    0.0000
     35 C22        9.3357    1.8359    2.4769 C.3       2 RES2    0.0000
     36 C23        5.5720    4.6040    1.0435 C.3       2 RES2    0.0000
     37 C24        4.9469    3.5679    0.1283 C.3       2 RES2    0.0000
     38 N4         3.4631    3.4687    0.3562 N.pl3     2 RES2    0.0000
     39 O11        2.7570    3.3018   -0.6069 O.2       2 RES2    0.0000
     40 O12        3.0431    3.5711    1.4741 O.2       2 RES2    0.0000
     41 C25        9.8158    6.3108   -0.6693 C.3       2 RES2    0.0000
     42 O13       10.0539    7.5377    0.0468 O.3       2 RES2    0.0000
     43 C26        9.3575    7.4933    1.3002 C.3       2 RES2    0.0000
     44 C27        8.7152    8.8411    1.5185 C.3       2 RES2    0.0000
     45 C28       10.2918    7.0760    2.4205 C.3       2 RES2    0.0000
     46 H1         3.0663   11.4218    6.9532 H         1 RES1    0.0000
     47 H2         3.9239   14.0843    6.6798 H         1 RES1    0.0000
     48 H3         2.5411   13.5836    7.1188 H         1 RES1    0.0000
     49 H4         5.6952   16.7123    4.5124 H         1 RES1    0.0000
     50 H5         4.3232   16.9847    3.7411 H         1 RES1    0.0000
     51 H6         5.4074   15.9974    3.1510 H         1 RES1    0.0000
     52 H7         0.9899   13.5553    3.8814 H         1 RES1    0.0000
     53 H8        -0.0106   12.0941    7.0960 H         1 RES1    0.0000
     54 H9         0.3343    8.9560    4.7750 H         1 RES1    0.0000
     55 H10        1.2155   10.8455    3.4880 H         1 RES1    0.0000
     56 H11        0.7535   15.3755    5.3556 H         1 RES1    0.0000
     57 H12        0.4651   14.3662    6.5574 H         1 RES1    0.0000
     58 H13        5.7419   12.4169    6.9449 H         1 RES1    0.0000
     59 H14        5.0902   11.4674    8.0759 H         1 RES1    0.0000
     60 H15        5.2715    8.7010    4.5831 H         1 RES1    0.0000
     61 H16        3.8183    9.0600    5.1049 H         1 RES1    0.0000
     62 H17        4.2490    9.4064    3.5852 H         1 RES1    0.0000
     63 H18        6.8807   10.5731    4.1645 H         1 RES1    0.0000
     64 H19        6.4915   12.0752    4.5267 H         1 RES1    0.0000
     65 H20        5.8499   11.3714    3.2625 H         1 RES1    0.0000
     66 H21        7.7734    6.6289   -0.9044 H         2 RES2    0.0000
     67 H22        8.5581    3.9679   -0.3934 H         2 RES2    0.0000
     68 H23        7.2177    4.4465   -1.0603 H         2 RES2    0.0000
     69 H24       10.2670    1.7619    2.2262 H         2 RES2    0.0000
     70 H25        9.2608    1.9509    3.4256 H         2 RES2    0.0000
     71 H26        8.8545    1.0597    2.1998 H         2 RES2    0.0000
     72 H27        5.2653    4.3993    1.9467 H         2 RES2    0.0000
     73 H28        5.1275    3.8088   -0.7916 H         2 RES2    0.0000
     74 H29        5.3408    2.6941    0.3227 H         2 RES2    0.0000
     75 H30       10.0153    6.4383   -1.6133 H         2 RES2    0.0000
     76 H31       10.3869    5.5960   -0.3418 H         2 RES2    0.0000
     77 H32        9.4034    9.5150    1.5869 H         2 RES2    0.0000
     78 H33        8.1292    9.0521    0.7832 H         2 RES2    0.0000
     79 H34        8.2104    8.8427    2.3569 H         2 RES2    0.0000
     80 H35       10.9345    7.7814    2.5680 H         2 RES2    0.0000
     81 H36       10.7365    6.2683    2.1938 H         2 RES2    0.0000
     82 H37        9.7711    6.9201    3.2217 H         2 RES2    0.0000
     83 C29        4.7283    6.9595    1.5713 C.2       2 RES2    0.0000
     84 O14        4.3107    8.0822    0.9068 O.3       2 RES2    0.0000
     85 C30        4.2318    7.7799   -0.4150 C.2       2 RES2    0.0000
     86 C31        4.7059    6.5360   -0.5937 C.2       2 RES2    0.0000
     87 C32        5.0846    6.0072    0.6873 C.2       2 RES2    0.0000
     88 H38        4.7040    6.8446    2.5225 H         2 RES2    0.0000
     89 H39        3.8535    8.3372   -1.0735 H         2 RES2    0.0000
     90 H40        4.7366    6.0872   -1.3998 H         2 RES2    0.0000
     91 C33        5.1252    5.9875    0.7329 Du        3 SUP3    0.0000
     92 C34        5.0652    7.0729    1.6612 Du        3 SUP3    0.0000
     93 C35        4.7466    8.1877    0.9860 Du        3 SUP3    0.0000
     94 C36        5.0184    6.5690   -0.4798 Du        3 SUP3    0.0000
     95 H41        5.2562    7.0335    2.5908 Du        3 SUP3    0.0000
     96 H42        4.5655    9.0253    1.3530 Du        3 SUP3    0.0000
     97 H43        5.2157    6.1628   -1.2918 Du        3 SUP3    0.0000
     98 O15        4.6659    7.8775   -0.3358 Du        3 SUP3    0.0000
@<TRIPOS>BOND
     1    1    2 2
     2    2    3 1
     3    3    4 1
     4    4    5 1
     5    5    6 1
     6    6    2 1
     7    7    6 1
     8    8    7 1
     9    9    8 1
    10   10    7 2
    11   11    6 1
    12   12   11 1
    13   13   12 2
    14   14   13 1
    15   15   14 1
    16   16   12 1
    17   17   11 1
    18   18   17 1
    19   19   18 2
    20   20   18 2
    21   21    4 1
    22   22   21 1
    23   23    3 1
    24   24   23 1
    25   25   23 1
    26   26   27 2
    27   27   28 1
    28   28   29 1
    29   29   30 1
    30   30   31 1
    31   31   27 1
    32   32   31 1
    33   33   32 2
    34   34   32 1
    35   35   34 1
    36   36   31 1
    37   37   36 1
    38   38   37 1
    39   39   38 2
    40   40   38 2
    41   41   29 1
    42   42   41 1
    43   43   28 1
    44   44   43 1
    45   45   43 1
    46   46    4 1
    47   47    5 1
    48   48    5 1
    49   49    9 1
    50   50    9 1
    51   51    9 1
    52   52   11 1
    53   53   13 1
    54   54   15 1
    55   55   16 1
    56   56   17 1
    57   57   17 1
    58   58   21 1
    59   59   21 1
    60   60   24 1
    61   61   24 1
    62   62   24 1
    63   63   25 1
    64   64   25 1
    65   65   25 1
    66   66   29 1
    67   67   30 1
    68   68   30 1
    69   69   35 1
    70   70   35 1
    71   71   35 1
    72   72   36 1
    73   73   37 1
    74   74   37 1
    75   75   41 1
    76   76   41 1
    77   77   44 1
    78   78   44 1
    79   79   44 1
    80   80   45 1
    81   81   45 1
    82   82   45 1
    83   83   84 1
    84   84   85 1
    85   85   86 2
    86   86   87 1
    87   87   36 1
    88   88   83 1
    89   89   85 1
    90   90   86 1
    91   15   16 2
    92   22   23 1
    93   42   43 1
    94   83   87 2
@<TRIPOS>SUBSTRUCTURE
     1 RES1 1
     2 RES2 26
     3 SUP3 91

@<TRIPOS>CRYSIN
   9.0669   15.7455   12.0613  90.0000  96.0302  90.0000   4 1

