# MOL2 file generated by ConQuest
# Please check atom types

@<TRIPOS>MOLECULE
IYUGUG
    58    55     2
SMALL
NO_CHARGES
****
Generated from CSD

@<TRIPOS>ATOM
      1 O1         1.7094    0.0491    2.2081 O.3       1 RES1    0.0000
      2 O2         2.7854    2.9397   -1.8985 O.3       1 RES1    0.0000
      3 O3         5.2019    2.7148   -0.3131 O.3       1 RES1    0.0000
      4 N1         1.1689   -1.8347    0.9313 N.3       1 RES1    0.0000
      5 N2         1.0643   -2.2418   -0.3652 N.2       1 RES1    0.0000
      6 N3         2.3714    1.5887   -1.8497 N.2       1 RES1    0.0000
      7 C1        11.4336    4.0702   -0.6268 C.3       1 RES1    0.0000
      8 H1        12.3741    3.9223   -0.4972 H         1 RES1    0.0000
      9 H2        11.1716    4.8768   -0.1784 H         1 RES1    0.0000
     10 H3        11.2491    4.1514   -1.5650 H         1 RES1    0.0000
     11 C2         1.4393   -1.1958   -1.0927 C.2       1 RES1    0.0000
     12 C3         1.7874   -0.0989   -0.2774 C.2       1 RES1    0.0000
     13 C4         1.5977   -0.5725    1.0011 C.2       1 RES1    0.0000
     14 C5         2.9218   -0.0439    2.8836 C.ar      1 RES1    0.0000
     15 C6         4.0411   -0.6236    2.3462 C.ar      1 RES1    0.0000
     16 H4         4.0252   -0.9798    1.4873 H         1 RES1    0.0000
     17 C7         5.1940   -0.6672    3.1068 C.ar      1 RES1    0.0000
     18 H5         5.9593   -1.0651    2.7600 H         1 RES1    0.0000
     19 C8         5.2195   -0.1267    4.3753 C.ar      1 RES1    0.0000
     20 H6         5.9996   -0.1564    4.8799 H         1 RES1    0.0000
     21 C9         4.0910    0.4518    4.8865 C.ar      1 RES1    0.0000
     22 H7         4.1078    0.8170    5.7421 H         1 RES1    0.0000
     23 C10        2.9297    0.5002    4.1480 C.ar      1 RES1    0.0000
     24 H8         2.1635    0.8944    4.4976 H         1 RES1    0.0000
     25 C11        2.2182    1.2386   -0.6321 C.2       1 RES1    0.0000
     26 C12        2.4952    2.3215    0.3601 C.3       1 RES1    0.0000
     27 H9         3.1864    2.0591    0.9885 H         1 RES1    0.0000
     28 H10        1.6937    2.5680    0.8490 H         1 RES1    0.0000
     29 C13        2.9647    3.4490   -0.5434 C.3       1 RES1    0.0000
     30 H11        2.3807    4.2257   -0.4146 H         1 RES1    0.0000
     31 C14        4.3866    3.8774   -0.3766 C.3       1 RES1    0.0000
     32 H12        4.6567    4.4312   -1.1256 H         1 RES1    0.0000
     33 H13        4.4839    4.3964    0.4377 H         1 RES1    0.0000
     34 C15        6.5665    2.8912   -0.2734 C.ar      1 RES1    0.0000
     35 C16        7.2953    1.8414    0.2172 C.ar      1 RES1    0.0000
     36 H14        6.8577    1.0793    0.5228 H         1 RES1    0.0000
     37 C17        8.6642    1.9041    0.2626 C.ar      1 RES1    0.0000
     38 H15        9.1456    1.1852    0.6053 H         1 RES1    0.0000
     39 C18        9.3355    3.0157   -0.1916 C.ar      1 RES1    0.0000
     40 C19        8.6094    4.0604   -0.6896 C.ar      1 RES1    0.0000
     41 H16        9.0462    4.8152   -1.0133 H         1 RES1    0.0000
     42 C20        7.2296    4.0031   -0.7144 C.ar      1 RES1    0.0000
     43 H17        6.7450    4.7298   -1.0348 H         1 RES1    0.0000
     44 O4        10.7066    2.9774   -0.0950 O.3       1 RES1    0.0000
     45 C21        0.8254   -2.7244    2.0250 C.3       1 RES1    0.0000
     46 H18        0.5479   -3.5731    1.6723 H         1 RES1    0.0000
     47 H19        0.1093   -2.3404    2.5362 H         1 RES1    0.0000
     48 H20        1.5919   -2.8477    2.5898 H         1 RES1    0.0000
     49 C22        1.4374   -1.2867   -2.5799 C.3       1 RES1    0.0000
     50 H21        1.7326   -0.4520   -2.9524 H         1 RES1    0.0000
     51 H22        0.5479   -1.4776   -2.8880 H         1 RES1    0.0000
     52 H23        2.0303   -1.9880   -2.8582 H         1 RES1    0.0000
     53 H24        0.9505   -2.2677    2.8599 Du        2 SUP2    0.0000
     54 H25        1.3906   -3.5004    1.9961 Du        2 SUP2    0.0000
     55 H26       -0.0919   -2.9931    1.9424 Du        2 SUP2    0.0000
     56 H27        1.1418   -2.1603   -2.8467 Du        2 SUP2    0.0000
     57 H28        2.3250   -1.1347   -2.9111 Du        2 SUP2    0.0000
     58 H29        0.8439   -0.6242   -2.9400 Du        2 SUP2    0.0000
@<TRIPOS>BOND
     1    1   13 1
     2    2    6 1
     3    3   31 1
     4    4    5 1
     5    5   11 2
     6    6   25 2
     7    7    8 1
     8    9    7 1
     9   10    7 1
    10   11   12 1
    11   12   13 2
    12   13    4 1
    13   14    1 1
    14   15   14 ar
    15   16   15 1
    16   17   15 ar
    17   18   17 1
    18   19   17 ar
    19   20   19 1
    20   21   19 ar
    21   22   21 1
    22   23   14 ar
    23   24   23 1
    24   25   12 1
    25   26   25 1
    26   27   26 1
    27   28   26 1
    28   29    2 1
    29   30   29 1
    30   31   29 1
    31   32   31 1
    32   33   31 1
    33   34    3 1
    34   35   34 ar
    35   36   35 1
    36   37   35 ar
    37   38   37 1
    38   39   37 ar
    39   40   39 ar
    40   41   40 1
    41   42   34 ar
    42   43   42 1
    43   44    7 1
    44   45    4 1
    45   46   45 1
    46   47   45 1
    47   48   45 1
    48   49   11 1
    49   50   49 1
    50   51   49 1
    51   52   49 1
    52   21   23 ar
    53   26   29 1
    54   39   44 1
    55   40   42 ar
@<TRIPOS>SUBSTRUCTURE
     1 RES1 1
     2 SUP2 53

@<TRIPOS>CRYSIN
  15.7150   15.8030    8.4108  90.0000 100.9220  90.0000  14 1

