# MOL2 file generated by ConQuest
# Please check atom types

@<TRIPOS>MOLECULE
IZAKAV
    26    27     1
SMALL
NO_CHARGES
****
Generated from CSD

@<TRIPOS>ATOM
      1 O1         3.2926    0.0701    5.5279 O.2       1 RES1    0.0000
      2 O2         8.8324    1.4197    6.8795 O.2       1 RES1    0.0000
      3 O3         9.3473   -0.4481    7.8249 O.2       1 RES1    0.0000
      4 O4         8.5589   -3.5773    3.9827 O.2       1 RES1    0.0000
      5 O5         8.0802   -1.9001    2.7048 O.2       1 RES1    0.0000
      6 O6         5.3124   -2.5430    3.1558 O.2       1 RES1    0.0000
      7 O7         3.3595   -2.0147    3.8684 O.2       1 RES1    0.0000
      8 N1         7.3805   -0.2304    6.8394 N.3       1 RES1    0.0000
      9 N2         8.5996    0.2621    7.1918 N.pl3     1 RES1    0.0000
     10 N3         7.4468   -1.9001    4.8269 N.3       1 RES1    0.0000
     11 N4         8.0564   -2.4931    3.7613 N.pl3     1 RES1    0.0000
     12 N5         5.1606   -1.1246    4.7946 N.am      1 RES1    0.0000
     13 N6         4.5541   -1.9311    3.8792 N.pl3     1 RES1    0.0000
     14 N7         5.4400    0.7540    5.8732 N.am      1 RES1    0.0000
     15 H1         5.2468    1.4015    6.2855 H         1 RES1    0.0000
     16 C1         6.7796    0.3039    5.6463 C.3       1 RES1    0.0000
     17 H2         7.3403    1.0444    5.2739 H         1 RES1    0.0000
     18 C2         7.0713   -1.6091    7.1700 C.3       1 RES1    0.0000
     19 H3         6.0894   -1.7148    7.2541 H         1 RES1    0.0000
     20 H4         7.4802   -1.8375    8.0419 H         1 RES1    0.0000
     21 C3         7.5862   -2.5504    6.1158 C.3       1 RES1    0.0000
     22 H5         8.5372   -2.7653    6.2867 H         1 RES1    0.0000
     23 H6         7.0676   -3.3933    6.1299 H         1 RES1    0.0000
     24 C4         6.5837   -0.8059    4.5950 C.3       1 RES1    0.0000
     25 H7         6.7296   -0.4400    3.6755 H         1 RES1    0.0000
     26 C5         4.4754   -0.0451    5.4276 C.2       1 RES1    0.0000
@<TRIPOS>BOND
     1    1   26 2
     2    2    9 2
     3    3    9 2
     4    4   11 2
     5    5   11 2
     6    6   13 2
     7    7   13 2
     8    8    9 1
     9   10   11 1
    10   12   13 1
    11   14   15 1
    12   16    8 1
    13   17   16 1
    14   18    8 1
    15   19   18 1
    16   20   18 1
    17   21   10 1
    18   22   21 1
    19   23   21 1
    20   24   10 1
    21   25   24 1
    22   26   12 1
    23   12   24 1
    24   14   16 1
    25   14   26 1
    26   16   24 1
    27   18   21 1
@<TRIPOS>SUBSTRUCTURE
     1 RES1 1

@<TRIPOS>CRYSIN
  23.6070    6.7381   12.7583  90.0000 110.2150  90.0000  15 1

