# MOL2 file generated by ConQuest
# Please check atom types

@<TRIPOS>MOLECULE
IZEDUM
    38    38     2
SMALL
NO_CHARGES
****
Generated from CSD

@<TRIPOS>ATOM
      1 O1         1.3892    7.9872    6.2594 O.2       1 RES1    0.0000
      2 O2         0.5461    6.0692    5.6884 O.2       1 RES1    0.0000
      3 N1         1.1080    6.8087    6.4958 N.pl3     1 RES1    0.0000
      4 N2         1.2396    9.2172    9.8736 N.2       1 RES1    0.0000
      5 N3         0.7214   10.5037    9.8053 N.3       1 RES1    0.0000
      6 C1         1.4204    7.0443    8.9377 C.ar      1 RES1    0.0000
      7 C2         1.4824    6.2456    7.7980 C.ar      1 RES1    0.0000
      8 C3         1.9100    4.9327    7.8112 C.ar      1 RES1    0.0000
      9 C4         2.3296    4.3751    9.0054 C.ar      1 RES1    0.0000
     10 C5         2.3091    5.1515   10.1584 C.ar      1 RES1    0.0000
     11 C6         1.8451    6.4463   10.1267 C.ar      1 RES1    0.0000
     12 C7         0.8864    8.4144    8.9475 C.2       1 RES1    0.0000
     13 O3         1.8950   13.5381   15.6475 O.2       2 RES2    0.0000
     14 O4         2.7294   15.5424   15.6106 O.2       2 RES2    0.0000
     15 N4         2.1587   14.5903   15.0704 N.pl3     2 RES2    0.0000
     16 N5         1.8484   11.3023   12.4983 N.2       2 RES2    0.0000
     17 N6         2.3336   10.0618   12.8784 N.3       2 RES2    0.0000
     18 C8         1.7498   13.6523   12.7969 C.ar      2 RES2    0.0000
     19 C9         1.7586   14.7478   13.6623 C.ar      2 RES2    0.0000
     20 C10        1.3643   16.0162   13.2891 C.ar      2 RES2    0.0000
     21 C11        0.8901   16.2113   12.0036 C.ar      2 RES2    0.0000
     22 C12        0.8417   15.1562   11.1230 C.ar      2 RES2    0.0000
     23 C13        1.2792   13.8990   11.5000 C.ar      2 RES2    0.0000
     24 C14        2.2507   12.3170   13.1598 C.2       2 RES2    0.0000
     25 H1         0.2842    8.6987    8.2702 H         1 RES1    0.0000
     26 H2        -0.1474   10.4633    9.4221 H         1 RES1    0.0000
     27 H3         0.7804   10.9330   10.6516 H         1 RES1    0.0000
     28 H4         1.9159    4.4197    7.0118 H         1 RES1    0.0000
     29 H5         2.6278    3.4747    9.0362 H         1 RES1    0.0000
     30 H6         2.6190    4.7849   10.9770 H         1 RES1    0.0000
     31 H7         1.8132    6.9467   10.9338 H         1 RES1    0.0000
     32 H8         2.8654   12.2111   13.8768 H         2 RES2    0.0000
     33 H9         3.1775   10.1274   13.3095 H         2 RES2    0.0000
     34 H10        2.2834    9.4583   12.1462 H         2 RES2    0.0000
     35 H11        1.4171   16.7409   13.9027 H         2 RES2    0.0000
     36 H12        0.5985   17.0727   11.7286 H         2 RES2    0.0000
     37 H13        0.5039   15.2914   10.2456 H         2 RES2    0.0000
     38 H14        1.2609   13.1895   10.8676 H         2 RES2    0.0000
@<TRIPOS>BOND
     1    1    3 2
     2    2    3 2
     3    3    7 1
     4    4    5 1
     5    5   26 1
     6    6    7 ar
     7    7    8 ar
     8    8    9 ar
     9    9   10 ar
    10   10   11 ar
    11   11    6 ar
    12   12    4 2
    13   13   15 2
    14   14   15 2
    15   15   19 1
    16   16   17 1
    17   17   33 1
    18   18   19 ar
    19   19   20 ar
    20   20   21 ar
    21   21   22 ar
    22   22   23 ar
    23   23   18 ar
    24   24   16 2
    25   25   12 1
    26   27    5 1
    27   28    8 1
    28   29    9 1
    29   30   10 1
    30   31   11 1
    31   32   24 1
    32   34   17 1
    33   35   20 1
    34   36   21 1
    35   37   22 1
    36   38   23 1
    37    6   12 1
    38   18   24 1
@<TRIPOS>SUBSTRUCTURE
     1 RES1 1
     2 RES2 13

@<TRIPOS>CRYSIN
   3.6675   13.9380   28.7960  90.0000  90.0000  90.0000  19 1

