# MOL2 file generated by ConQuest
# Please check atom types

@<TRIPOS>MOLECULE
IZEFAU
    19    19     1
SMALL
NO_CHARGES
****
Generated from CSD

@<TRIPOS>ATOM
      1 O1         0.0361    4.1457    3.8403 O.2       1 RES1    0.0000
      2 O2         0.6787    2.1169    3.4961 O.2       1 RES1    0.0000
      3 N1         0.5771    3.1035    4.2143 N.pl3     1 RES1    0.0000
      4 N2         2.0280    5.3184    9.6679 N.2       1 RES1    0.0000
      5 N3         1.9907    6.5144   10.3708 N.3       1 RES1    0.0000
      6 C1         1.5760    4.1350    7.6562 C.ar      1 RES1    0.0000
      7 C2         1.0629    4.1900    6.3568 C.ar      1 RES1    0.0000
      8 C3         1.1158    3.0431    5.5796 C.ar      1 RES1    0.0000
      9 C4         1.6296    1.8452    6.0303 C.ar      1 RES1    0.0000
     10 C5         2.1263    1.8019    7.3237 C.ar      1 RES1    0.0000
     11 C6         2.1043    2.9289    8.1161 C.ar      1 RES1    0.0000
     12 C7         1.5309    5.3348    8.4937 C.2       1 RES1    0.0000
     13 H1         0.6877    4.9935    6.0157 H         1 RES1    0.0000
     14 H2         1.6426    1.0762    5.4742 H         1 RES1    0.0000
     15 H3         2.4841    0.9913    7.6658 H         1 RES1    0.0000
     16 H4         2.4580    2.8831    8.9974 H         1 RES1    0.0000
     17 H5         1.1300    6.1289    8.1608 H         1 RES1    0.0000
     18 H6         2.0537    6.3517   11.2337 H         1 RES1    0.0000
     19 H7         1.3057    7.0130   10.1330 H         1 RES1    0.0000
@<TRIPOS>BOND
     1    1    3 2
     2    2    3 2
     3    3    8 1
     4    4    5 1
     5    5   18 1
     6    6    7 ar
     7    7    8 ar
     8    8    9 ar
     9    9   10 ar
    10   10   11 ar
    11   11    6 ar
    12   12    4 2
    13   13    7 1
    14   14    9 1
    15   15   10 1
    16   16   11 1
    17   17   12 1
    18   19    5 1
    19    6   12 1
@<TRIPOS>SUBSTRUCTURE
     1 RES1 1

@<TRIPOS>CRYSIN
   3.7231   10.2200   19.4119  90.0000  90.0000  90.0000  19 1

