# MOL2 file generated by ConQuest
# Please check atom types

@<TRIPOS>MOLECULE
IZEGAV
    42    43     1
SMALL
NO_CHARGES
****
Generated from CSD

@<TRIPOS>ATOM
      1 N1         7.5509    2.8258    5.4084 N.2       1 RES1    0.0000
      2 N2         6.7164    4.9603    4.9490 N.3       1 RES1    0.0000
      3 O1         6.3865    2.7686    6.2159 O.3       1 RES1    0.0000
      4 O2         9.9385    4.2221    4.3914 O.2       1 RES1    0.0000
      5 C1         7.6354    3.9726    4.8366 C.2       1 RES1    0.0000
      6 C2         8.8364    4.0931    3.9154 C.2       1 RES1    0.0000
      7 C3         8.6009    3.9534    2.4686 C.ar      1 RES1    0.0000
      8 C4         7.3559    3.5796    1.9701 C.ar      1 RES1    0.0000
      9 H1         6.6393    3.4624    2.5515 H         1 RES1    0.0000
     10 C5         7.1855    3.3830    0.6204 C.ar      1 RES1    0.0000
     11 H2         6.3563    3.1234    0.2913 H         1 RES1    0.0000
     12 C6         8.2357    3.5701   -0.2415 C.ar      1 RES1    0.0000
     13 H3         8.1156    3.4498   -1.1556 H         1 RES1    0.0000
     14 C7         9.4629    3.9338    0.2498 C.ar      1 RES1    0.0000
     15 H4        10.1749    4.0495   -0.3374 H         1 RES1    0.0000
     16 C8         9.6560    4.1284    1.5913 C.ar      1 RES1    0.0000
     17 H5        10.4931    4.3776    1.9121 H         1 RES1    0.0000
     18 C9         6.7502    6.2531    4.3843 C.ar      1 RES1    0.0000
     19 C10        5.5672    6.8299    3.9746 C.ar      1 RES1    0.0000
     20 H6         4.7719    6.3545    4.0480 H         1 RES1    0.0000
     21 C11        5.5541    8.1073    3.4584 C.ar      1 RES1    0.0000
     22 H7         4.7390    8.4778    3.2062 H         1 RES1    0.0000
     23 C12        6.6987    8.8579    3.2997 C.ar      1 RES1    0.0000
     24 C13        7.8704    8.2637    3.7414 C.ar      1 RES1    0.0000
     25 H8         8.6666    8.7398    3.6703 H         1 RES1    0.0000
     26 C14        7.9050    6.9924    4.2825 C.ar      1 RES1    0.0000
     27 H9         8.7118    6.6367    4.5784 H         1 RES1    0.0000
     28 C15        6.6932   10.2747    2.7078 C.3       1 RES1    0.0000
     29 C16        5.3163   10.6587    2.1619 C.3       1 RES1    0.0000
     30 H10        5.3521   11.5467    1.7985 H         1 RES1    0.0000
     31 H11        4.6713   10.6292    2.8723 H         1 RES1    0.0000
     32 H12        5.0616   10.0411    1.4729 H         1 RES1    0.0000
     33 C17        7.7020   10.3594    1.5569 C.3       1 RES1    0.0000
     34 H13        7.6942   11.2465    1.1899 H         1 RES1    0.0000
     35 H14        7.4635    9.7287    0.8738 H         1 RES1    0.0000
     36 H15        8.5807   10.1573    1.8873 H         1 RES1    0.0000
     37 C18        7.0846   11.2699    3.7994 C.3       1 RES1    0.0000
     38 H16        7.0853   12.1590    3.4359 H         1 RES1    0.0000
     39 H17        7.9615   11.0579    4.1274 H         1 RES1    0.0000
     40 H18        6.4524   11.2190    4.5204 H         1 RES1    0.0000
     41 H19        5.9884    4.7264    5.2687 H         1 RES1    0.0000
     42 H20        6.3703    1.8886    6.4527 H         1 RES1    0.0000
@<TRIPOS>BOND
     1    1    3 1
     2    2    5 1
     3    3   42 1
     4    4    6 2
     5    5    1 2
     6    6    5 1
     7    7    6 1
     8    8    7 ar
     9    9    8 1
    10   10    8 ar
    11   11   10 1
    12   12   10 ar
    13   13   12 1
    14   14   12 ar
    15   15   14 1
    16   16    7 ar
    17   17   16 1
    18   18    2 1
    19   19   18 ar
    20   20   19 1
    21   21   19 ar
    22   22   21 1
    23   23   21 ar
    24   24   23 ar
    25   25   24 1
    26   26   18 ar
    27   27   26 1
    28   28   23 1
    29   29   28 1
    30   30   29 1
    31   31   29 1
    32   32   29 1
    33   33   28 1
    34   34   33 1
    35   35   33 1
    36   36   33 1
    37   37   28 1
    38   38   37 1
    39   39   37 1
    40   40   37 1
    41   41    2 1
    42   14   16 ar
    43   24   26 ar
@<TRIPOS>SUBSTRUCTURE
     1 RES1 1

@<TRIPOS>CRYSIN
   6.4331   10.7150   12.2990  75.0540  82.1200  77.2580   2 1

