# MOL2 file generated by ConQuest
# Please check atom types

@<TRIPOS>MOLECULE
IZEVEO
    60    62     2
SMALL
USER_CHARGES
****
Generated from CSD

@<TRIPOS>ATOM
      1 O1         8.9643    7.3729   11.2817 O.2       1 RES1   -1.0000
      2 N1         7.7025    4.0760   11.9129 N.ar      1 RES1    0.0000
      3 N2         8.1767    6.2698   11.1778 N.pl3     1 RES1    1.0000
      4 N3         9.4093    5.3191   12.8532 N.3       1 RES1    0.0000
      5 N4         6.8760    7.3962    9.6763 N.3       1 RES1    0.0000
      6 N5         6.0305    2.8278   10.9284 N.3       1 RES1    0.0000
      7 C1         8.4132    5.1774   11.9869 C.ar      1 RES1    0.0000
      8 C2         7.1168    6.2631   10.3309 C.ar      1 RES1    0.0000
      9 C3         6.3659    5.1041   10.2101 C.ar      1 RES1    0.0000
     10 C4         6.6793    4.0085   11.0180 C.ar      1 RES1    0.0000
     11 C5         5.8529    2.0097   12.1467 C.3       1 RES1    0.0000
     12 C6         4.6657    2.4496   12.9104 C.3       1 RES1    0.0000
     13 C7         3.4303    2.4079   12.0727 C.3       1 RES1    0.0000
     14 C8         3.5980    3.1495   10.7439 C.3       1 RES1    0.0000
     15 C9         4.8309    2.6829   10.0452 C.3       1 RES1    0.0000
     16 H1         9.7092    4.7492   13.7676 H         1 RES1    0.0000
     17 H2         9.8342    6.1656   12.8455 H         1 RES1    0.0000
     18 H3         7.4246    7.9986    9.7153 H         1 RES1    0.0000
     19 H4         6.1483    7.4620    9.0697 H         1 RES1    0.0000
     20 H5         6.6400    2.0513   12.6766 H         1 RES1    0.0000
     21 H6         5.7000    1.1123   11.8752 H         1 RES1    0.0000
     22 H7         4.8243    3.3494   13.1728 H         1 RES1    0.0000
     23 H8         4.5693    1.9080   13.6832 H         1 RES1    0.0000
     24 H9         2.7271    2.8245   12.5558 H         1 RES1    0.0000
     25 H10        3.2067    1.4997   11.9103 H         1 RES1    0.0000
     26 H11        3.6781    4.0826   10.8946 H         1 RES1    0.0000
     27 H12        2.8513    2.9828   10.1816 H         1 RES1    0.0000
     28 H13        4.9743    3.1578    9.2347 H         1 RES1    0.0000
     29 H14        4.7237    1.7580    9.8555 H         1 RES1    0.0000
     30 H15        5.6523    5.0525    9.5854 H         1 RES1    0.0000
     31 O2         4.3675    7.7237    8.3619 O.2       2 RES2   -1.0000
     32 N6         2.8303    4.6709    7.1942 N.ar      2 RES2    0.0000
     33 N7         3.4936    6.6839    8.2723 N.pl3     2 RES2    1.0000
     34 N8         4.6795    5.8323    6.5240 N.3       2 RES2    0.0000
     35 N9         2.4051    7.5179   10.1127 N.3       2 RES2    0.0000
     36 N10        0.8978    3.5869    7.8229 N.3       2 RES2    0.0000
     37 C10        3.6497    5.7057    7.3202 C.ar      2 RES2    0.0000
     38 C11        2.4599    6.5772    9.1503 C.ar      2 RES2    0.0000
     39 C12        1.5439    5.5657    9.0035 C.ar      2 RES2    0.0000
     40 C13        1.7414    4.6050    8.0177 C.ar      2 RES2    0.0000
     41 C14        1.0711    2.5721    6.7929 C.3       2 RES2    0.0000
     42 C15        1.2696    1.2081    7.4436 C.3       2 RES2    0.0000
     43 C16        0.0398    0.8915    8.3203 C.3       2 RES2    0.0000
     44 C17       -0.1119    1.9830    9.3607 C.3       2 RES2    0.0000
     45 C18       -0.2822    3.3161    8.6697 C.3       2 RES2    0.0000
     46 H16        4.8450    5.2074    5.8292 H         2 RES2    0.0000
     47 H17        5.2653    6.5739    6.6461 H         2 RES2    0.0000
     48 H18        3.0512    8.2136   10.1569 H         2 RES2    0.0000
     49 H19        1.7051    7.4787   10.7530 H         2 RES2    0.0000
     50 H20        1.8298    2.7729    6.2565 H         2 RES2    0.0000
     51 H21        0.2906    2.5746    6.2513 H         2 RES2    0.0000
     52 H22        2.0652    1.2081    7.9605 H         2 RES2    0.0000
     53 H23        1.3282    0.5499    6.7656 H         2 RES2    0.0000
     54 H24        0.1874    0.0667    8.7684 H         2 RES2    0.0000
     55 H25       -0.7511    0.8332    7.7982 H         2 RES2    0.0000
     56 H26        0.6564    2.0080    9.9179 H         2 RES2    0.0000
     57 H27       -0.8837    1.8247    9.8906 H         2 RES2    0.0000
     58 H28       -0.3875    4.0076    9.3126 H         2 RES2    0.0000
     59 H29       -1.0494    3.2994    8.1034 H         2 RES2    0.0000
     60 H30        0.7841    5.5199    9.5711 H         2 RES2    0.0000
@<TRIPOS>BOND
     1    1    3 1
     2    2    7 ar
     3    3    7 ar
     4    4    7 1
     5    5    8 1
     6    6   10 1
     7    8    3 ar
     8    9    8 ar
     9   10    2 ar
    10   11    6 1
    11   12   11 1
    12   13   12 1
    13   14   13 1
    14   15    6 1
    15   16    4 1
    16   17    4 1
    17   18    5 1
    18   19    5 1
    19   20   11 1
    20   21   11 1
    21   22   12 1
    22   23   12 1
    23   24   13 1
    24   25   13 1
    25   26   14 1
    26   27   14 1
    27   28   15 1
    28   29   15 1
    29   30    9 1
    30   31   33 1
    31   32   37 ar
    32   33   37 ar
    33   34   37 1
    34   35   38 1
    35   36   40 1
    36   38   33 ar
    37   39   38 ar
    38   40   32 ar
    39   41   36 1
    40   42   41 1
    41   43   42 1
    42   44   43 1
    43   45   36 1
    44   46   34 1
    45   47   34 1
    46   48   35 1
    47   49   35 1
    48   50   41 1
    49   51   41 1
    50   52   42 1
    51   53   42 1
    52   54   43 1
    53   55   43 1
    54   56   44 1
    55   57   44 1
    56   58   45 1
    57   59   45 1
    58   60   39 1
    59    9   10 ar
    60   14   15 1
    61   39   40 ar
    62   44   45 1
@<TRIPOS>SUBSTRUCTURE
     1 RES1 1
     2 RES2 31

@<TRIPOS>CRYSIN
   9.3799    8.3319   12.9884  90.0000  90.1910  90.0000   4 1

