# MOL2 file generated by ConQuest
# Please check atom types

@<TRIPOS>MOLECULE
IZIBUP
    47    47     1
SMALL
NO_CHARGES
****
Generated from CSD

@<TRIPOS>ATOM
      1 O1         8.0079    2.8115   18.9371 O.3       1 RES1    0.0000
      2 O2         5.3631    2.0924   21.2248 O.2       1 RES1    0.0000
      3 O3         8.8850    0.0839   18.2291 O.2       1 RES1    0.0000
      4 O4        -0.3057   -0.7298   21.1207 O.2       1 RES1    0.0000
      5 O5        -1.0232   -0.3061   23.1188 O.2       1 RES1    0.0000
      6 O6         3.9103    2.2348   25.8004 O.2       1 RES1    0.0000
      7 O7         7.6417    3.6623   16.8901 O.2       1 RES1    0.0000
      8 O8         8.1319   -0.3587   16.1698 O.3       1 RES1    0.0000
      9 O9         2.2159    1.0326   26.4379 O.2       1 RES1    0.0000
     10 N1         3.9245    1.6407   19.5392 N.am      1 RES1    0.0000
     11 N2         2.9249    1.5271   25.5690 N.pl3     1 RES1    0.0000
     12 N3        -0.1724   -0.2485   22.2415 N.pl3     1 RES1    0.0000
     13 C1         3.1956    1.3173   21.8447 C.ar      1 RES1    0.0000
     14 C2         8.1333    0.3168   17.3069 C.2       1 RES1    0.0000
     15 C3         5.9331    0.9166   18.3082 C.3       1 RES1    0.0000
     16 C4         7.0389    1.3667   17.3223 C.3       1 RES1    0.0000
     17 C5         4.2601    1.7065   20.8394 C.2       1 RES1    0.0000
     18 C6         3.5113    1.5773   23.1908 C.ar      1 RES1    0.0000
     19 C7         1.9801    0.7282   21.5326 C.ar      1 RES1    0.0000
     20 C8         1.1072    0.4089   22.5542 C.ar      1 RES1    0.0000
     21 C9         7.5997    2.7531   17.6630 C.2       1 RES1    0.0000
     22 C10        4.1240    2.3894   17.2238 C.3       1 RES1    0.0000
     23 C11        4.8750    2.0323   18.4935 C.3       1 RES1    0.0000
     24 C12        2.6035    1.2408   24.1586 C.ar      1 RES1    0.0000
     25 C13        1.3695    0.6500   23.8895 C.ar      1 RES1    0.0000
     26 C14        5.3296   -0.4056   17.8345 C.3       1 RES1    0.0000
     27 C15        9.0853   -1.4547   16.0636 C.3       1 RES1    0.0000
     28 C16        8.4490    4.1206   19.3877 C.3       1 RES1    0.0000
     29 H1         3.0645    1.3223   19.2908 H         1 RES1    0.0000
     30 H2         4.3421    1.9772   23.4216 H         1 RES1    0.0000
     31 H3         1.7478    0.5505   20.6298 H         1 RES1    0.0000
     32 H4         0.7553    0.4205   24.5759 H         1 RES1    0.0000
     33 H5         4.0357    1.6111   16.6867 H         1 RES1    0.0000
     34 H6         4.6071    3.0518   16.7451 H         1 RES1    0.0000
     35 H7         3.2612    2.7227   17.4408 H         1 RES1    0.0000
     36 H8         4.5879   -0.2238   17.2684 H         1 RES1    0.0000
     37 H9         5.0403   -0.9158   18.5828 H         1 RES1    0.0000
     38 H10        5.9844   -0.8952   17.3515 H         1 RES1    0.0000
     39 H11        9.8990   -1.1231   15.7016 H         1 RES1    0.0000
     40 H12        8.7354   -2.1270   15.4893 H         1 RES1    0.0000
     41 H13        9.2477   -1.8250   16.9237 H         1 RES1    0.0000
     42 H14        9.3810    4.2136   19.2292 H         1 RES1    0.0000
     43 H15        8.2751    4.2095   20.3189 H         1 RES1    0.0000
     44 H16        7.9780    4.7937   18.9122 H         1 RES1    0.0000
     45 H17        6.3485    0.7586   19.1492 H         1 RES1    0.0000
     46 H18        6.6577    1.4095   16.4527 H         1 RES1    0.0000
     47 H19        5.3239    2.8132   18.7952 H         1 RES1    0.0000
@<TRIPOS>BOND
     1    1   21 1
     2    2   17 2
     3    3   14 2
     4    4   12 2
     5    5   12 2
     6    6   11 2
     7    7   21 2
     8    8   14 1
     9    9   11 2
    10   10   17 1
    11   11   24 1
    12   12   20 1
    13   13   17 1
    14   14   16 1
    15   15   16 1
    16   16   21 1
    17   18   13 ar
    18   19   13 ar
    19   20   19 ar
    20   22   23 1
    21   23   10 1
    22   24   18 ar
    23   25   20 ar
    24   26   15 1
    25   27    8 1
    26   28    1 1
    27   29   10 1
    28   30   18 1
    29   31   19 1
    30   32   25 1
    31   33   22 1
    32   34   22 1
    33   35   22 1
    34   36   26 1
    35   37   26 1
    36   38   26 1
    37   39   27 1
    38   40   27 1
    39   41   27 1
    40   42   28 1
    41   43   28 1
    42   44   28 1
    43   45   15 1
    44   46   16 1
    45   47   23 1
    46   15   23 1
    47   24   25 ar
@<TRIPOS>SUBSTRUCTURE
     1 RES1 1

@<TRIPOS>CRYSIN
   7.1251    8.2281   30.7815  90.0000  90.0000  90.0000  19 1

