# MOL2 file generated by ConQuest
# Please check atom types

@<TRIPOS>MOLECULE
IZIJOQ
    28    29     1
SMALL
NO_CHARGES
****
Generated from CSD

@<TRIPOS>ATOM
      1 N1         9.4328    3.7504    4.8280 N.am      1 RES1    0.0000
      2 O1        10.5187    4.5921    5.1822 O.3       1 RES1    0.0000
      3 O2         8.2984    5.6275    4.1721 O.2       1 RES1    0.0000
      4 C1         9.9856    2.5221    4.2300 C.3       1 RES1    0.0000
      5 C2        10.6196    2.9037    2.9089 C.2       1 RES1    0.0000
      6 C3        10.3120    2.0782    1.6847 C.3       1 RES1    0.0000
      7 C4         8.7944    2.0602    1.3786 C.3       1 RES1    0.0000
      8 C5         8.1794    3.4712    1.2679 C.3       1 RES1    0.0000
      9 C6         6.9930    3.7622    2.1988 C.3       1 RES1    0.0000
     10 C7         7.2529    3.5289    3.6984 C.3       1 RES1    0.0000
     11 C8         8.3745    4.4120    4.2214 C.2       1 RES1    0.0000
     12 C9        11.2965    5.0182    4.0258 C.3       1 RES1    0.0000
     13 C10       11.2316    4.0833    2.8607 C.2       1 RES1    0.0000
     14 H1        10.6488    2.1839    4.8592 H         1 RES1    0.0000
     15 H2         9.2926    1.8736    4.1287 H         1 RES1    0.0000
     16 H3        10.8023    2.4882    0.9069 H         1 RES1    0.0000
     17 H4        10.6425    1.1516    1.7946 H         1 RES1    0.0000
     18 H5         8.3197    1.5276    2.0525 H         1 RES1    0.0000
     19 H6         8.6747    1.5574    0.5360 H         1 RES1    0.0000
     20 H7         8.8816    4.1590    1.4463 H         1 RES1    0.0000
     21 H8         7.8883    3.6100    0.3472 H         1 RES1    0.0000
     22 H9         6.2279    3.2162    1.9439 H         1 RES1    0.0000
     23 H10        6.7155    4.7080    2.0728 H         1 RES1    0.0000
     24 H11        7.4283    2.5897    3.9025 H         1 RES1    0.0000
     25 H12        6.4451    3.8129    4.1615 H         1 RES1    0.0000
     26 H13       12.2119    5.1078    4.3718 H         1 RES1    0.0000
     27 H14       10.9685    5.9073    3.7397 H         1 RES1    0.0000
     28 H15       11.5836    4.4394    2.0446 H         1 RES1    0.0000
@<TRIPOS>BOND
     1    1    2 1
     2    2   12 1
     3    3   11 2
     4    4    1 1
     5    5    4 1
     6    6    5 1
     7    7    6 1
     8    8    7 1
     9    9    8 1
    10   10    9 1
    11   11    1 1
    12   12   13 1
    13   13    5 2
    14   14    4 1
    15   15    4 1
    16   16    6 1
    17   17    6 1
    18   18    7 1
    19   19    7 1
    20   20    8 1
    21   21    8 1
    22   22    9 1
    23   23    9 1
    24   24   10 1
    25   25   10 1
    26   26   12 1
    27   27   12 1
    28   28   13 1
    29   10   11 1
@<TRIPOS>SUBSTRUCTURE
     1 RES1 1

@<TRIPOS>CRYSIN
  13.6734    5.9670   11.9961  90.0000 109.4940  90.0000  14 1

