# MOL2 file generated by ConQuest
# Please check atom types

@<TRIPOS>MOLECULE
IZINOU
    69    73     1
SMALL
NO_CHARGES
****
Generated from CSD

@<TRIPOS>ATOM
      1 O1         2.3835    2.8576    3.0467 O.2       1 RES1    0.0000
      2 O2         2.0748    0.5964   -0.9755 O.2       1 RES1    0.0000
      3 N1         0.8433    4.8981   -3.5136 N.ar      1 RES1    0.0000
      4 N2         1.4153    4.8519   -1.2589 N.pl3     1 RES1    0.0000
      5 N3         1.6065    5.5205   -0.0815 N.2       1 RES1    0.0000
      6 N4         2.4298    1.9203    2.1749 N.pl3     1 RES1    0.0000
      7 N5         2.2864    0.8427    0.2654 N.3       1 RES1    0.0000
      8 C1         1.1189    5.6103   -2.4226 C.ar      1 RES1    0.0000
      9 C2         1.8409    3.2853    0.2079 C.2       1 RES1    0.0000
     10 C3         2.1515    2.0430    0.8599 C.2       1 RES1    0.0000
     11 C4         3.0580    0.5932    2.4811 C.3       1 RES1    0.0000
     12 C5         2.5668   -0.2491    1.2652 C.3       1 RES1    0.0000
     13 C6         1.1416    6.9992   -2.3546 C.ar      1 RES1    0.0000
     14 C7         0.8433    7.6907   -3.5136 C.ar      1 RES1    0.0000
     15 C8         1.8587    4.5782    0.7944 C.2       1 RES1    0.0000
     16 C9         1.5387    3.5119   -1.1256 C.2       1 RES1    0.0000
     17 H1         1.3541    7.4509   -1.5461 H         1 RES1    0.0000
     18 H2         0.8433    8.6407   -3.5136 H         1 RES1    0.0000
     19 H3         2.0275    4.7389    1.7152 H         1 RES1    0.0000
     20 H4         1.4393    2.8581   -1.8077 H         1 RES1    0.0000
     21 C10        4.5691    0.8466    2.4754 C.3       1 RES1    0.0000
     22 H5         5.0253    0.0355    2.6666 H         1 RES1    0.0000
     23 H6         4.7833    1.4939    3.1370 H         1 RES1    0.0000
     24 H7         4.8353    1.1663    1.6215 H         1 RES1    0.0000
     25 C11        2.5966    0.1124    3.8420 C.3       1 RES1    0.0000
     26 H8         2.9949   -0.7279    4.0341 H         1 RES1    0.0000
     27 H9         2.8525    0.7437    4.5041 H         1 RES1    0.0000
     28 H10        1.6505    0.0206    3.8407 H         1 RES1    0.0000
     29 C12        3.6022   -1.2174    0.7093 C.3       1 RES1    0.0000
     30 H11        3.7700   -1.9035    1.3449 H         1 RES1    0.0000
     31 H12        4.4083   -0.7486    0.5296 H         1 RES1    0.0000
     32 H13        3.2746   -1.6034   -0.0943 H         1 RES1    0.0000
     33 C13        1.2340   -0.9634    1.5059 C.3       1 RES1    0.0000
     34 H14        1.3583   -1.6689    2.1300 H         1 RES1    0.0000
     35 H15        0.6073   -0.3397    1.8538 H         1 RES1    0.0000
     36 H16        0.9067   -1.3183    0.6877 H         1 RES1    0.0000
     37 C1F        0.5678    5.6103   -4.6047 C.ar      1 RES1    0.0000
     38 N2F        0.2713    4.8519   -5.7684 N.pl3     1 RES1    0.0000
     39 N3F        0.0801    5.5205   -6.9458 N.2       1 RES1    0.0000
     40 C8F       -0.1721    4.5782   -7.8216 C.2       1 RES1    0.0000
     41 C2F       -0.1543    3.2853   -7.2351 C.2       1 RES1    0.0000
     42 C3F       -0.4649    2.0430   -7.8871 C.2       1 RES1    0.0000
     43 N4F       -0.7432    1.9203   -9.2022 N.pl3     1 RES1    0.0000
     44 O1F       -0.6969    2.8576  -10.0740 O.2       1 RES1    0.0000
     45 C4F       -1.3714    0.5932   -9.5083 C.3       1 RES1    0.0000
     46 C5F       -0.8802   -0.2491   -8.2925 C.3       1 RES1    0.0000
     47 N5F       -0.5998    0.8427   -7.2926 N.3       1 RES1    0.0000
     48 O2F       -0.3881    0.5964   -6.0518 O.2       1 RES1    0.0000
     49 C12F      -1.9155   -1.2174   -7.7366 C.3       1 RES1    0.0000
     50 H11F      -2.0834   -1.9035   -8.3722 H         1 RES1    0.0000
     51 H12F      -2.7217   -0.7486   -7.5569 H         1 RES1    0.0000
     52 H13F      -1.5880   -1.6034   -6.9330 H         1 RES1    0.0000
     53 C13F       0.4526   -0.9634   -8.5332 C.3       1 RES1    0.0000
     54 H14F       0.3283   -1.6689   -9.1572 H         1 RES1    0.0000
     55 H15F       1.0793   -0.3397   -8.8811 H         1 RES1    0.0000
     56 H16F       0.7800   -1.3183   -7.7150 H         1 RES1    0.0000
     57 C10F      -2.8824    0.8466   -9.5027 C.3       1 RES1    0.0000
     58 H5F       -3.3386    0.0355   -9.6938 H         1 RES1    0.0000
     59 H6F       -3.0966    1.4939  -10.1643 H         1 RES1    0.0000
     60 H7F       -3.1487    1.1663   -8.6488 H         1 RES1    0.0000
     61 C11F      -0.9099    0.1124  -10.8692 C.3       1 RES1    0.0000
     62 H8F       -1.3083   -0.7279  -11.0614 H         1 RES1    0.0000
     63 H9F       -1.1659    0.7437  -11.5313 H         1 RES1    0.0000
     64 H10F       0.0361    0.0206  -10.8680 H         1 RES1    0.0000
     65 C9F        0.1479    3.5119   -5.9016 C.2       1 RES1    0.0000
     66 H4F        0.2473    2.8581   -5.2196 H         1 RES1    0.0000
     67 H3F       -0.3409    4.7389   -8.7425 H         1 RES1    0.0000
     68 C6F        0.5450    6.9992   -4.6727 C.ar      1 RES1    0.0000
     69 H1F        0.3325    7.4509   -5.4811 H         1 RES1    0.0000
@<TRIPOS>BOND
     1    1    6 1
     2    2    7 1
     3    3    8 ar
     4    4    5 1
     5    5   15 2
     6    6   10 2
     7    7   10 1
     8    8    4 1
     9    9   10 1
    10   11    6 1
    11   12    7 1
    12   13    8 ar
    13   14   13 ar
    14   15    9 1
    15   16    4 1
    16   17   13 1
    17   18   14 1
    18   19   15 1
    19   20   16 1
    20   21   11 1
    21   22   21 1
    22   23   21 1
    23   24   21 1
    24   25   11 1
    25   26   25 1
    26   27   25 1
    27   28   25 1
    28   29   12 1
    29   30   29 1
    30   31   29 1
    31   32   29 1
    32   33   12 1
    33   34   33 1
    34   35   33 1
    35   36   33 1
    36   37    3 ar
    37   38   37 1
    38   39   38 1
    39   40   39 2
    40   41   40 1
    41   42   41 1
    42   43   42 2
    43   44   43 1
    44   45   43 1
    45   46   45 1
    46   47   42 1
    47   48   47 1
    48   49   46 1
    49   50   49 1
    50   51   49 1
    51   52   49 1
    52   53   46 1
    53   54   53 1
    54   55   53 1
    55   56   53 1
    56   57   45 1
    57   58   57 1
    58   59   57 1
    59   60   57 1
    60   61   45 1
    61   62   61 1
    62   63   61 1
    63   64   61 1
    64   65   38 1
    65   66   65 1
    66   67   40 1
    67   68   14 ar
    68   69   68 1
    69    9   16 2
    70   11   12 1
    71   37   68 ar
    72   41   65 2
    73   46   47 1
@<TRIPOS>SUBSTRUCTURE
     1 RES1 1

@<TRIPOS>CRYSIN
  18.5194    9.6934   14.4537  90.0000 103.4964  90.0000  15 1

