# MOL2 file generated by ConQuest
# Please check atom types

@<TRIPOS>MOLECULE
IZIPOY
    55    58     1
SMALL
NO_CHARGES
****
Generated from CSD

@<TRIPOS>ATOM
      1 C1         3.0995    9.9619   -0.7704 C.ar      1 RES1    0.0000
      2 C2         1.8990    9.9920   -0.0939 C.ar      1 RES1    0.0000
      3 H1         1.2716   10.6559   -0.2669 H         1 RES1    0.0000
      4 C3         1.6493    9.0124    0.8452 C.ar      1 RES1    0.0000
      5 H2         0.8419    9.0131    1.3068 H         1 RES1    0.0000
      6 C4         2.5903    8.0290    1.1103 C.ar      1 RES1    0.0000
      7 C5         3.7777    8.0298    0.3868 C.ar      1 RES1    0.0000
      8 H3         4.4086    7.3655    0.5484 H         1 RES1    0.0000
      9 C6         4.0415    8.9891   -0.5634 C.ar      1 RES1    0.0000
     10 H4         4.8346    8.9787   -1.0485 H         1 RES1    0.0000
     11 C7         2.2659    6.9674    2.0881 C.ar      1 RES1    0.0000
     12 C8         0.9002    5.2130    2.6978 C.ar      1 RES1    0.0000
     13 C9        -0.2387    4.4166    2.4607 C.ar      1 RES1    0.0000
     14 H5        -0.7878    4.5925    1.7304 H         1 RES1    0.0000
     15 C10       -0.5333    3.3806    3.3122 C.ar      1 RES1    0.0000
     16 H6        -1.2957    2.8676    3.1658 H         1 RES1    0.0000
     17 C11        0.3008    3.0864    4.3961 C.ar      1 RES1    0.0000
     18 H7         0.1009    2.3723    4.9579 H         1 RES1    0.0000
     19 C12        1.4047    3.8479    4.6285 C.ar      1 RES1    0.0000
     20 H8         1.9548    3.6505    5.3513 H         1 RES1    0.0000
     21 C13        1.7199    4.9124    3.7976 C.ar      1 RES1    0.0000
     22 C14        3.0992    6.7523    3.2670 C.ar      1 RES1    0.0000
     23 C15        4.1747    7.6158    3.5926 C.2       1 RES1    0.0000
     24 H9         4.3391    8.3542    3.0517 H         1 RES1    0.0000
     25 C16        4.9956    7.3926    4.6993 C.2       1 RES1    0.0000
     26 C17        6.0786    8.3115    5.1095 C.ar      1 RES1    0.0000
     27 C18        6.3245    9.5191    4.4773 C.ar      1 RES1    0.0000
     28 H10        5.8564    9.7355    3.7033 H         1 RES1    0.0000
     29 C19        7.2551   10.4082    4.9791 C.ar      1 RES1    0.0000
     30 H11        7.3936   11.2141    4.5368 H         1 RES1    0.0000
     31 C20        7.9938   10.1323    6.1296 C.ar      1 RES1    0.0000
     32 C21        7.7835    8.8973    6.7008 C.ar      1 RES1    0.0000
     33 H12        8.2871    8.6564    7.4450 H         1 RES1    0.0000
     34 C22        6.8537    8.0077    6.2106 C.ar      1 RES1    0.0000
     35 H13        6.7464    7.1846    6.6297 H         1 RES1    0.0000
     36 C23        8.8926   11.1964    6.7645 C.3       1 RES1    0.0000
     37 C24        9.5606   12.0833    5.7092 C.3       1 RES1    0.0000
     38 H14       10.0386   11.5325    5.0843 H         1 RES1    0.0000
     39 H15       10.1725   12.6858    6.1377 H         1 RES1    0.0000
     40 H16        8.8893   12.5869    5.2426 H         1 RES1    0.0000
     41 C25        7.9975   12.0660    7.6781 C.3       1 RES1    0.0000
     42 H17        7.2948   12.4605    7.1561 H         1 RES1    0.0000
     43 H18        8.5267   12.7597    8.0783 H         1 RES1    0.0000
     44 H19        7.6149   11.5177    8.3670 H         1 RES1    0.0000
     45 C26        9.9925   10.5640    7.6239 C.3       1 RES1    0.0000
     46 H20        9.5929   10.0763    8.3476 H         1 RES1    0.0000
     47 H21       10.5586   11.2545    7.9779 H         1 RES1    0.0000
     48 H22       10.5160    9.9665    7.0853 H         1 RES1    0.0000
     49 N1         3.3896   11.0249   -1.7651 N.pl3     1 RES1    0.0000
     50 N2         1.2040    6.2424    1.8391 N.ar      1 RES1    0.0000
     51 N3         2.8153    5.7083    4.0510 N.ar      1 RES1    0.0000
     52 O1         2.5196   11.8585   -1.9752 O.2       1 RES1    0.0000
     53 O2         4.4893   11.0182   -2.2967 O.2       1 RES1    0.0000
     54 O3         4.8214    6.3652    5.4757 O.3       1 RES1    0.0000
     55 H23        4.4141    5.7809    5.0688 H         1 RES1    0.0000
@<TRIPOS>BOND
     1    1    2 ar
     2    2    3 1
     3    4    2 ar
     4    5    4 1
     5    6    4 ar
     6    7    6 ar
     7    8    7 1
     8    9    1 ar
     9   10    9 1
    10   11    6 1
    11   12   13 ar
    12   13   14 1
    13   15   13 ar
    14   16   15 1
    15   17   15 ar
    16   18   17 1
    17   19   17 ar
    18   20   19 1
    19   21   12 ar
    20   22   11 ar
    21   23   22 1
    22   24   23 1
    23   25   23 2
    24   26   25 1
    25   27   26 ar
    26   28   27 1
    27   29   27 ar
    28   30   29 1
    29   31   29 ar
    30   32   31 ar
    31   33   32 1
    32   34   26 ar
    33   35   34 1
    34   36   31 1
    35   37   36 1
    36   38   37 1
    37   39   37 1
    38   40   37 1
    39   41   36 1
    40   42   41 1
    41   43   41 1
    42   44   41 1
    43   45   36 1
    44   46   45 1
    45   47   45 1
    46   48   45 1
    47   49    1 1
    48   50   11 ar
    49   51   21 ar
    50   52   49 2
    51   53   49 2
    52   54   25 1
    53   55   54 1
    54    7    9 ar
    55   12   50 ar
    56   19   21 ar
    57   22   51 ar
    58   32   34 ar
@<TRIPOS>SUBSTRUCTURE
     1 RES1 1

@<TRIPOS>CRYSIN
   5.7605   11.6540   16.4470  75.4600  87.9500  86.6900   2 1

