# MOL2 file generated by ConQuest
# Please check atom types

@<TRIPOS>MOLECULE
IZOBIK
    64    66     2
SMALL
NO_CHARGES
****
Generated from CSD

@<TRIPOS>ATOM
      1 O1         2.6948   17.2087    2.6823 O.3       1 RES1    0.0000
      2 O2         3.1292   15.7315    0.0412 O.3       1 RES1    0.0000
      3 O3         2.0998   15.6732    4.2216 O.2       1 RES1    0.0000
      4 N1         5.9901   19.5452    7.5662 N.pl3     1 RES1    0.0000
      5 O4         6.5799   20.5418    7.1665 O.2       1 RES1    0.0000
      6 O5         4.4282   15.1248   -1.6397 O.2       1 RES1    0.0000
      7 C1         4.1474   18.6539    4.4775 C.ar      1 RES1    0.0000
      8 H1         3.9911   18.9974    3.6281 H         1 RES1    0.0000
      9 C2         3.5831   17.4299    4.8508 C.ar      1 RES1    0.0000
     10 O6         6.0823   19.1345    8.7165 O.2       1 RES1    0.0000
     11 C3         2.7167   16.6644    3.9167 C.2       1 RES1    0.0000
     12 C4         5.1401   18.8135    6.6312 C.ar      1 RES1    0.0000
     13 C5         1.7270   16.6665    1.7345 C.3       1 RES1    0.0000
     14 H2         0.9087   16.4269    2.2189 H         1 RES1    0.0000
     15 C6         3.7987   16.9188    6.1274 C.ar      1 RES1    0.0000
     16 H3         3.4112   16.1100    6.3711 H         1 RES1    0.0000
     17 C7         4.9387   19.3519    5.3728 C.ar      1 RES1    0.0000
     18 H4         5.3261   20.1642    5.1342 H         1 RES1    0.0000
     19 C8         4.5830   17.6032    7.0350 C.ar      1 RES1    0.0000
     20 H5         4.7347   17.2650    7.8885 H         1 RES1    0.0000
     21 C9         1.9229   14.1747    1.3389 C.2       1 RES1    0.0000
     22 H6         1.3404   13.9897    2.0394 H         1 RES1    0.0000
     23 C10        2.2684   15.4357    1.0574 C.2       1 RES1    0.0000
     24 C11        3.6888   14.7430   -0.7760 C.2       1 RES1    0.0000
     25 C12        1.4171   17.7936    0.7740 C.3       1 RES1    0.0000
     26 H7         0.9737   18.5028    1.2451 H         1 RES1    0.0000
     27 H8         0.8469   17.4693    0.0734 H         1 RES1    0.0000
     28 H9         2.2346   18.1238    0.3946 H         1 RES1    0.0000
     29 C13        2.4621   13.1172    0.5455 C.2       1 RES1    0.0000
     30 H10        2.2293   12.2365    0.7301 H         1 RES1    0.0000
     31 C14        3.3075   13.3867   -0.4701 C.2       1 RES1    0.0000
     32 H11        3.6491   12.6896   -0.9799 H         1 RES1    0.0000
     33 O7         0.5923    9.1241    2.9146 O.3       2 RES2    0.0000
     34 O8        -0.0180   10.6637    1.3837 O.2       2 RES2    0.0000
     35 O9         1.0186   10.5894    5.5558 O.3       2 RES2    0.0000
     36 O10        4.5187    5.8932   -1.6438 O.2       2 RES2    0.0000
     37 O11        2.3422   11.1879    7.2226 O.2       2 RES2    0.0000
     38 N2         3.7731    6.7742   -2.0588 N.pl3     2 RES2    0.0000
     39 O12        3.6642    7.0695   -3.2396 O.2       2 RES2    0.0000
     40 C15        0.6063    9.6784    1.6876 C.2       2 RES2    0.0000
     41 C16        2.3417    8.6994   -1.4898 C.ar      2 RES2    0.0000
     42 H12        2.4260    9.0056   -2.3637 H         2 RES2    0.0000
     43 C17        1.5857    9.3959   -0.5690 C.ar      2 RES2    0.0000
     44 H13        1.1544   10.1813   -0.8158 H         2 RES2    0.0000
     45 C18        2.8894    7.0336    0.2131 C.ar      2 RES2    0.0000
     46 H14        3.3326    6.2545    0.4599 H         2 RES2    0.0000
     47 C19        2.9739    7.5308   -1.0799 C.ar      2 RES2    0.0000
     48 C20        1.5904   11.5726    6.3711 C.2       2 RES2    0.0000
     49 C21        2.1213    7.7414    1.1217 C.ar      2 RES2    0.0000
     50 H15        2.0380    7.4331    1.9946 H         2 RES2    0.0000
     51 C22        0.1533   10.8900    4.5438 C.2       2 RES2    0.0000
     52 C23       -0.1905   12.1563    4.2665 C.2       2 RES2    0.0000
     53 H16       -0.7742   12.3461    3.5680 H         2 RES2    0.0000
     54 C24       -0.3832    9.6678    3.8606 C.3       2 RES2    0.0000
     55 H17       -1.1987    9.9088    3.3742 H         2 RES2    0.0000
     56 C25       -0.6985    8.5339    4.8171 C.3       2 RES2    0.0000
     57 H18       -1.1312    7.8240    4.3378 H         2 RES2    0.0000
     58 H19       -1.2801    8.8516    5.5105 H         2 RES2    0.0000
     59 H20        0.1158    8.2090    5.2066 H         2 RES2    0.0000
     60 C26        1.2100   12.9324    6.0764 C.2       2 RES2    0.0000
     61 H21        1.5577   13.6254    6.5883 H         2 RES2    0.0000
     62 C27        1.4726    8.9111    0.7372 C.ar      2 RES2    0.0000
     63 C28        0.3572   13.2138    5.0680 C.2       2 RES2    0.0000
     64 H22        0.1240   14.0963    4.8915 H         2 RES2    0.0000
@<TRIPOS>BOND
     1    1   11 1
     2    2   23 1
     3    3   11 2
     4    4    5 2
     5    6   24 2
     6    7    8 1
     7    9    7 ar
     8   10    4 2
     9   11    9 1
    10   12    4 1
    11   13    1 1
    12   14   13 1
    13   15    9 ar
    14   16   15 1
    15   17    7 ar
    16   18   17 1
    17   19   12 ar
    18   20   19 1
    19   21   22 1
    20   23   13 1
    21   24    2 1
    22   25   13 1
    23   26   25 1
    24   27   25 1
    25   28   25 1
    26   29   21 1
    27   30   29 1
    28   31   24 1
    29   32   31 1
    30   33   40 1
    31   34   40 2
    32   35   48 1
    33   36   38 2
    34   37   48 2
    35   38   39 2
    36   40   62 1
    37   41   42 1
    38   43   41 ar
    39   44   43 1
    40   45   46 1
    41   47   38 1
    42   48   60 1
    43   49   45 ar
    44   50   49 1
    45   51   35 1
    46   52   51 2
    47   53   52 1
    48   54   33 1
    49   55   54 1
    50   56   54 1
    51   57   56 1
    52   58   56 1
    53   59   56 1
    54   60   61 1
    55   62   43 ar
    56   63   52 1
    57   64   63 1
    58   12   17 ar
    59   15   19 ar
    60   21   23 2
    61   29   31 2
    62   41   47 ar
    63   45   47 ar
    64   49   62 ar
    65   51   54 1
    66   60   63 2
@<TRIPOS>SUBSTRUCTURE
     1 RES1 1
     2 RES2 33

@<TRIPOS>CRYSIN
   4.2503   29.6140   10.3858  90.0000 100.9390  90.0000   4 1

