# MOL2 file generated by ConQuest
# Please check atom types

@<TRIPOS>MOLECULE
IZOMOZ
    56    58     1
SMALL
NO_CHARGES
****
Generated from CSD

@<TRIPOS>ATOM
      1 C1         4.5433    3.4666    4.5481 C.3       1 RES1    0.0000
      2 H1         4.0870    2.6847    4.1256 H         1 RES1    0.0000
      3 C2         6.0716    3.1825    4.5824 C.3       1 RES1    0.0000
      4 H2         6.2457    2.5588    5.3437 H         1 RES1    0.0000
      5 C3         6.8774    4.4417    4.8298 C.2       1 RES1    0.0000
      6 C4         6.3918    5.6431    4.3918 C.2       1 RES1    0.0000
      7 C5         5.1153    5.7274    3.7214 C.2       1 RES1    0.0000
      8 H3         4.8966    6.5243    3.2520 H         1 RES1    0.0000
      9 C6         4.2124    4.7038    3.7389 C.2       1 RES1    0.0000
     10 C7         4.0141    3.6179    5.9783 C.2       1 RES1    0.0000
     11 O1         3.8803    4.6436    6.5712 O.2       1 RES1    0.0000
     12 O2         3.7190    2.4223    6.4927 O.3       1 RES1    0.0000
     13 C8         3.2198    2.3973    7.8508 C.3       1 RES1    0.0000
     14 H4         3.6523    3.1062    8.3705 H         1 RES1    0.0000
     15 H5         3.4189    1.5271    8.2565 H         1 RES1    0.0000
     16 H6         2.2507    2.5424    7.8452 H         1 RES1    0.0000
     17 C9         8.1905    4.2887    5.4588 C.2       1 RES1    0.0000
     18 O3         8.9732    5.1543    5.7859 O.2       1 RES1    0.0000
     19 O4         8.4695    2.9584    5.6578 O.3       1 RES1    0.0000
     20 C10        9.7048    2.6593    6.3261 C.3       1 RES1    0.0000
     21 H7        10.4207    3.2156    5.9531 H         1 RES1    0.0000
     22 H8         9.9252    1.7132    6.1978 H         1 RES1    0.0000
     23 H9         9.6118    2.8462    7.2838 H         1 RES1    0.0000
     24 C11        7.1426    6.9438    4.5356 C.3       1 RES1    0.0000
     25 H10        7.2196    7.1729    5.4855 H         1 RES1    0.0000
     26 H11        6.6583    7.6545    4.0663 H         1 RES1    0.0000
     27 H12        8.0380    6.8472    4.1489 H         1 RES1    0.0000
     28 N1         3.0070    4.7088    3.0792 N.3       1 RES1    0.0000
     29 C12        2.6740    5.8927    2.2717 C.3       1 RES1    0.0000
     30 H13        3.4708    6.1685    1.7532 H         1 RES1    0.0000
     31 H14        2.4296    6.6392    2.8737 H         1 RES1    0.0000
     32 C13        1.5209    5.6215    1.3140 C.3       1 RES1    0.0000
     33 H15        1.8342    5.0164    0.5959 H         1 RES1    0.0000
     34 H16        1.2445    6.4723    0.8924 H         1 RES1    0.0000
     35 C14        0.3143    4.9942    2.0017 C.3       1 RES1    0.0000
     36 H17       -0.0824    5.6403    2.6366 H         1 RES1    0.0000
     37 H18       -0.3720    4.7619    1.3269 H         1 RES1    0.0000
     38 C15        0.7458    3.7427    2.7467 C.3       1 RES1    0.0000
     39 H19       -0.0294    3.3579    3.2280 H         1 RES1    0.0000
     40 H20        1.0751    3.0678    2.1015 H         1 RES1    0.0000
     41 C16        1.8459    4.0812    3.7381 C.3       1 RES1    0.0000
     42 H21        1.4881    4.6989    4.4243 H         1 RES1    0.0000
     43 H22        2.1389    3.2539    4.1954 H         1 RES1    0.0000
     44 C17        6.5234    2.4844    3.2978 C.ar      1 RES1    0.0000
     45 C18        6.6470    1.1021    3.1376 C.ar      1 RES1    0.0000
     46 C19        7.0810    0.5008    1.9596 C.ar      1 RES1    0.0000
     47 H23        7.1558   -0.4433    1.9026 H         1 RES1    0.0000
     48 C20        7.4006    1.2917    0.8756 C.ar      1 RES1    0.0000
     49 H24        7.6798    0.8976    0.0578 H         1 RES1    0.0000
     50 C21        7.3096    2.6677    0.9948 C.ar      1 RES1    0.0000
     51 H25        7.5362    3.2211    0.2567 H         1 RES1    0.0000
     52 C22        6.8908    3.2449    2.1845 C.ar      1 RES1    0.0000
     53 H26        6.8523    4.1926    2.2448 H         1 RES1    0.0000
     54 N2         6.3276    0.1817    4.2374 N.pl3     1 RES1    0.0000
     55 O5         5.4079    0.4595    5.0010 O.2       1 RES1    0.0000
     56 O6         6.9868   -0.8476    4.3264 O.2       1 RES1    0.0000
@<TRIPOS>BOND
     1    1    2 1
     2    3    1 1
     3    4    3 1
     4    5    3 1
     5    6    5 2
     6    7    6 1
     7    8    7 1
     8    9    1 1
     9   10    1 1
    10   11   10 2
    11   12   10 1
    12   13   12 1
    13   14   13 1
    14   15   13 1
    15   16   13 1
    16   17    5 1
    17   18   17 2
    18   19   17 1
    19   20   19 1
    20   21   20 1
    21   22   20 1
    22   23   20 1
    23   24    6 1
    24   25   24 1
    25   26   24 1
    26   27   24 1
    27   28    9 1
    28   29   28 1
    29   30   29 1
    30   31   29 1
    31   32   29 1
    32   33   32 1
    33   34   32 1
    34   35   32 1
    35   36   35 1
    36   37   35 1
    37   38   35 1
    38   39   38 1
    39   40   38 1
    40   41   28 1
    41   42   41 1
    42   43   41 1
    43   44    3 1
    44   45   44 ar
    45   46   45 ar
    46   47   46 1
    47   48   46 ar
    48   49   48 1
    49   50   48 ar
    50   51   50 1
    51   52   44 ar
    52   53   52 1
    53   54   45 1
    54   55   54 2
    55   56   54 2
    56    7    9 2
    57   38   41 1
    58   50   52 ar
@<TRIPOS>SUBSTRUCTURE
     1 RES1 1

@<TRIPOS>CRYSIN
   9.9699   27.3670    7.5327  90.0000  94.8990  90.0000  14 1

