# MOL2 file generated by ConQuest
# Please check atom types

@<TRIPOS>MOLECULE
IZOMUF
    54    46     2
SMALL
NO_CHARGES
****
Generated from CSD

@<TRIPOS>ATOM
      1 C1         2.7201   -1.3527    6.5762 C.2       1 RES1    0.0000
      2 C2         1.8213   -0.1954    6.1607 C.3       1 RES1    0.0000
      3 H1         0.8998   -0.5482    5.9973 H         1 RES1    0.0000
      4 C3         2.3026    0.5024    4.9041 C.2       1 RES1    0.0000
      5 C4         3.5160    0.2425    4.3615 C.2       1 RES1    0.0000
      6 C5         4.4202   -0.8247    4.8566 C.3       1 RES1    0.0000
      7 H2         5.2683   -0.4057    5.1480 H         1 RES1    0.0000
      8 H3         4.6326   -1.4295    4.1018 H         1 RES1    0.0000
      9 C6         3.8846   -1.6530    5.9932 C.2       1 RES1    0.0000
     10 C7         2.1377   -2.1163    7.7281 C.2       1 RES1    0.0000
     11 O1         0.9667   -2.3430    7.8523 O.2       1 RES1    0.0000
     12 O2         3.0689   -2.4263    8.6702 O.3       1 RES1    0.0000
     13 C8         2.6150   -3.1941    9.8202 C.3       1 RES1    0.0000
     14 H4         1.6985   -2.9117   10.0654 H         1 RES1    0.0000
     15 H5         3.2089   -3.0159   10.5923 H         1 RES1    0.0000
     16 C9         2.6221   -4.6606    9.5114 C.3       1 RES1    0.0000
     17 H6         2.0059   -4.8407    8.7711 H         1 RES1    0.0000
     18 H7         2.3381   -5.1624   10.3038 H         1 RES1    0.0000
     19 H8         3.5275   -4.9363    9.2566 H         1 RES1    0.0000
     20 O3         0.9244   -2.3334    7.7693 Du        2 SUP2    0.0000
     21 O4         2.9151   -2.7321    8.5154 Du        2 SUP2    0.0000
     22 C10        2.2484   -3.4831    9.6195 Du        2 SUP2    0.0000
     23 H9         1.7986   -2.8514   10.2372 Du        2 SUP2    0.0000
     24 H10        1.5604   -4.0941    9.2479 Du        2 SUP2    0.0000
     25 C11        3.2343   -4.2258   10.3134 Du        2 SUP2    0.0000
     26 H11        2.8100   -4.7441   11.0295 Du        2 SUP2    0.0000
     27 H12        3.8919   -3.6116   10.7014 Du        2 SUP2    0.0000
     28 H13        3.6823   -4.8344    9.6909 Du        2 SUP2    0.0000
     29 O5         0.2029    1.5172    4.7228 O.3       1 RES1    0.0000
     30 C12        1.4516    1.4872    4.2491 C.2       1 RES1    0.0000
     31 O6         1.8109    2.2107    3.3202 O.2       1 RES1    0.0000
     32 C13       -0.7102    2.4309    4.0660 C.3       1 RES1    0.0000
     33 H14       -0.4653    3.3532    4.2881 H         1 RES1    0.0000
     34 H15       -1.6252    2.2525    4.3701 H         1 RES1    0.0000
     35 H16       -0.6582    2.3039    3.0961 H         1 RES1    0.0000
     36 O7         4.0207    0.9041    3.3003 O.3       1 RES1    0.0000
     37 H17        3.3234    1.5005    3.0691 H         1 RES1    0.0000
     38 C14        4.7895   -2.7984    6.3640 C.3       1 RES1    0.0000
     39 H18        5.5768   -2.4531    6.8341 H         1 RES1    0.0000
     40 H19        5.0739   -3.2664    5.5514 H         1 RES1    0.0000
     41 H20        4.3070   -3.4207    6.9480 H         1 RES1    0.0000
     42 C15        1.7621    0.8202    7.3134 C.ar      1 RES1    0.0000
     43 C16        0.6219    1.4365    7.8362 C.ar      1 RES1    0.0000
     44 C17        0.6827    2.3814    8.8591 C.ar      1 RES1    0.0000
     45 H21       -0.1143    2.7795    9.1881 H         1 RES1    0.0000
     46 C18        1.9005    2.7346    9.3896 C.ar      1 RES1    0.0000
     47 H22        1.9493    3.3627   10.1011 H         1 RES1    0.0000
     48 C19        3.0554    2.1683    8.8795 C.ar      1 RES1    0.0000
     49 H23        3.9021    2.4214    9.2286 H         1 RES1    0.0000
     50 C20        2.9795    1.2331    7.8626 C.ar      1 RES1    0.0000
     51 H24        3.7848    0.8580    7.5251 H         1 RES1    0.0000
     52 N1        -0.7300    1.1384    7.3385 N.pl3     1 RES1    0.0000
     53 O8        -1.0112   -0.0084    7.0060 O.2       1 RES1    0.0000
     54 O9        -1.5361    2.0709    7.3010 O.2       1 RES1    0.0000
@<TRIPOS>BOND
     1    1    2 1
     2    2    3 1
     3    4    2 1
     4    5    4 2
     5    6    5 1
     6    7    6 1
     7    8    6 1
     8    9    1 2
     9   10    1 1
    10   11   10 2
    11   12   10 1
    12   13   12 1
    13   14   13 1
    14   15   13 1
    15   16   13 1
    16   17   16 1
    17   18   16 1
    18   19   16 1
    19   29   30 1
    20   30    4 1
    21   31   30 2
    22   32   29 1
    23   33   32 1
    24   34   32 1
    25   35   32 1
    26   36    5 1
    27   37   36 1
    28   38    9 1
    29   39   38 1
    30   40   38 1
    31   41   38 1
    32   42    2 1
    33   43   42 ar
    34   44   43 ar
    35   45   44 1
    36   46   44 ar
    37   47   46 1
    38   48   46 ar
    39   49   48 1
    40   50   42 ar
    41   51   50 1
    42   52   43 1
    43   53   52 2
    44   54   52 2
    45    6    9 1
    46   48   50 ar
@<TRIPOS>SUBSTRUCTURE
     1 RES1 1
     2 SUP2 20

@<TRIPOS>CRYSIN
   7.8831   11.0529   11.1387 111.8090 106.5930  97.0210   2 1

