# MOL2 file generated by ConQuest
# Please check atom types

@<TRIPOS>MOLECULE
IZONAM
    45    46     1
SMALL
NO_CHARGES
****
Generated from CSD

@<TRIPOS>ATOM
      1 C1         3.2182    5.8213   10.1805 C.3       1 RES1    0.0000
      2 H1         2.6900    5.9671   11.0165 H         1 RES1    0.0000
      3 C2         2.2907    6.0713    8.9604 C.3       1 RES1    0.0000
      4 H2         2.2068    7.0613    8.8456 H         1 RES1    0.0000
      5 C3         2.9163    5.5198    7.7001 C.2       1 RES1    0.0000
      6 C4         3.7575    4.4512    7.7794 C.2       1 RES1    0.0000
      7 C5         4.0457    3.8123    9.0490 C.2       1 RES1    0.0000
      8 H3         4.4326    2.9446    9.0555 H         1 RES1    0.0000
      9 C6         3.7794    4.4155   10.2040 C.2       1 RES1    0.0000
     10 C7         4.3801    6.8159   10.1572 C.2       1 RES1    0.0000
     11 O1         5.5272    6.5390    9.9864 O.2       1 RES1    0.0000
     12 O2         3.9436    8.0680   10.3471 O.3       1 RES1    0.0000
     13 C8         4.9666    9.0892   10.2994 C.3       1 RES1    0.0000
     14 H4         5.6774    8.8692   10.9375 H         1 RES1    0.0000
     15 H5         4.5743    9.9560   10.5331 H         1 RES1    0.0000
     16 H6         5.3415    9.1335    9.3951 H         1 RES1    0.0000
     17 C9         2.6017    6.0898    6.4096 C.2       1 RES1    0.0000
     18 O3         3.1025    5.7304    5.3386 O.2       1 RES1    0.0000
     19 O4         1.6754    7.0548    6.4793 O.3       1 RES1    0.0000
     20 C10        1.2732    7.6915    5.2366 C.3       1 RES1    0.0000
     21 H7         0.8249    7.0378    4.6427 H         1 RES1    0.0000
     22 H8         2.0629    8.0585    4.7653 H         1 RES1    0.0000
     23 C11        0.3275    8.7930    5.6108 C.3       1 RES1    0.0000
     24 H9        -0.4218    8.4212    6.1215 H         1 RES1    0.0000
     25 H10       -0.0122    9.2217    4.7984 H         1 RES1    0.0000
     26 H11        0.7987    9.4566    6.1580 H         1 RES1    0.0000
     27 O5         4.3569    3.8932    6.7149 O.3       1 RES1    0.0000
     28 H12        4.0763    4.4074    6.0106 H         1 RES1    0.0000
     29 C12        4.0832    3.8053   11.5307 C.3       1 RES1    0.0000
     30 H13        4.3550    2.8712   11.4069 H         1 RES1    0.0000
     31 H14        3.2839    3.8405   12.0967 H         1 RES1    0.0000
     32 H15        4.8100    4.3031   11.9599 H         1 RES1    0.0000
     33 C13        0.8831    5.5164    9.2109 C.ar      1 RES1    0.0000
     34 C14       -0.2127    6.3114    9.5537 C.ar      1 RES1    0.0000
     35 C15       -1.4913    5.8258    9.7377 C.ar      1 RES1    0.0000
     36 H16       -2.2042    6.4151    9.9529 H         1 RES1    0.0000
     37 C16       -1.7194    4.4725    9.6053 C.ar      1 RES1    0.0000
     38 H17       -2.5879    4.1152    9.7465 H         1 RES1    0.0000
     39 C17       -0.6673    3.6399    9.2644 C.ar      1 RES1    0.0000
     40 H18       -0.8157    2.7067    9.1734 H         1 RES1    0.0000
     41 C18        0.6069    4.1614    9.0546 C.ar      1 RES1    0.0000
     42 H19        1.3087    3.5747    8.7972 H         1 RES1    0.0000
     43 N1        -0.0486    7.7601    9.7352 N.pl3     1 RES1    0.0000
     44 O6         0.9190    8.1650   10.3690 O.2       1 RES1    0.0000
     45 O7        -0.8999    8.4960    9.2532 O.2       1 RES1    0.0000
@<TRIPOS>BOND
     1    1    2 1
     2    3    1 1
     3    4    3 1
     4    5    3 1
     5    6    5 2
     6    7    6 1
     7    8    7 1
     8    9    1 1
     9   10    1 1
    10   11   10 2
    11   12   10 1
    12   13   12 1
    13   14   13 1
    14   15   13 1
    15   16   13 1
    16   17    5 1
    17   18   17 2
    18   19   17 1
    19   20   19 1
    20   21   20 1
    21   22   20 1
    22   23   20 1
    23   24   23 1
    24   25   23 1
    25   26   23 1
    26   27    6 1
    27   28   27 1
    28   29    9 1
    29   30   29 1
    30   31   29 1
    31   32   29 1
    32   33    3 1
    33   34   33 ar
    34   35   34 ar
    35   36   35 1
    36   37   35 ar
    37   38   37 1
    38   39   37 ar
    39   40   39 1
    40   41   33 ar
    41   42   41 1
    42   43   34 1
    43   44   43 2
    44   45   43 2
    45    7    9 2
    46   39   41 ar
@<TRIPOS>SUBSTRUCTURE
     1 RES1 1

@<TRIPOS>CRYSIN
  10.0375   14.6865   12.0113  90.0000 100.9530  90.0000 231 1

