# MOL2 file generated by ConQuest
# Please check atom types

@<TRIPOS>MOLECULE
IZUBUC
    36    39     1
SMALL
USER_CHARGES
****
Generated from CSD

@<TRIPOS>ATOM
      1 N1        -1.5884    0.4665    2.3253 N.pl3     1 RES1    0.0000
      2 N2        -0.4784   -0.0945    1.7547 N.pl3     1 RES1    1.0000
      3 N3        -2.3317    1.1209    1.4191 N.2       1 RES1    0.0000
      4 C1        -1.9049    0.3459    3.7117 C.ar      1 RES1    0.0000
      5 C2        -1.6826    0.9726    0.2730 C.2       1 RES1    0.0000
      6 H1        -1.9685    1.3208   -0.5406 H         1 RES1    0.0000
      7 C3        -0.5136    0.2263    0.4428 C.2       1 RES1    0.0000
      8 C4        -3.1708   -0.0811    4.0515 C.ar      1 RES1    0.0000
      9 H2        -3.7962   -0.2905    3.3952 H         1 RES1    0.0000
     10 C5        -0.9627    0.6698    4.6555 C.ar      1 RES1    0.0000
     11 H3        -0.1188    0.9688    4.4035 H         1 RES1    0.0000
     12 C6        -1.3027    0.5399    5.9908 C.ar      1 RES1    0.0000
     13 H4        -0.6754    0.7420    6.6477 H         1 RES1    0.0000
     14 C7        -3.4850   -0.1898    5.3953 C.ar      1 RES1    0.0000
     15 H5        -4.3347   -0.4723    5.6486 H         1 RES1    0.0000
     16 C8        -2.5569    0.1149    6.3571 C.ar      1 RES1    0.0000
     17 H6        -2.7767    0.0338    7.2581 H         1 RES1    0.0000
     18 O1         0.3514   -0.8143    2.4052 O.2       1 RES1   -1.0000
     19 N1B        1.5884   -0.4665   -2.3253 N.pl3     1 RES1    0.0000
     20 N2B        0.4784    0.0945   -1.7547 N.pl3     1 RES1    1.0000
     21 N3B        2.3317   -1.1209   -1.4191 N.2       1 RES1    0.0000
     22 C1B        1.9049   -0.3459   -3.7117 C.ar      1 RES1    0.0000
     23 C2B        1.6826   -0.9726   -0.2730 C.2       1 RES1    0.0000
     24 H1B        1.9685   -1.3208    0.5406 H         1 RES1    0.0000
     25 C3B        0.5136   -0.2263   -0.4428 C.2       1 RES1    0.0000
     26 C4B        3.1708    0.0811   -4.0515 C.ar      1 RES1    0.0000
     27 H2B        3.7962    0.2905   -3.3952 H         1 RES1    0.0000
     28 C5B        0.9627   -0.6698   -4.6555 C.ar      1 RES1    0.0000
     29 H3B        0.1188   -0.9688   -4.4035 H         1 RES1    0.0000
     30 C6B        1.3027   -0.5399   -5.9908 C.ar      1 RES1    0.0000
     31 H4B        0.6754   -0.7420   -6.6477 H         1 RES1    0.0000
     32 C7B        3.4850    0.1898   -5.3953 C.ar      1 RES1    0.0000
     33 H5B        4.3347    0.4723   -5.6486 H         1 RES1    0.0000
     34 C8B        2.5569   -0.1149   -6.3571 C.ar      1 RES1    0.0000
     35 H6B        2.7767   -0.0338   -7.2581 H         1 RES1    0.0000
     36 O1B       -0.3514    0.8143   -2.4052 O.2       1 RES1   -1.0000
@<TRIPOS>BOND
     1    1    2 1
     2    2    7 2
     3    3    1 1
     4    4    1 1
     5    5    3 2
     6    6    5 1
     7    7    5 1
     8    8    4 ar
     9    9    8 1
    10   10    4 ar
    11   11   10 1
    12   12   10 ar
    13   13   12 1
    14   14    8 ar
    15   15   14 1
    16   16   12 ar
    17   17   16 1
    18   18    2 1
    19   19   20 1
    20   20   25 2
    21   21   19 1
    22   22   19 1
    23   23   21 2
    24   24   23 1
    25   25    7 1
    26   26   22 ar
    27   27   26 1
    28   28   22 ar
    29   29   28 1
    30   30   28 ar
    31   31   30 1
    32   32   26 ar
    33   33   32 1
    34   34   30 ar
    35   35   34 1
    36   36   20 1
    37   14   16 ar
    38   23   25 1
    39   32   34 ar
@<TRIPOS>SUBSTRUCTURE
     1 RES1 1

@<TRIPOS>CRYSIN
   6.2930    3.8428   30.4720  90.0000  94.7200  90.0000  14 1

