# MOL2 file generated by ConQuest
# Please check atom types

@<TRIPOS>MOLECULE
IZUFIS
    29    31     1
SMALL
NO_CHARGES
****
Generated from CSD

@<TRIPOS>ATOM
      1 O1         1.8913    3.5117    3.0544 O.2       1 RES1    0.0000
      2 O2         3.2731    3.8007    1.4055 O.2       1 RES1    0.0000
      3 N1         2.6798    4.1982    2.3974 N.pl3     1 RES1    0.0000
      4 N2         2.9905    7.2624    4.5046 N.ar      1 RES1    0.0000
      5 C1         2.8526    5.6004    2.8095 C.ar      1 RES1    0.0000
      6 C2         2.8415    6.5217    1.7955 C.ar      1 RES1    0.0000
      7 C3         2.8696    7.8863    2.1350 C.ar      1 RES1    0.0000
      8 C4         2.8066    8.9077    1.1545 C.ar      1 RES1    0.0000
      9 C5         2.7910   10.2003    1.5672 C.ar      1 RES1    0.0000
     10 C6         2.8607   10.5405    2.9412 C.ar      1 RES1    0.0000
     11 C7         2.9334    9.5660    3.9067 C.ar      1 RES1    0.0000
     12 C8         2.9275    8.2024    3.5184 C.ar      1 RES1    0.0000
     13 C9         2.9542    5.9844    4.1785 C.ar      1 RES1    0.0000
     14 C10        3.0662    5.0360    5.3170 C.ar      1 RES1    0.0000
     15 C11        2.4602    5.3615    6.5040 C.ar      1 RES1    0.0000
     16 C12        2.6049    4.5477    7.6134 C.ar      1 RES1    0.0000
     17 C13        3.3480    3.3991    7.5327 C.ar      1 RES1    0.0000
     18 C14        3.9533    3.0600    6.3332 C.ar      1 RES1    0.0000
     19 C15        3.8235    3.8738    5.2429 C.ar      1 RES1    0.0000
     20 H1         2.7888    6.2181    0.8130 H         1 RES1    0.0000
     21 H2         2.7962    8.7011    0.1563 H         1 RES1    0.0000
     22 H3         2.7443   10.9338    0.9068 H         1 RES1    0.0000
     23 H4         2.8185   11.4972    3.2207 H         1 RES1    0.0000
     24 H5         2.9965    9.7862    4.8780 H         1 RES1    0.0000
     25 H6         1.9210    6.2076    6.5978 H         1 RES1    0.0000
     26 H7         2.1509    4.7887    8.4739 H         1 RES1    0.0000
     27 H8         3.4786    2.7960    8.3176 H         1 RES1    0.0000
     28 H9         4.4873    2.2222    6.2851 H         1 RES1    0.0000
     29 H10        4.2574    3.6098    4.3777 H         1 RES1    0.0000
@<TRIPOS>BOND
     1    1    3 2
     2    2    3 2
     3    3    5 1
     4    4   12 ar
     5    5    6 ar
     6    6    7 ar
     7    7    8 ar
     8    8    9 ar
     9    9   10 ar
    10   10   11 ar
    11   11   12 ar
    12   12    7 ar
    13   13    4 ar
    14   14   13 1
    15   15   14 ar
    16   16   15 ar
    17   17   16 ar
    18   18   17 ar
    19   19   14 ar
    20   20    6 1
    21   21    8 1
    22   22    9 1
    23   23   10 1
    24   24   11 1
    25   25   15 1
    26   26   16 1
    27   27   17 1
    28   28   18 1
    29   29   19 1
    30    5   13 ar
    31   18   19 ar
@<TRIPOS>SUBSTRUCTURE
     1 RES1 1

@<TRIPOS>CRYSIN
   7.4170   10.4330   31.2690  90.0000  90.0000  90.0000  61 3

