# MOL2 file generated by ConQuest
# Please check atom types

@<TRIPOS>MOLECULE
IZUFUE
    25    26     1
SMALL
NO_CHARGES
****
Generated from CSD

@<TRIPOS>ATOM
      1 O1        -1.1007    4.4442    7.8238 O.2       1 RES1    0.0000
      2 O2        -0.0084    5.2621    6.2469 O.2       1 RES1    0.0000
      3 N1        -0.9831    4.7463    6.6726 N.pl3     1 RES1    0.0000
      4 N2        -4.1840    3.5009    5.2566 N.ar      1 RES1    0.0000
      5 C1        -2.1138    4.5164    5.7596 C.ar      1 RES1    0.0000
      6 C2        -3.1184    5.0104    3.6705 C.ar      1 RES1    0.0000
      7 C3        -3.1718    5.6418    2.4053 C.ar      1 RES1    0.0000
      8 C4        -4.2129    5.4159    1.5769 C.ar      1 RES1    0.0000
      9 C5        -5.2547    4.5718    1.9649 C.ar      1 RES1    0.0000
     10 C6        -5.2485    3.9546    3.1777 C.ar      1 RES1    0.0000
     11 C7        -4.1788    4.1548    4.0585 C.ar      1 RES1    0.0000
     12 C8        -2.0658    5.1648    4.5707 C.ar      1 RES1    0.0000
     13 C9        -3.1972    3.6651    6.1062 C.ar      1 RES1    0.0000
     14 C10       -3.3557    2.8712    7.3861 C.3       1 RES1    0.0000
     15 C11       -4.1805    3.5161    8.3874 C.3       1 RES1    0.0000
     16 H1        -2.4097    6.2588    2.1240 H         1 RES1    0.0000
     17 H2        -4.2319    5.8561    0.6896 H         1 RES1    0.0000
     18 H3        -6.0172    4.4271    1.3332 H         1 RES1    0.0000
     19 H4        -6.0121    3.3475    3.4388 H         1 RES1    0.0000
     20 H5        -1.2845    5.7545    4.3399 H         1 RES1    0.0000
     21 H6        -2.3856    2.6548    7.8063 H         1 RES1    0.0000
     22 H7        -3.8363    1.8886    7.1535 H         1 RES1    0.0000
     23 H8        -5.1051    3.9019    7.9810 H         1 RES1    0.0000
     24 H9        -3.6305    4.3711    8.8269 H         1 RES1    0.0000
     25 H10       -4.3770    2.7941    9.1671 H         1 RES1    0.0000
@<TRIPOS>BOND
     1    1    3 2
     2    2    3 2
     3    3    5 1
     4    4   11 ar
     5    5   12 ar
     6    6    7 ar
     7    7    8 ar
     8    8    9 ar
     9    9   10 ar
    10   10   11 ar
    11   11    6 ar
    12   12    6 ar
    13   13    4 ar
    14   14   13 1
    15   15   14 1
    16   16    7 1
    17   17    8 1
    18   18    9 1
    19   19   10 1
    20   20   12 1
    21   21   14 1
    22   22   14 1
    23   23   15 1
    24   24   15 1
    25   25   15 1
    26    5   13 ar
@<TRIPOS>SUBSTRUCTURE
     1 RES1 1

@<TRIPOS>CRYSIN
   7.0440    7.9440   10.0100  98.9800 107.9700 105.4400   2 1

