# MOL2 file generated by ConQuest
# Please check atom types

@<TRIPOS>MOLECULE
IZUGER
   100   106     1
SMALL
NO_CHARGES
****
Generated from CSD

@<TRIPOS>ATOM
      1 O1         2.3809   -5.9990   -7.4086 O.2       1 RES1    0.0000
      2 O2         2.2615   -4.0967   -8.4052 O.2       1 RES1    0.0000
      3 N1         2.3725   -4.7794   -7.3951 N.pl3     1 RES1    0.0000
      4 N2         4.7297    4.4364    9.4822 N.3       1 RES1    0.0000
      5 C1         3.8263   -0.8391   -0.2669 C.ar      1 RES1    0.0000
      6 C2         3.7497   -1.5526    0.9654 C.ar      1 RES1    0.0000
      7 C3         3.4752   -2.9316    1.0039 C.ar      1 RES1    0.0000
      8 H1         3.3487   -3.4022    0.1877 H         1 RES1    0.0000
      9 C4         3.3840   -3.6228    2.2032 C.ar      1 RES1    0.0000
     10 C5         3.0798   -5.0232    2.2481 C.ar      1 RES1    0.0000
     11 H2         2.9636   -5.5046    1.4369 H         1 RES1    0.0000
     12 C6         2.9545   -5.6704    3.4335 C.ar      1 RES1    0.0000
     13 H3         2.7218   -6.5910    3.4438 H         1 RES1    0.0000
     14 C7         3.1664   -4.9902    4.6560 C.ar      1 RES1    0.0000
     15 H4         3.0851   -5.4614    5.4770 H         1 RES1    0.0000
     16 C8         3.4841   -3.6705    4.6682 C.ar      1 RES1    0.0000
     17 H5         3.6394   -3.2320    5.4963 H         1 RES1    0.0000
     18 C9         3.5880   -2.9307    3.4432 C.ar      1 RES1    0.0000
     19 C10        3.8712   -1.5724    3.4166 C.ar      1 RES1    0.0000
     20 H6         4.0180   -1.1159    4.2361 H         1 RES1    0.0000
     21 C11        3.9462   -0.8518    2.2074 C.ar      1 RES1    0.0000
     22 C12        4.1899    0.5506    2.1990 C.ar      1 RES1    0.0000
     23 C13        4.2518    1.2620    0.9658 C.ar      1 RES1    0.0000
     24 C14        4.4494    2.6564    0.9434 C.ar      1 RES1    0.0000
     25 H7         4.5640    3.1209    1.7640 H         1 RES1    0.0000
     26 C15        4.4810    3.3679   -0.2471 C.ar      1 RES1    0.0000
     27 C16        4.6009    4.7945   -0.2740 C.ar      1 RES1    0.0000
     28 H8         4.6639    5.2743    0.5425 H         1 RES1    0.0000
     29 C17        4.6249    5.4693   -1.4514 C.ar      1 RES1    0.0000
     30 H9         4.6925    6.4176   -1.4493 H         1 RES1    0.0000
     31 C18        4.5501    4.7736   -2.6810 C.ar      1 RES1    0.0000
     32 H10        4.5890    5.2588   -3.4963 H         1 RES1    0.0000
     33 C19        4.4230    3.4215   -2.7106 C.ar      1 RES1    0.0000
     34 H11        4.3756    2.9716   -3.5460 H         1 RES1    0.0000
     35 C20        4.3598    2.6681   -1.4938 C.ar      1 RES1    0.0000
     36 C21        4.1607    1.2923   -1.4844 C.ar      1 RES1    0.0000
     37 H12        4.0768    0.8312   -2.3106 H         1 RES1    0.0000
     38 C22        4.0798    0.5658   -0.2806 C.ar      1 RES1    0.0000
     39 C23        3.6273   -1.5350   -1.4899 C.1       1 RES1    0.0000
     40 C24        3.4169   -2.1289   -2.5159 C.1       1 RES1    0.0000
     41 C25        3.1109   -2.8025   -3.7358 C.ar      1 RES1    0.0000
     42 C26        3.0866   -4.2009   -3.7993 C.ar      1 RES1    0.0000
     43 H13        3.2528   -4.7097   -3.0146 H         1 RES1    0.0000
     44 C27        2.8234   -4.8464   -4.9894 C.ar      1 RES1    0.0000
     45 H14        2.8138   -5.7961   -5.0326 H         1 RES1    0.0000
     46 C28        2.5743   -4.0934   -6.1143 C.ar      1 RES1    0.0000
     47 C29        2.5507   -2.7144   -6.0790 C.ar      1 RES1    0.0000
     48 H15        2.3470   -2.2167   -6.8615 H         1 RES1    0.0000
     49 C30        2.8265   -2.0700   -4.8969 C.ar      1 RES1    0.0000
     50 H16        2.8241   -1.1208   -4.8669 H         1 RES1    0.0000
     51 C31        4.3287    1.2415    3.4338 C.1       1 RES1    0.0000
     52 C32        4.4201    1.7978    4.4977 C.1       1 RES1    0.0000
     53 C33        4.5088    2.4507    5.7597 C.ar      1 RES1    0.0000
     54 C34        3.8754    1.9449    6.9027 C.ar      1 RES1    0.0000
     55 H17        3.3899    1.1310    6.8366 H         1 RES1    0.0000
     56 C35        3.9330    2.5852    8.1138 C.ar      1 RES1    0.0000
     57 H18        3.4781    2.2123    8.8601 H         1 RES1    0.0000
     58 C36        4.6574    3.7920    8.2757 C.ar      1 RES1    0.0000
     59 C37        5.3154    4.2874    7.1251 C.ar      1 RES1    0.0000
     60 H19        5.8287    5.0836    7.1913 H         1 RES1    0.0000
     61 C38        5.2288    3.6444    5.9165 C.ar      1 RES1    0.0000
     62 H20        5.6690    4.0185    5.1623 H         1 RES1    0.0000
     63 C39        3.9849    3.9414   10.6352 C.3       1 RES1    0.0000
     64 H21        3.0971    3.6283   10.3315 H         1 RES1    0.0000
     65 H22        3.8394    4.6894   11.2674 H         1 RES1    0.0000
     66 C40        4.6836    2.8034   11.3712 C.3       1 RES1    0.0000
     67 H23        5.0747    2.1811   10.7070 H         1 RES1    0.0000
     68 H24        5.4254    3.1748   11.9120 H         1 RES1    0.0000
     69 C41        3.7447    2.0298   12.2833 C.3       1 RES1    0.0000
     70 H25        2.9840    1.6945   11.7436 H         1 RES1    0.0000
     71 H26        3.3792    2.6512   12.9610 H         1 RES1    0.0000
     72 C42        4.3885    0.8507   13.0003 C.3       1 RES1    0.0000
     73 H27        4.8320    0.2705   12.3316 H         1 RES1    0.0000
     74 H28        5.0851    1.1902   13.6166 H         1 RES1    0.0000
     75 C43        3.3907    0.0214   13.7907 C.3       1 RES1    0.0000
     76 H29        2.6886   -0.3039   13.1722 H         1 RES1    0.0000
     77 H30        2.9535    0.6052   14.4600 H         1 RES1    0.0000
     78 C44        3.9976   -1.1731   14.5084 C.3       1 RES1    0.0000
     79 H31        3.2943   -1.6570   14.9900 H         1 RES1    0.0000
     80 H32        4.6747   -0.8617   15.1446 H         1 RES1    0.0000
     81 H33        4.4144   -1.7705   13.8527 H         1 RES1    0.0000
     82 C45        5.5090    5.6677    9.6339 C.3       1 RES1    0.0000
     83 H34        6.3584    5.5729    9.1334 H         1 RES1    0.0000
     84 H35        5.7347    5.7886   10.5910 H         1 RES1    0.0000
     85 C46        4.7790    6.9113    9.1373 C.3       1 RES1    0.0000
     86 H36        4.0097    7.0935    9.7339 H         1 RES1    0.0000
     87 H37        4.4243    6.7365    8.2293 H         1 RES1    0.0000
     88 C47        5.6798    8.1479    9.0916 C.3       1 RES1    0.0000
     89 H38        5.9982    8.3473   10.0072 H         1 RES1    0.0000
     90 H39        6.4720    7.9474    8.5330 H         1 RES1    0.0000
     91 C48        4.9816    9.3780    8.5334 C.3       1 RES1    0.0000
     92 H40        4.2042    9.5871    9.1100 H         1 RES1    0.0000
     93 H41        4.6345    9.1614    7.6317 H         1 RES1    0.0000
     94 C49        5.8603   10.6258    8.4293 C.3       1 RES1    0.0000
     95 H42        6.6853   10.3919    7.9339 H         1 RES1    0.0000
     96 H43        5.3784   11.3103    7.9008 H         1 RES1    0.0000
     97 C50        6.2482   11.2232    9.7461 C.3       1 RES1    0.0000
     98 H44        6.8134   12.0085    9.5944 H         1 RES1    0.0000
     99 H45        6.7427   10.5612   10.2722 H         1 RES1    0.0000
    100 H46        5.4404   11.4907   10.2335 H         1 RES1    0.0000
@<TRIPOS>BOND
     1    1    3 2
     2    2    3 2
     3    3   46 1
     4    4   58 1
     5    5    6 ar
     6    6    7 ar
     7    7    8 1
     8    9    7 ar
     9   10    9 ar
    10   11   10 1
    11   12   10 ar
    12   13   12 1
    13   14   12 ar
    14   15   14 1
    15   16   14 ar
    16   17   16 1
    17   18    9 ar
    18   19   18 ar
    19   20   19 1
    20   21    6 ar
    21   22   21 ar
    22   23   22 ar
    23   24   23 ar
    24   25   24 1
    25   26   24 ar
    26   27   26 ar
    27   28   27 1
    28   29   27 ar
    29   30   29 1
    30   31   29 ar
    31   32   31 1
    32   33   31 ar
    33   34   33 1
    34   35   26 ar
    35   36   35 ar
    36   37   36 1
    37   38    5 ar
    38   39    5 1
    39   40   39 3
    40   41   40 1
    41   42   41 ar
    42   43   42 1
    43   44   42 ar
    44   45   44 1
    45   46   44 ar
    46   47   46 ar
    47   48   47 1
    48   49   41 ar
    49   50   49 1
    50   51   22 1
    51   52   51 3
    52   53   52 1
    53   54   53 ar
    54   55   54 1
    55   56   54 ar
    56   57   56 1
    57   58   56 ar
    58   59   58 ar
    59   60   59 1
    60   61   53 ar
    61   62   61 1
    62   63    4 1
    63   64   63 1
    64   65   63 1
    65   66   63 1
    66   67   66 1
    67   68   66 1
    68   69   66 1
    69   70   69 1
    70   71   69 1
    71   72   69 1
    72   73   72 1
    73   74   72 1
    74   75   72 1
    75   76   75 1
    76   77   75 1
    77   78   75 1
    78   79   78 1
    79   80   78 1
    80   81   78 1
    81   82    4 1
    82   83   82 1
    83   84   82 1
    84   85   82 1
    85   86   85 1
    86   87   85 1
    87   88   85 1
    88   89   88 1
    89   90   88 1
    90   91   88 1
    91   92   91 1
    92   93   91 1
    93   94   91 1
    94   95   94 1
    95   96   94 1
    96   97   94 1
    97   98   97 1
    98   99   97 1
    99  100   97 1
   100   16   18 ar
   101   19   21 ar
   102   23   38 ar
   103   33   35 ar
   104   36   38 ar
   105   47   49 ar
   106   59   61 ar
@<TRIPOS>SUBSTRUCTURE
     1 RES1 1

@<TRIPOS>CRYSIN
  11.3590   12.7835   14.8035  74.2113  72.9134  76.7681   2 1

