# MOL2 file generated by ConQuest
# Please check atom types

@<TRIPOS>MOLECULE
IZULIA
   114    96     3
SMALL
USER_CHARGES
****
Generated from CSD

@<TRIPOS>ATOM
      1 O1         3.2971   -1.8312   -3.6706 O.2       1 RES1    0.0000
      2 N1         3.5041   -0.8058   -2.9252 N.pl3     1 RES1    0.0000
      3 C1         2.9450    0.5502   -3.2279 C.3       1 RES1    0.0000
      4 C2         3.8345    1.0959   -4.3956 C.3       1 RES1    0.0000
      5 H1         4.4644    1.7608   -4.0751 H         1 RES1    0.0000
      6 H2         4.3253    0.3788   -4.8254 H         1 RES1    0.0000
      7 C3         2.8210    1.7169   -5.3526 C.3       1 RES1    0.0000
      8 H3         3.1770    1.7608   -6.2526 H         1 RES1    0.0000
      9 H4         2.5777    2.6109   -5.0650 H         1 RES1    0.0000
     10 C4         1.6371    0.7943   -5.2882 C.3       1 RES1    0.0000
     11 H5         0.8276    1.2253   -5.6071 H         1 RES1    0.0000
     12 H6         1.7881   -0.0202   -5.7929 H         1 RES1    0.0000
     13 C5         1.5827    0.5343   -3.8025 C.3       1 RES1    0.0000
     14 H7         1.1741   -0.3336   -3.6408 H         1 RES1    0.0000
     15 H8         1.0388    1.2075   -3.3712 H         1 RES1    0.0000
     16 C6         3.1017    1.2145   -1.8484 C.3       1 RES1    0.0000
     17 C7         3.3257    2.7237   -1.8076 C.3       1 RES1    0.0000
     18 H9         4.2726    2.9315   -1.8466 H         1 RES1    0.0000
     19 H10        2.8801    3.1571   -2.5535 H         1 RES1    0.0000
     20 C8         2.7366    3.1796   -0.5002 C.3       1 RES1    0.0000
     21 H11        3.3610    3.0478    0.2291 H         1 RES1    0.0000
     22 H12        2.4854    4.1152   -0.5377 H         1 RES1    0.0000
     23 C9         1.5271    2.3010   -0.3415 C.3       1 RES1    0.0000
     24 H13        1.2637    2.2464    0.5916 H         1 RES1    0.0000
     25 H14        0.7807    2.6477   -0.8552 H         1 RES1    0.0000
     26 C10        1.9418    0.9570   -0.8519 C.3       1 RES1    0.0000
     27 H15        1.2003    0.5189   -1.2985 H         1 RES1    0.0000
     28 H16        2.2396    0.3930   -0.1213 H         1 RES1    0.0000
     29 N2         4.2950    0.4650   -1.3372 N.pl3     1 RES1    1.0000
     30 O2         4.9924    0.8761   -0.3510 O.2       1 RES1   -1.0000
     31 C11        4.3809   -0.7482   -1.9057 C.2       1 RES1    0.0000
     32 C12        5.2425   -1.8128   -1.4708 C.2       1 RES1    0.0000
     33 C13        6.1659   -1.7964   -0.4045 C.2       1 RES1    0.0000
     34 H17        6.3358   -1.0520    0.1273 H         1 RES1    0.0000
     35 N3         6.7607   -2.9704   -0.2524 N.2       1 RES1    0.0000
     36 N4         6.2350   -3.7480   -1.2339 N.pl3     1 RES1    0.0000
     37 C14        6.6622   -5.1375   -1.3416 C.3       1 RES1    0.0000
     38 H18        6.6742   -5.3916   -2.2779 H         1 RES1    0.0000
     39 H19        7.5658   -5.2170   -1.0004 H         1 RES1    0.0000
     40 C15        5.8255   -6.0256   -0.6365 C.3       1 RES1    0.0000
     41 H20        6.1525   -6.9220   -0.7413 H         1 RES1    0.0000
     42 H21        5.8249   -5.7917    0.2950 H         1 RES1    0.0000
     43 H22        4.9332   -5.9674   -0.9824 H         1 RES1    0.0000
     44 C16        5.3297   -3.0882   -1.9775 C.2       1 RES1    0.0000
     45 H23        4.8530   -3.4301   -2.6987 H         1 RES1    0.0000
     46 C17        3.7963    1.1956   -4.3387 Du        3 SUP3    0.0000
     47 H24        4.7078    0.8667   -4.3102 Du        3 SUP3    0.0000
     48 H25        3.8072    2.1609   -4.2488 Du        3 SUP3    0.0000
     49 C18        3.0980    0.7706   -5.6461 Du        3 SUP3    0.0000
     50 H26        3.2770    1.4046   -6.3590 Du        3 SUP3    0.0000
     51 H27        3.3865   -0.1116   -5.9261 Du        3 SUP3    0.0000
     52 C19        1.6884    0.7694   -5.2896 Du        3 SUP3    0.0000
     53 H28        1.2210    0.1164   -5.8348 Du        3 SUP3    0.0000
     54 H29        1.3095    1.6420   -5.4784 Du        3 SUP3    0.0000
     55 C20        1.4732    0.4393   -3.8115 Du        3 SUP3    0.0000
     56 H30        0.8765    1.0733   -3.3906 Du        3 SUP3    0.0000
     57 H31        1.1173   -0.4583   -3.6992 Du        3 SUP3    0.0000
     58 O3         6.3694    0.0615    2.7249 O.2       2 RES2    0.0000
     59 N5         5.6228    1.0638    3.0068 N.pl3     2 RES2    0.0000
     60 C21        6.1565    2.4538    3.1705 C.3       2 RES2    0.0000
     61 C22        6.4767    3.0253    1.8002 C.3       2 RES2    0.0000
     62 H32        6.4725    2.3141    1.1412 H         2 RES2    0.0000
     63 H33        5.7985    3.6723    1.5501 H         2 RES2    0.0000
     64 C23        7.8074    3.6818    1.8136 C.3       2 RES2    0.0000
     65 H34        7.7738    4.5783    2.1836 H         2 RES2    0.0000
     66 H35        8.2194    3.7020    0.9360 H         2 RES2    0.0000
     67 C24        8.5362    2.6240    2.8215 C.3       2 RES2    0.0000
     68 H36        8.6800    1.7560    2.4067 H         2 RES2    0.0000
     69 H37        9.3750    2.9612    3.1735 H         2 RES2    0.0000
     70 C25        7.4340    2.5883    3.8789 C.3       2 RES2    0.0000
     71 H38        7.5654    1.8320    4.4764 H         2 RES2    0.0000
     72 H39        7.4446    3.4005    4.4045 H         2 RES2    0.0000
     73 C26        4.9617    3.1276    3.8805 C.3       2 RES2    0.0000
     74 C27        4.7060    4.5949    3.5546 C.3       2 RES2    0.0000
     75 H40        5.5321    5.0366    3.3068 H         2 RES2    0.0000
     76 H41        4.0795    4.6756    2.8186 H         2 RES2    0.0000
     77 C28        4.1354    5.2087    4.8029 C.3       2 RES2    0.0000
     78 H42        4.2797    6.1681    4.8224 H         2 RES2    0.0000
     79 H43        3.1864    5.0283    4.8823 H         2 RES2    0.0000
     80 C29        4.9065    4.5260    5.8692 C.3       2 RES2    0.0000
     81 H44        4.4613    4.6103    6.7259 H         2 RES2    0.0000
     82 H45        5.7989    4.8988    5.9411 H         2 RES2    0.0000
     83 C30        4.9617    3.0656    5.4277 C.3       2 RES2    0.0000
     84 H46        4.1905    2.5777    5.7539 H         2 RES2    0.0000
     85 H47        5.7673    2.6370    5.7554 H         2 RES2    0.0000
     86 N6         3.8478    2.2663    3.3914 N.pl3     2 RES2    1.0000
     87 O4         2.6188    2.6032    3.5123 O.2       2 RES2   -1.0000
     88 C31        4.2764    1.0584    2.9972 C.2       2 RES2    0.0000
     89 C32        3.4299   -0.0341    2.6313 C.2       2 RES2    0.0000
     90 C33        2.0206   -0.0974    2.6670 C.2       2 RES2    0.0000
     91 H48        1.4796    0.5960    2.9713 H         2 RES2    0.0000
     92 N7         1.5589   -1.2431    2.2232 N.2       2 RES2    0.0000
     93 N8         2.6639   -1.9345    1.8789 N.pl3     2 RES2    0.0000
     94 C34        2.5302   -3.2449    1.2071 C.3       2 RES2    0.0000
     95 H49        1.5861   -3.4373    1.1038 H         2 RES2    0.0000
     96 H50        2.9100   -3.1689    0.3175 H         2 RES2    0.0000
     97 C35        3.0935   -4.2660    1.8047 C.3       2 RES2    0.0000
     98 H51        2.9474   -5.0603    1.2865 H         2 RES2    0.0000
     99 H52        4.0361   -4.1081    1.8885 H         2 RES2    0.0000
    100 H53        2.7089   -4.3776    2.6778 H         2 RES2    0.0000
    101 C36        3.8000   -1.2479    2.1163 C.2       2 RES2    0.0000
    102 H54        4.6683   -1.5423    1.9604 H         2 RES2    0.0000
    103 C37        6.4481    2.9588    1.6983 Du        3 SUP3    0.0000
    104 H55        6.3709    2.2428    1.0483 Du        3 SUP3    0.0000
    105 H56        5.8634    3.6913    1.4452 Du        3 SUP3    0.0000
    106 C38        7.8968    3.4195    1.8646 Du        3 SUP3    0.0000
    107 H57        8.3739    3.2105    1.0468 Du        3 SUP3    0.0000
    108 H58        7.8965    4.3847    1.9589 Du        3 SUP3    0.0000
    109 C39        8.5387    2.9327    2.8275 Du        3 SUP3    0.0000
    110 H59        9.1173    3.6094    3.2094 Du        3 SUP3    0.0000
    111 H60        9.0958    2.2025    2.5115 Du        3 SUP3    0.0000
    112 C40        7.5616    2.4114    3.9103 Du        3 SUP3    0.0000
    113 H61        7.5634    2.9885    4.6906 Du        3 SUP3    0.0000
    114 H62        7.7863    1.5079    4.1829 Du        3 SUP3    0.0000
@<TRIPOS>BOND
     1    1    2 1
     2    2    3 1
     3    3    4 1
     4    4    5 1
     5    6    4 1
     6    7    4 1
     7    8    7 1
     8    9    7 1
     9   10    7 1
    10   11   10 1
    11   12   10 1
    12   13    3 1
    13   14   13 1
    14   15   13 1
    15   16    3 1
    16   17   16 1
    17   18   17 1
    18   19   17 1
    19   20   17 1
    20   21   20 1
    21   22   20 1
    22   23   20 1
    23   24   23 1
    24   25   23 1
    25   26   16 1
    26   27   26 1
    27   28   26 1
    28   29   16 1
    29   30   29 1
    30   31    2 1
    31   32   31 1
    32   33   32 1
    33   34   33 1
    34   35   33 2
    35   36   35 1
    36   37   36 1
    37   38   37 1
    38   39   37 1
    39   40   37 1
    40   41   40 1
    41   42   40 1
    42   43   40 1
    43   44   32 2
    44   45   44 1
    45   58   59 1
    46   59   60 1
    47   60   61 1
    48   61   62 1
    49   63   61 1
    50   64   61 1
    51   65   64 1
    52   66   64 1
    53   67   64 1
    54   68   67 1
    55   69   67 1
    56   70   60 1
    57   71   70 1
    58   72   70 1
    59   73   60 1
    60   74   73 1
    61   75   74 1
    62   76   74 1
    63   77   74 1
    64   78   77 1
    65   79   77 1
    66   80   77 1
    67   81   80 1
    68   82   80 1
    69   83   73 1
    70   84   83 1
    71   85   83 1
    72   86   73 1
    73   87   86 1
    74   88   59 1
    75   89   88 1
    76   90   89 1
    77   91   90 1
    78   92   90 2
    79   93   92 1
    80   94   93 1
    81   95   94 1
    82   96   94 1
    83   97   94 1
    84   98   97 1
    85   99   97 1
    86  100   97 1
    87  101   89 2
    88  102  101 1
    89   10   13 1
    90   23   26 1
    91   29   31 2
    92   36   44 1
    93   67   70 1
    94   80   83 1
    95   86   88 2
    96   93  101 1
@<TRIPOS>SUBSTRUCTURE
     1 RES1 1
     2 RES2 58
     3 SUP3 46

@<TRIPOS>CRYSIN
  18.0709   11.8731   16.6240  90.0000 115.7250  90.0000  14 1

