# MOL2 file generated by ConQuest
# Please check atom types

@<TRIPOS>MOLECULE
JABBIA
    21    22     1
SMALL
NO_CHARGES
****
Generated from CSD

@<TRIPOS>ATOM
      1 O1         5.4767   -2.2404    7.4191 O.3       1 RES1    0.0000
      2 O2        -0.1835   -0.3818    5.3111 O.2       1 RES1    0.0000
      3 O3         1.6254   -0.2014    6.5077 O.2       1 RES1    0.0000
      4 N1         4.6533   -2.0333    8.5229 N.2       1 RES1    0.0000
      5 N2         4.7261   -2.5604    6.3058 N.2       1 RES1    0.0000
      6 N3         2.4131   -4.0610    5.1546 N.2       1 RES1    0.0000
      7 N4         1.2707   -4.0717    4.4146 N.pl3     1 RES1    0.0000
      8 N5         0.8603   -0.8422    5.7843 N.pl3     1 RES1    0.0000
      9 N6         0.9339   -5.1447    3.5791 N.3       1 RES1    0.0000
     10 C1         3.4343   -2.2073    8.0999 C.2       1 RES1    0.0000
     11 C2         3.4849   -2.5380    6.7052 C.2       1 RES1    0.0000
     12 C3         2.3891   -2.8893    5.7960 C.2       1 RES1    0.0000
     13 C4         1.2166   -2.1775    5.4465 C.2       1 RES1    0.0000
     14 C5         0.5196   -2.9762    4.5552 C.2       1 RES1    0.0000
     15 C6         2.2536   -2.1197    9.0034 C.3       1 RES1    0.0000
     16 H1        -0.2855   -2.8884    4.1077 H         1 RES1    0.0000
     17 H2         0.9732   -5.8819    4.0781 H         1 RES1    0.0000
     18 H3         1.5889   -5.2334    2.9494 H         1 RES1    0.0000
     19 H4         2.5175   -1.9298    9.9027 H         1 RES1    0.0000
     20 H5         1.7417   -2.9495    9.0294 H         1 RES1    0.0000
     21 H6         1.7006   -1.4691    8.6999 H         1 RES1    0.0000
@<TRIPOS>BOND
     1    1    4 1
     2    2    8 2
     3    3    8 2
     4    4   10 2
     5    5    1 1
     6    6    7 1
     7    7    9 1
     8    8   13 1
     9    9   17 1
    10   10   11 1
    11   11    5 2
    12   12    6 2
    13   13   12 1
    14   14    7 1
    15   15   10 1
    16   16   14 1
    17   18    9 1
    18   19   15 1
    19   20   15 1
    20   21   15 1
    21   11   12 1
    22   13   14 2
@<TRIPOS>SUBSTRUCTURE
     1 RES1 1

@<TRIPOS>CRYSIN
   7.0276    7.4834    9.3681 110.8530 104.8020  99.1450   2 1

