# MOL2 file generated by ConQuest
# Please check atom types

@<TRIPOS>MOLECULE
JABFUQ
    25    24     1
SMALL
NO_CHARGES
****
Generated from CSD

@<TRIPOS>ATOM
      1 N1        15.5317    7.9275    0.8892 N.am      1 RES1    0.0000
      2 N2        23.6311   11.8024    0.7608 N.pl3     1 RES1    0.0000
      3 O1        12.7831    5.7482    0.3138 O.3       1 RES1    0.0000
      4 O2        14.3888    5.7291    1.8497 O.2       1 RES1    0.0000
      5 O3        13.1373    9.3197    0.5849 O.2       1 RES1    0.0000
      6 O4        12.7399    8.1767   -1.2648 O.3       1 RES1    0.0000
      7 O5        16.2061    9.2334   -0.7846 O.2       1 RES1    0.0000
      8 O6        19.4379   10.5468    2.7246 O.2       1 RES1    0.0000
      9 O7        19.6662   12.2752    1.4455 O.3       1 RES1    0.0000
     10 O8        22.4373   12.0584    0.9129 O.3       1 RES1    0.0000
     11 O9        23.7830   11.1813    1.7878 O.2       1 RES1    0.0000
     12 O10       23.8871   10.6619    0.5706 O.2       1 RES1    0.0000
     13 C1        10.9099    4.3046    0.1331 C.3       1 RES1    0.0000
     14 C2        12.1625    4.5736    0.9605 C.3       1 RES1    0.0000
     15 C3        13.8864    6.1875    0.8797 C.2       1 RES1    0.0000
     16 C4        14.4564    7.3837    0.1331 C.3       1 RES1    0.0000
     17 C5        13.3654    8.3977   -0.1331 C.2       1 RES1    0.0000
     18 C6        11.6036    9.0609   -1.5834 C.3       1 RES1    0.0000
     19 C7        10.5207    8.1125   -2.0969 C.3       1 RES1    0.0000
     20 C8        16.3425    8.8795    0.3851 C.2       1 RES1    0.0000
     21 C9        17.4445    9.3441    1.2696 C.3       1 RES1    0.0000
     22 C10       18.0605   10.6532    0.8321 C.3       1 RES1    0.0000
     23 C11       19.0978   11.1254    1.7355 C.2       1 RES1    0.0000
     24 C12       20.5578   12.8275    2.3299 C.3       1 RES1    0.0000
     25 C13       21.9688   12.9699    1.7118 C.3       1 RES1    0.0000
@<TRIPOS>BOND
     1    1   16 1
     2    2   10 1
     3    3   14 1
     4    4   15 2
     5    5   17 2
     6    6   17 1
     7    7   20 2
     8    8   23 2
     9    9   23 1
    10   10   25 1
    11   11    2 2
    12   12    2 2
    13   13   14 1
    14   15    3 1
    15   16   15 1
    16   17   16 1
    17   18    6 1
    18   19   18 1
    19   20    1 1
    20   21   20 1
    21   22   21 1
    22   23   22 1
    23   24    9 1
    24   25   24 1
@<TRIPOS>SUBSTRUCTURE
     1 RES1 1

@<TRIPOS>CRYSIN
  14.6600   12.9420    4.8440  99.1200  98.2100  75.4500   2 1

