# MOL2 file generated by ConQuest
# Please check atom types

@<TRIPOS>MOLECULE
JABHOM
    24    25     1
SMALL
NO_CHARGES
****
Generated from CSD

@<TRIPOS>ATOM
      1 O1         6.0419    4.6370    3.7879 O.2       1 RES1    0.0000
      2 O2         7.0193   -0.5158    2.5600 O.3       1 RES1    0.0000
      3 O3         5.3249   -1.2361    1.1474 O.3       1 RES1    0.0000
      4 O4         1.6666    2.4188    4.0301 O.2       1 RES1    0.0000
      5 O5         1.4283    1.8709    1.9610 O.2       1 RES1    0.0000
      6 N1         5.4073    3.3113    5.5130 N.am      1 RES1    0.0000
      7 N2         2.0848    1.9061    2.9941 N.pl3     1 RES1    0.0000
      8 C1         6.2121    4.1804    4.9214 C.2       1 RES1    0.0000
      9 C2         4.1802    2.8578    4.8888 C.3       1 RES1    0.0000
     10 C3         4.4048    1.7417    3.8719 C.ar      1 RES1    0.0000
     11 C4         5.6763    1.1415    3.7795 C.ar      1 RES1    0.0000
     12 C5         5.8735    0.1813    2.8196 C.ar      1 RES1    0.0000
     13 C6         6.7348   -1.3084    1.3904 C.3       1 RES1    0.0000
     14 C7         4.8683   -0.2240    1.9552 C.ar      1 RES1    0.0000
     15 C8         3.6204    0.3284    1.9933 C.ar      1 RES1    0.0000
     16 C9         3.4220    1.3153    2.9741 C.ar      1 RES1    0.0000
     17 H1         5.5691    3.0182    6.2659 H         1 RES1    0.0000
     18 H2         6.9859    4.4108    5.4425 H         1 RES1    0.0000
     19 H3         3.7637    3.6168    4.4448 H         1 RES1    0.0000
     20 H4         3.5543    2.5424    5.5884 H         1 RES1    0.0000
     21 H5         6.3837    1.3871    4.3542 H         1 RES1    0.0000
     22 H6         7.1891   -0.8695    0.6128 H         1 RES1    0.0000
     23 H7         7.0072   -2.2013    1.5449 H         1 RES1    0.0000
     24 H8         2.9254    0.0566    1.4059 H         1 RES1    0.0000
@<TRIPOS>BOND
     1    1    8 2
     2    2   12 1
     3    3   13 1
     4    4    7 2
     5    5    7 2
     6    6    8 1
     7    7   16 1
     8    8   18 1
     9    9    6 1
    10   10    9 1
    11   11   10 ar
    12   12   11 ar
    13   13    2 1
    14   14    3 1
    15   15   14 ar
    16   16   10 ar
    17   17    6 1
    18   19    9 1
    19   20    9 1
    20   21   11 1
    21   22   13 1
    22   23   13 1
    23   24   15 1
    24   12   14 ar
    25   15   16 ar
@<TRIPOS>SUBSTRUCTURE
     1 RES1 1

@<TRIPOS>CRYSIN
   7.9570   13.4803    8.6455  90.0000  93.3500  90.0000  14 1

