# MOL2 file generated by ConQuest
# Please check atom types

@<TRIPOS>MOLECULE
JABHUS
    21    22     1
SMALL
NO_CHARGES
****
Generated from CSD

@<TRIPOS>ATOM
      1 O1         5.1638   -1.4463   -0.1025 O.3       1 RES1    0.0000
      2 O2         4.5478    0.7106   -0.6857 O.3       1 RES1    0.0000
      3 O3         9.4760    0.9155    3.2103 O.2       1 RES1    0.0000
      4 O4         8.8294   -1.1201    3.2671 O.2       1 RES1    0.0000
      5 N1         7.5020    4.0865    1.7087 N.1       1 RES1    0.0000
      6 N2         8.7197    0.0263    2.8577 N.pl3     1 RES1    0.0000
      7 C1         7.0962    5.1270    1.4387 C.1       1 RES1    0.0000
      8 C2         8.1009    2.8385    2.0821 C.3       1 RES1    0.0000
      9 C3         7.3213    1.6465    1.5636 C.ar      1 RES1    0.0000
     10 C4         7.6347    0.3266    1.9198 C.ar      1 RES1    0.0000
     11 C5         6.9556   -0.7942    1.4309 C.ar      1 RES1    0.0000
     12 C6         5.9354   -0.5432    0.5629 C.ar      1 RES1    0.0000
     13 C7         4.1342   -0.6774   -0.7413 C.3       1 RES1    0.0000
     14 C8         5.5836    0.7463    0.2049 C.ar      1 RES1    0.0000
     15 C9         6.2517    1.8479    0.6760 C.ar      1 RES1    0.0000
     16 H1         8.1408    2.8099    3.0746 H         1 RES1    0.0000
     17 H2         8.9968    2.8335    1.7327 H         1 RES1    0.0000
     18 H3         7.2081   -1.6680    1.6704 H         1 RES1    0.0000
     19 H4         3.3096   -0.7679   -0.2363 H         1 RES1    0.0000
     20 H5         4.0618   -0.9558   -1.6578 H         1 RES1    0.0000
     21 H6         6.0030    2.7013    0.3793 H         1 RES1    0.0000
@<TRIPOS>BOND
     1    1   12 1
     2    2   13 1
     3    3    6 2
     4    4    6 2
     5    5    7 3
     6    6   10 1
     7    8    5 1
     8    9    8 1
     9   10    9 ar
    10   11   10 ar
    11   12   11 ar
    12   13    1 1
    13   14    2 1
    14   15    9 ar
    15   16    8 1
    16   17    8 1
    17   18   11 1
    18   19   13 1
    19   20   13 1
    20   21   15 1
    21   12   14 ar
    22   14   15 ar
@<TRIPOS>SUBSTRUCTURE
     1 RES1 1

@<TRIPOS>CRYSIN
  15.8530    9.4451   13.6157  90.0000 122.1470  90.0000  15 1

