# MOL2 file generated by ConQuest
# Please check atom types

@<TRIPOS>MOLECULE
JABLUW01
    16    17     1
SMALL
NO_CHARGES
****
Generated from CSD

@<TRIPOS>ATOM
      1 O1         4.4138    7.9861    0.8797 O.2       1 RES1    0.0000
      2 O2         2.7187    6.9360    0.0256 O.2       1 RES1    0.0000
      3 N1         3.8316    6.0249    1.7261 N.pl3     1 RES1    0.0000
      4 N2         3.0188    4.9410    1.7063 N.2       1 RES1    0.0000
      5 N3         3.0136    2.9474    2.9503 N.pl3     1 RES1    0.0000
      6 N4         3.5752    2.1767    3.9098 N.2       1 RES1    0.0000
      7 N5         2.8929    1.0891    3.9445 N.2       1 RES1    0.0000
      8 N6         1.8780    1.1104    3.0368 N.2       1 RES1    0.0000
      9 N7         3.6353    7.0632    0.7976 N.pl3     1 RES1    0.0000
     10 C1         4.8393    5.9653    2.6503 C.2       1 RES1    0.0000
     11 C2         4.6815    4.7784    3.2774 C.2       1 RES1    0.0000
     12 C3         3.5526    4.2115    2.6552 C.2       1 RES1    0.0000
     13 C4         1.9731    2.2679    2.4491 C.2       1 RES1    0.0000
     14 H1         5.4672    6.6992    2.6911 H         1 RES1    0.0000
     15 H2         5.1332    4.4416    3.9890 H         1 RES1    0.0000
     16 H3         1.4644    2.5444    1.7139 H         1 RES1    0.0000
@<TRIPOS>BOND
     1    1    9 2
     2    2    9 2
     3    3    4 1
     4    4   12 2
     5    5    6 1
     6    6    7 2
     7    7    8 1
     8    8   13 2
     9    9    3 1
    10   10    3 1
    11   11   10 2
    12   12    5 1
    13   13    5 1
    14   14   10 1
    15   15   11 1
    16   16   13 1
    17   11   12 1
@<TRIPOS>SUBSTRUCTURE
     1 RES1 1

@<TRIPOS>CRYSIN
   5.1383    7.3537   19.0860  90.0000  90.0000  90.0000  19 1

