# MOL2 file generated by ConQuest
# Please check atom types

@<TRIPOS>MOLECULE
JABLUW
    16    17     1
SMALL
NO_CHARGES
****
Generated from CSD

@<TRIPOS>ATOM
      1 O1         4.3422    7.9907    0.8837 O.2       1 RES1    0.0000
      2 O2         2.6473    6.9485   -0.0017 O.2       1 RES1    0.0000
      3 N1         3.7660    6.0046    1.6869 N.pl3     1 RES1    0.0000
      4 N2         2.9433    4.9212    1.6471 N.2       1 RES1    0.0000
      5 N3         2.9540    2.9013    2.8703 N.pl3     1 RES1    0.0000
      6 N4         3.5512    2.1191    3.8010 N.2       1 RES1    0.0000
      7 N5         2.8744    1.0232    3.8395 N.2       1 RES1    0.0000
      8 N6         1.8292    1.0548    2.9535 N.2       1 RES1    0.0000
      9 N7         3.5629    7.0638    0.7754 N.pl3     1 RES1    0.0000
     10 C1         4.7883    5.9326    2.5919 C.2       1 RES1    0.0000
     11 C2         4.6291    4.7258    3.2052 C.2       1 RES1    0.0000
     12 C3         3.4920    4.1750    2.5833 C.2       1 RES1    0.0000
     13 C4         1.8996    2.2256    2.3635 C.2       1 RES1    0.0000
     14 H1         5.4150    6.6547    2.6617 H         1 RES1    0.0000
     15 H2         5.0731    4.3997    3.8454 H         1 RES1    0.0000
     16 H3         1.3780    2.5341    1.6752 H         1 RES1    0.0000
@<TRIPOS>BOND
     1    1    9 2
     2    2    9 2
     3    3    4 1
     4    4   12 2
     5    5    6 1
     6    6    7 2
     7    7    8 1
     8    8   13 2
     9    9    3 1
    10   10    3 1
    11   11   10 2
    12   12    5 1
    13   13    5 1
    14   14   10 1
    15   15   11 1
    16   16   13 1
    17   11   12 1
@<TRIPOS>SUBSTRUCTURE
     1 RES1 1

@<TRIPOS>CRYSIN
   5.1037    7.3451   18.6130  90.0000  90.0000  90.0000  19 1

