# MOL2 file generated by ConQuest
# Please check atom types

@<TRIPOS>MOLECULE
JABMAD01
    16    17     1
SMALL
NO_CHARGES
****
Generated from CSD

@<TRIPOS>ATOM
      1 O1        10.5978    4.0686    4.6349 O.2       1 RES1    0.0000
      2 O2         8.5309    4.1956    5.2650 O.2       1 RES1    0.0000
      3 N1         9.8192    2.5866    6.0888 N.pl3     1 RES1    0.0000
      4 N2        11.0690    2.2169    6.4205 N.2       1 RES1    0.0000
      5 N3         8.9230   -0.0956    8.1636 N.pl3     1 RES1    0.0000
      6 N4         7.5906   -0.1530    8.3597 N.2       1 RES1    0.0000
      7 N5         7.3801   -1.1791    9.1068 N.2       1 RES1    0.0000
      8 N6         8.5415   -1.8068    9.4155 N.2       1 RES1    0.0000
      9 N7         9.6343    3.7203    5.2604 N.pl3     1 RES1    0.0000
     10 C1        10.8701    1.1980    7.2319 C.2       1 RES1    0.0000
     11 C2         9.4939    0.9277    7.3883 C.2       1 RES1    0.0000
     12 C3         8.8220    1.8473    6.6443 C.2       1 RES1    0.0000
     13 C4         9.4832   -1.1192    8.8222 C.2       1 RES1    0.0000
     14 H1        11.6308    0.7470    7.6464 H         1 RES1    0.0000
     15 H2         7.9225    2.0318    6.4519 H         1 RES1    0.0000
     16 H3        10.4189   -1.2796    8.8567 H         1 RES1    0.0000
@<TRIPOS>BOND
     1    1    9 2
     2    2    9 2
     3    3    4 1
     4    4   10 2
     5    5    6 1
     6    6    7 2
     7    7    8 1
     8    8   13 2
     9    9    3 1
    10   10   11 1
    11   11    5 1
    12   12    3 1
    13   13    5 1
    14   14   10 1
    15   15   12 1
    16   16   13 1
    17   11   12 2
@<TRIPOS>SUBSTRUCTURE
     1 RES1 1

@<TRIPOS>CRYSIN
  11.0265   10.4626   12.0663  90.0000  90.0000  90.0000  61 1

