# MOL2 file generated by ConQuest
# Please check atom types

@<TRIPOS>MOLECULE
JACBEU
   108   113     3
SMALL
NO_CHARGES
****
Generated from CSD

@<TRIPOS>ATOM
      1 N1         3.4293    8.9588    3.0461 N.pl3     1 RES1    0.0000
      2 O1        -1.7529    9.0086   -0.7314 O.2       1 RES1    0.0000
      3 O2        -0.1031    8.3801   -2.1616 O.3       1 RES1    0.0000
      4 O3         4.5862    9.1436    2.7099 O.2       1 RES1    0.0000
      5 O4         3.0711    8.7537    4.1752 O.2       1 RES1    0.0000
      6 C1        -2.9062    6.3258   -3.8126 C.3       1 RES1    0.0000
      7 C2        -1.5530    6.7218   -3.1189 C.3       1 RES1    0.0000
      8 C3        -1.0722    8.1567   -3.2355 C.3       1 RES1    0.0000
      9 C4        -0.2323    8.5347   -4.4838 C.3       1 RES1    0.0000
     10 C5        -0.5364    8.0032   -5.8802 C.3       1 RES1    0.0000
     11 C6        -0.6786    6.4633   -5.9278 C.2       1 RES1    0.0000
     12 C7        -2.1136    6.1634   -6.3444 C.3       1 RES1    0.0000
     13 C8        -2.2277    7.2631   -7.4496 C.3       1 RES1    0.0000
     14 C9        -1.9131    8.4832   -6.5388 C.3       1 RES1    0.0000
     15 C10       -3.0707    8.3237   -5.5377 C.3       1 RES1    0.0000
     16 C11       -3.1249    6.7929   -5.2855 C.3       1 RES1    0.0000
     17 C12       -3.0374    4.7913   -3.7361 C.3       1 RES1    0.0000
     18 C13       -4.0825    6.9600   -2.9834 C.3       1 RES1    0.0000
     19 C14        0.6128    8.4989   -6.7960 C.3       1 RES1    0.0000
     20 C15       -0.6095    8.7863   -0.9660 C.2       1 RES1    0.0000
     21 C16        0.4747    8.8840    0.0502 C.ar      1 RES1    0.0000
     22 C17        0.1087    8.9767    1.3625 C.ar      1 RES1    0.0000
     23 C18        1.0727    9.0251    2.3962 C.ar      1 RES1    0.0000
     24 C19        2.3885    9.0078    1.9785 C.ar      1 RES1    0.0000
     25 C20        2.8120    8.9746    0.6925 C.ar      1 RES1    0.0000
     26 C21        1.8253    8.8969   -0.3274 C.ar      1 RES1    0.0000
     27 C22        0.3033    5.6092   -5.8049 C.2       1 RES1    0.0000
     28 N2        -5.1902   10.2768    8.6189 N.pl3     2 RES2    0.0000
     29 O5        -0.1005   11.3092    4.8652 O.2       2 RES2    0.0000
     30 O6        -1.7758   12.1916    3.6320 O.3       2 RES2    0.0000
     31 O7        -6.3512   10.6051    8.4232 O.2       2 RES2    0.0000
     32 O8        -4.7974    9.6305    9.5837 O.2       2 RES2    0.0000
     33 C23        1.0536   14.3534    2.1692 C.3       2 RES2    0.0000
     34 C24       -0.3115   13.9627    2.8567 C.3       2 RES2    0.0000
     35 C25       -0.8393   12.5318    2.5493 C.3       2 RES2    0.0000
     36 C26       -1.7115   12.3412    1.2972 C.3       2 RES2    0.0000
     37 C27       -1.4200   13.0287   -0.0376 C.3       2 RES2    0.0000
     38 C28       -1.2373   14.5685    0.1179 C.2       2 RES2    0.0000
     39 C29        0.2006   14.8357   -0.2685 C.3       2 RES2    0.0000
     40 C30        0.2787   13.9050   -1.5268 C.3       2 RES2    0.0000
     41 C31       -0.0826   12.6304   -0.7615 C.3       2 RES2    0.0000
     42 C32        1.0862   12.6129    0.2057 C.3       2 RES2    0.0000
     43 C33        1.1907   14.0773    0.6687 C.3       2 RES2    0.0000
     44 C34        1.1961   15.8592    2.4401 C.3       2 RES2    0.0000
     45 C35        2.1959   13.6084    2.9257 C.3       2 RES2    0.0000
     46 C36       -2.6303   12.7264   -0.9397 C.3       2 RES2    0.0000
     47 C37       -1.2574   11.5923    4.7097 C.2       2 RES2    0.0000
     48 C38       -2.3183   11.3008    5.7171 C.ar      2 RES2    0.0000
     49 C39       -1.8935   10.8020    6.9528 C.ar      2 RES2    0.0000
     50 C40       -2.8240   10.4582    7.9339 C.ar      2 RES2    0.0000
     51 C41       -4.1711   10.6418    7.6102 C.ar      2 RES2    0.0000
     52 C42       -4.6121   11.1411    6.4021 C.ar      2 RES2    0.0000
     53 C43       -3.6585   11.4539    5.4197 C.ar      2 RES2    0.0000
     54 C44       -2.1596   15.4299    0.4090 C.2       2 RES2    0.0000
     55 H1        -0.8135    6.1048   -3.4124 H         1 RES1    0.0000
     56 H2        -1.5698    6.4574   -2.1453 H         1 RES1    0.0000
     57 H3        -1.8534    8.7702   -3.1615 H         1 RES1    0.0000
     58 H4         0.7425    8.3926   -4.2781 H         1 RES1    0.0000
     59 H5        -0.1089    9.5319   -4.5039 H         1 RES1    0.0000
     60 H6        -2.7443    6.4090   -5.5828 Du        3 SUP3    0.0000
     61 H7        -3.1736    7.3054   -7.7783 H         1 RES1    0.0000
     62 H8        -1.4822    7.1302   -8.1045 H         1 RES1    0.0000
     63 H9        -2.0455    9.3360   -7.0632 H         1 RES1    0.0000
     64 H10       -3.9424    8.6194   -5.9718 H         1 RES1    0.0000
     65 H11       -2.8672    8.7937   -4.6795 H         1 RES1    0.0000
     66 H12       -4.0576    6.4406   -5.4825 H         1 RES1    0.0000
     67 H13       -3.0298    4.4907   -2.7726 H         1 RES1    0.0000
     68 H14       -3.8842    4.4917   -4.1652 H         1 RES1    0.0000
     69 H15       -2.2595    4.3505   -4.2028 H         1 RES1    0.0000
     70 H16       -3.9963    7.9553   -2.9733 H         1 RES1    0.0000
     71 H17       -4.9527    6.7164   -3.4250 H         1 RES1    0.0000
     72 H18       -4.0811    6.6040   -2.0575 H         1 RES1    0.0000
     73 H19        1.5009    8.1406   -6.4736 H         1 RES1    0.0000
     74 H20        0.4668    8.1915   -7.7407 H         1 RES1    0.0000
     75 H21        0.6617    9.5069   -6.7998 H         1 RES1    0.0000
     76 H22       -0.8570    9.0434    1.5808 H         1 RES1    0.0000
     77 H23        0.8545    9.0563    3.3622 H         1 RES1    0.0000
     78 H24        3.7762    9.0096    0.4391 H         1 RES1    0.0000
     79 H25        2.0600    8.8677   -1.2922 H         1 RES1    0.0000
     80 H26        1.2491    5.9161   -5.6205 H         1 RES1    0.0000
     81 H27        0.3055    4.9161   -5.0183 H         1 RES1    0.0000
     82 H28       -1.0271   14.6394    2.5468 H         2 RES2    0.0000
     83 H29       -0.2713   14.1206    3.8390 H         2 RES2    0.0000
     84 H30       -0.0382   11.9259    2.4715 H         2 RES2    0.0000
     85 H31       -2.6905   12.5323    1.5557 H         2 RES2    0.0000
     86 H32       -1.8972   11.3621    1.1417 H         2 RES2    0.0000
     87 H33        0.2942   15.8075   -0.5269 H         2 RES2    0.0000
     88 H34        1.2403   13.8574   -1.8568 H         2 RES2    0.0000
     89 H35       -0.4459   14.1478   -2.1830 H         2 RES2    0.0000
     90 H36       -0.0159   11.8363   -1.3926 H         2 RES2    0.0000
     91 H37        1.9274   12.3252   -0.2509 H         2 RES2    0.0000
     92 H38        0.8549   12.0377    1.0037 H         2 RES2    0.0000
     93 H39        2.1419   14.4167    0.4767 H         2 RES2    0.0000
     94 H40        1.1970   16.0438    3.4250 H         2 RES2    0.0000
     95 H41        2.0627   16.1987    2.0450 H         2 RES2    0.0000
     96 H42        0.4364   16.3667    2.0199 H         2 RES2    0.0000
     97 H43        2.0787   12.6122    2.8604 H         2 RES2    0.0000
     98 H44        3.0921   13.8270    2.4966 H         2 RES2    0.0000
     99 H45        2.2399   13.8674    3.8892 H         2 RES2    0.0000
    100 H46       -3.4703   13.0891   -0.5520 H         2 RES2    0.0000
    101 H47       -2.4994   13.1539   -1.8568 H         2 RES2    0.0000
    102 H48       -2.7281   11.7321   -1.0664 H         2 RES2    0.0000
    103 H49       -0.9091   10.6802    7.0883 H         2 RES2    0.0000
    104 H50       -2.5658   10.0736    8.8573 H         2 RES2    0.0000
    105 H51       -5.5883   11.2622    6.2101 H         2 RES2    0.0000
    106 H52       -3.9349   11.8109    4.5039 H         2 RES2    0.0000
    107 H53       -3.1200   15.1335    0.5520 H         2 RES2    0.0000
    108 H54       -1.9566   16.4121    0.4893 H         2 RES2    0.0000
@<TRIPOS>BOND
     1    1    4 2
     2    2   20 2
     3    3    8 1
     4    5    1 2
     5    6    7 1
     6    7    8 1
     7    8    9 1
     8    9   10 1
     9   10   11 1
    10   11   12 1
    11   12   13 1
    12   13   14 1
    13   14   10 1
    14   15   14 1
    15   16    6 1
    16   17    6 1
    17   18    6 1
    18   19   10 1
    19   20    3 1
    20   21   20 1
    21   22   21 ar
    22   23   22 ar
    23   24    1 1
    24   25   24 ar
    25   26   21 ar
    26   27   11 2
    27   28   31 2
    28   29   47 2
    29   30   35 1
    30   32   28 2
    31   33   34 1
    32   34   35 1
    33   35   36 1
    34   36   37 1
    35   37   38 1
    36   38   39 1
    37   39   40 1
    38   40   41 1
    39   41   37 1
    40   42   41 1
    41   43   33 1
    42   44   33 1
    43   45   33 1
    44   46   37 1
    45   47   30 1
    46   48   47 1
    47   49   48 ar
    48   50   49 ar
    49   51   28 1
    50   52   51 ar
    51   53   48 ar
    52   54   38 2
    53   55    7 1
    54   56    7 1
    55   57    8 1
    56   58    9 1
    57   59    9 1
    58   61   13 1
    59   62   13 1
    60   63   14 1
    61   64   15 1
    62   65   15 1
    63   66   16 1
    64   67   17 1
    65   68   17 1
    66   69   17 1
    67   70   18 1
    68   71   18 1
    69   72   18 1
    70   73   19 1
    71   74   19 1
    72   75   19 1
    73   76   22 1
    74   77   23 1
    75   78   25 1
    76   79   26 1
    77   80   27 1
    78   81   27 1
    79   82   34 1
    80   83   34 1
    81   84   35 1
    82   85   36 1
    83   86   36 1
    84   87   39 1
    85   88   40 1
    86   89   40 1
    87   90   41 1
    88   91   42 1
    89   92   42 1
    90   93   43 1
    91   94   44 1
    92   95   44 1
    93   96   44 1
    94   97   45 1
    95   98   45 1
    96   99   45 1
    97  100   46 1
    98  101   46 1
    99  102   46 1
   100  103   49 1
   101  104   50 1
   102  105   52 1
   103  106   53 1
   104  107   54 1
   105  108   54 1
   106   12   16 1
   107   15   16 1
   108   23   24 ar
   109   25   26 ar
   110   39   43 1
   111   42   43 1
   112   50   51 ar
   113   52   53 ar
@<TRIPOS>SUBSTRUCTURE
     1 RES1 1
     2 RES2 28
     3 SUP3 60

@<TRIPOS>CRYSIN
   7.5690   10.3830   12.6050  95.5200  90.1900  94.8700   1 1

