# MOL2 file generated by ConQuest
# Please check atom types

@<TRIPOS>MOLECULE
JACKUU
    61    64     1
SMALL
NO_CHARGES
****
Generated from CSD

@<TRIPOS>ATOM
      1 N1        -3.0810    3.1546   14.5172 N.3       1 RES1    0.0000
      2 C1        -3.0237    3.9295   15.7726 C.3       1 RES1    0.0000
      3 C2        -3.9246    3.2282   16.8002 C.3       1 RES1    0.0000
      4 C3        -5.4159    3.3040   16.4869 C.3       1 RES1    0.0000
      5 C4        -5.8321    2.7927   15.1066 C.3       1 RES1    0.0000
      6 C5        -5.4309    3.7362   13.9826 C.3       1 RES1    0.0000
      7 C6        -4.0089    3.5857   13.4634 C.3       1 RES1    0.0000
      8 N2        -3.6719    3.8027   18.1257 N.am      1 RES1    0.0000
      9 C7        -3.5569    3.0503   19.2255 C.2       1 RES1    0.0000
     10 O1        -3.7450    1.8404   19.2496 O.2       1 RES1    0.0000
     11 C8        -3.1041    3.7801   20.4503 C.ar      1 RES1    0.0000
     12 C9        -3.4185    3.2568   21.7013 C.ar      1 RES1    0.0000
     13 C10       -2.9296    3.8664   22.8318 C.ar      1 RES1    0.0000
     14 C11       -2.1384    5.0005   22.7836 C.ar      1 RES1    0.0000
     15 C12       -1.8220    5.4805   21.5370 C.ar      1 RES1    0.0000
     16 C13       -2.2813    4.9027   20.3780 C.ar      1 RES1    0.0000
     17 N3        -3.1643    3.2397   24.1420 N.pl3     1 RES1    0.0000
     18 O2        -3.7024    2.1419   24.1508 O.2       1 RES1    0.0000
     19 O3        -2.7871    3.8279   25.1389 O.2       1 RES1    0.0000
     20 N4        -0.9499    6.6662   21.4428 N.pl3     1 RES1    0.0000
     21 O4        -0.5530    6.9935   20.3385 O.2       1 RES1    0.0000
     22 O5        -0.6743    7.2434   22.4879 O.2       1 RES1    0.0000
     23 C14       -1.5808    4.0707   16.2086 C.ar      1 RES1    0.0000
     24 C15       -0.9402    3.1002   16.9513 C.ar      1 RES1    0.0000
     25 C16        0.3916    3.2705   17.3194 C.ar      1 RES1    0.0000
     26 C17        1.0726    4.3678   16.9448 C.ar      1 RES1    0.0000
     27 C18        0.4532    5.3196   16.2064 C.ar      1 RES1    0.0000
     28 C19       -0.8811    5.1729   15.8449 C.ar      1 RES1    0.0000
     29 C20       -3.5378    4.8615   12.7338 C.3       1 RES1    0.0000
     30 C21       -4.3350    5.1850   11.4915 C.ar      1 RES1    0.0000
     31 C22       -5.3331    6.1230   11.4937 C.ar      1 RES1    0.0000
     32 C23       -6.0714    6.4042   10.3544 C.ar      1 RES1    0.0000
     33 C24       -5.7900    5.7622    9.2107 C.ar      1 RES1    0.0000
     34 C25       -4.8376    4.8275    9.1822 C.ar      1 RES1    0.0000
     35 C26       -4.1062    4.5089   10.3391 C.ar      1 RES1    0.0000
     36 H1        -2.1475    3.0821   14.2061 H         1 RES1    0.0000
     37 H2        -3.3856    4.8247   15.6017 H         1 RES1    0.0000
     38 H3        -3.6704    2.2819   16.8286 H         1 RES1    0.0000
     39 H4        -5.6985    4.2283   16.5679 H         1 RES1    0.0000
     40 H5        -5.8961    2.7938   17.1573 H         1 RES1    0.0000
     41 H6        -5.4224    1.9266   14.9532 H         1 RES1    0.0000
     42 H7        -6.7945    2.6724   15.0890 H         1 RES1    0.0000
     43 H8        -5.5469    4.6473   14.2959 H         1 RES1    0.0000
     44 H9        -6.0417    3.6033   13.2421 H         1 RES1    0.0000
     45 H10       -4.0280    2.8701   12.7951 H         1 RES1    0.0000
     46 H11       -3.8483    4.8088   18.2243 H         1 RES1    0.0000
     47 H12       -3.9546    2.5000   21.7692 H         1 RES1    0.0000
     48 H13       -1.8352    5.4168   23.5592 H         1 RES1    0.0000
     49 H14       -2.0447    5.2580   19.5498 H         1 RES1    0.0000
     50 H15       -1.3985    2.3314   17.2055 H         1 RES1    0.0000
     51 H16        0.8138    2.6191   17.8321 H         1 RES1    0.0000
     52 H17        1.9632    4.4721   17.1901 H         1 RES1    0.0000
     53 H18        0.9245    6.0763   15.9391 H         1 RES1    0.0000
     54 H19       -1.2981    5.8385   15.3454 H         1 RES1    0.0000
     55 H20       -3.5964    5.6112   13.3472 H         1 RES1    0.0000
     56 H21       -2.6048    4.7544   12.4884 H         1 RES1    0.0000
     57 H22       -5.5200    6.5838   12.2802 H         1 RES1    0.0000
     58 H23       -6.7578    7.0325   10.3851 H         1 RES1    0.0000
     59 H24       -6.2598    5.9693    8.4351 H         1 RES1    0.0000
     60 H25       -4.6558    4.3815    8.3869 H         1 RES1    0.0000
     61 H26       -3.4662    3.8351   10.3128 H         1 RES1    0.0000
@<TRIPOS>BOND
     1    1    2 1
     2    2    3 1
     3    3    4 1
     4    4    5 1
     5    5    6 1
     6    6    7 1
     7    7    1 1
     8    8    3 1
     9    9    8 1
    10   10    9 2
    11   11    9 1
    12   12   11 ar
    13   13   12 ar
    14   14   13 ar
    15   15   14 ar
    16   16   11 ar
    17   17   13 1
    18   18   17 2
    19   19   17 2
    20   20   15 1
    21   21   20 2
    22   22   20 2
    23   23    2 1
    24   24   23 ar
    25   25   24 ar
    26   26   25 ar
    27   27   26 ar
    28   28   23 ar
    29   29    7 1
    30   30   29 1
    31   31   30 ar
    32   32   31 ar
    33   33   32 ar
    34   34   33 ar
    35   35   30 ar
    36   36    1 1
    37   37    2 1
    38   38    3 1
    39   39    4 1
    40   40    4 1
    41   41    5 1
    42   42    5 1
    43   43    6 1
    44   44    6 1
    45   45    7 1
    46   46    8 1
    47   47   12 1
    48   48   14 1
    49   49   16 1
    50   50   24 1
    51   51   25 1
    52   52   26 1
    53   53   27 1
    54   54   28 1
    55   55   29 1
    56   56   29 1
    57   57   31 1
    58   58   32 1
    59   59   33 1
    60   60   34 1
    61   61   35 1
    62   15   16 ar
    63   27   28 ar
    64   34   35 ar
@<TRIPOS>SUBSTRUCTURE
     1 RES1 1

@<TRIPOS>CRYSIN
  10.0970    5.4920   22.4440  90.0000 102.5300  90.0000   4 1

