# MOL2 file generated by ConQuest
# Please check atom types

@<TRIPOS>MOLECULE
JACYOB
    18    18     1
SMALL
NO_CHARGES
****
Generated from CSD

@<TRIPOS>ATOM
      1 C1        -1.8031    1.8414    6.6833 C.2       1 RES1    0.0000
      2 C2        -1.5092    3.1908    6.0959 C.ar      1 RES1    0.0000
      3 C3        -2.4052    3.8584    5.2707 C.ar      1 RES1    0.0000
      4 C4        -2.0495    5.0954    4.7869 C.ar      1 RES1    0.0000
      5 C5        -0.8480    5.7053    5.0742 C.ar      1 RES1    0.0000
      6 C6         0.0310    5.0337    5.9091 C.ar      1 RES1    0.0000
      7 C7        -0.2956    3.7913    6.4110 C.ar      1 RES1    0.0000
      8 N1        -2.8165    1.1409    6.1807 N.am      1 RES1    0.0000
      9 N2        -2.9971    5.7919    3.9047 N.pl3     1 RES1    0.0000
     10 O1        -1.1288    1.4150    7.6195 O.2       1 RES1    0.0000
     11 O2        -4.1123    5.3171    3.7824 O.2       1 RES1    0.0000
     12 O3        -2.6235    6.7899    3.3158 O.2       1 RES1    0.0000
     13 H1        -3.0980    0.3280    6.5640 H         1 RES1    0.0000
     14 H2        -3.2308    1.3666    5.5738 H         1 RES1    0.0000
     15 H3        -3.2205    3.5219    5.0787 H         1 RES1    0.0000
     16 H4        -0.6264    6.5518    4.7411 H         1 RES1    0.0000
     17 H5         0.8755    5.4116    6.1439 H         1 RES1    0.0000
     18 H6         0.3490    3.3579    6.9916 H         1 RES1    0.0000
@<TRIPOS>BOND
     1    1    2 1
     2    2    3 ar
     3    3    4 ar
     4    4    5 ar
     5    5    6 ar
     6    6    7 ar
     7    7    2 ar
     8    8    1 1
     9    9    4 1
    10   10    1 2
    11   11    9 2
    12   12    9 2
    13   13    8 1
    14   14    8 1
    15   15    3 1
    16   16    5 1
    17   17    6 1
    18   18    7 1
@<TRIPOS>SUBSTRUCTURE
     1 RES1 1

@<TRIPOS>CRYSIN
  12.7760    7.8090    7.8420  90.0000 106.9400  90.0000  14 2

