# MOL2 file generated by ConQuest
# Please check atom types

@<TRIPOS>MOLECULE
JADDIC
    81    80     3
SMALL
NO_CHARGES
****
Generated from CSD

@<TRIPOS>ATOM
      1 O1         3.2854    0.0508   11.0792 O.2       1 RES1    0.0000
      2 O2         6.0182    1.5110   11.6822 Du        3 SUP3    0.0000
      3 N1         3.4891    1.2865   11.2897 N.pl3     1 RES1    0.0000
      4 N2         4.8274    1.9764   11.5987 Du        3 SUP3    0.0000
      5 C1         2.9042    2.1377   12.4053 C.3       1 RES1    0.0000
      6 C2         1.5024    2.2517   12.1753 C.3       1 RES1    0.0000
      7 H1         1.0279    2.0682   12.9889 H         1 RES1    0.0000
      8 H2         1.2369    1.6224   11.5003 H         1 RES1    0.0000
      9 H3         1.2994    3.1432   11.8801 H         1 RES1    0.0000
     10 C3         3.0191    1.1799   13.7143 C.3       1 RES1    0.0000
     11 H4         2.9074    1.7076   14.5084 H         1 RES1    0.0000
     12 H5         3.8828    0.7604   13.7280 H         1 RES1    0.0000
     13 H6         2.3363    0.5080   13.6788 H         1 RES1    0.0000
     14 C4         3.9445    3.1678   12.4591 C.3       1 RES1    0.0000
     15 C5         5.1374    3.1334   13.2166 C.3       1 RES1    0.0000
     16 H7         5.0766    3.7627   13.9385 H         1 RES1    0.0000
     17 H8         5.8814    3.3595   12.6548 H         1 RES1    0.0000
     18 H9         5.2642    2.2517   13.5736 H         1 RES1    0.0000
     19 C6         3.1998    4.5719   12.7555 C.3       1 RES1    0.0000
     20 H10        2.8285    4.5559   13.6399 H         1 RES1    0.0000
     21 H11        2.4973    4.7034   12.1147 H         1 RES1    0.0000
     22 H12        3.8331    5.2900   12.6868 H         1 RES1    0.0000
     23 N3         4.3077    3.3294   10.9728 N.2       1 RES1    0.0000
     24 N4         2.8999    2.5729   10.6032 Du        3 SUP3    0.0000
     25 C7         4.1275    2.1701   10.4327 C.2       1 RES1    0.0000
     26 C8         4.6047    1.8043    9.1032 C.2       1 RES1    0.0000
     27 C9         3.9405    1.0574    8.1100 C.2       1 RES1    0.0000
     28 C10        2.5992    0.4215    8.1261 C.3       1 RES1    0.0000
     29 H13        2.4439   -0.0197    7.2885 H         1 RES1    0.0000
     30 H14        1.9278    1.0947    8.2622 H         1 RES1    0.0000
     31 H15        2.5577   -0.2196    8.8389 H         1 RES1    0.0000
     32 N5         4.7012    0.9885    7.0128 N.2       1 RES1    0.0000
     33 N6         5.8500    1.6634    7.3217 N.pl3     1 RES1    0.0000
     34 C11        6.9107    1.7345    6.3320 C.3       1 RES1    0.0000
     35 H16        7.6456    2.2419    6.6855 H         1 RES1    0.0000
     36 H17        6.5797    2.1632    5.5390 H         1 RES1    0.0000
     37 H18        7.2071    0.8489    6.1169 H         1 RES1    0.0000
     38 C12        5.8315    2.1714    8.5723 C.2       1 RES1    0.0000
     39 C13        6.9587    2.9331    9.1398 C.3       1 RES1    0.0000
     40 H19        7.6571    3.0056    8.4865 H         1 RES1    0.0000
     41 H20        7.2940    2.4779    9.9156 H         1 RES1    0.0000
     42 H21        6.6594    3.8118    9.3892 H         1 RES1    0.0000
     43 O3         3.5190    7.6303    7.9395 O.2       2 RES2    0.0000
     44 N7         4.7042    7.3579    8.2862 N.pl3     2 RES2    0.0000
     45 C14        5.4010    8.0029    9.4270 C.3       2 RES2    0.0000
     46 C15        5.1617    9.4946    9.3995 C.3       2 RES2    0.0000
     47 H22        4.2352    9.6722    9.5792 H         2 RES2    0.0000
     48 H23        5.3929    9.8394    8.5345 H         2 RES2    0.0000
     49 H24        5.7048    9.9180   10.0689 H         2 RES2    0.0000
     50 C16        4.7479    7.3713   10.6787 C.3       2 RES2    0.0000
     51 H25        4.9212    6.4274   10.6879 H         2 RES2    0.0000
     52 H26        3.8003    7.5221   10.6570 H         2 RES2    0.0000
     53 H27        5.1174    7.7712   11.4694 H         2 RES2    0.0000
     54 C17        6.8654    7.5375    9.1547 C.3       2 RES2    0.0000
     55 C18        7.6464    7.1812   10.3526 C.3       2 RES2    0.0000
     56 H28        7.1532    6.5454   10.8790 H         2 RES2    0.0000
     57 H29        7.8118    7.9678   10.8744 H         2 RES2    0.0000
     58 H30        8.4831    6.7912   10.0849 H         2 RES2    0.0000
     59 C19        7.6457    8.5614    8.3309 C.3       2 RES2    0.0000
     60 H31        8.5391    8.2399    8.1856 H         2 RES2    0.0000
     61 H32        7.6782    9.3969    8.8046 H         2 RES2    0.0000
     62 H33        7.2100    8.6889    7.4853 H         2 RES2    0.0000
     63 N8         6.7059    6.3497    8.2611 N.2       2 RES2    0.0000
     64 C20        5.5083    6.3418    7.7851 C.2       2 RES2    0.0000
     65 C21        5.0218    5.4277    6.7679 C.2       2 RES2    0.0000
     66 C22        5.7391    5.0675    5.5951 C.2       2 RES2    0.0000
     67 C23        7.0971    5.5159    5.1603 C.3       2 RES2    0.0000
     68 H34        7.3177    5.1032    4.3228 H         2 RES2    0.0000
     69 H35        7.7447    5.2638    5.8228 H         2 RES2    0.0000
     70 H36        7.1014    6.4700    5.0573 H         2 RES2    0.0000
     71 N9         5.0251    4.2219    4.8594 N.2       2 RES2    0.0000
     72 N10        3.8564    4.0390    5.5539 N.pl3     2 RES2    0.0000
     73 C24        2.8712    3.1314    5.0001 C.3       2 RES2    0.0000
     74 H37        2.1060    3.0973    5.5791 H         2 RES2    0.0000
     75 H38        3.2523    2.2550    4.9223 H         2 RES2    0.0000
     76 H39        2.6025    3.4415    4.1328 H         2 RES2    0.0000
     77 C25        3.8215    4.7476    6.7073 C.2       2 RES2    0.0000
     78 C26        2.6916    4.6680    7.6604 C.3       2 RES2    0.0000
     79 H40        2.0047    4.1068    7.2942 H         2 RES2    0.0000
     80 H41        2.3388    5.5490    7.8125 H         2 RES2    0.0000
     81 H42        2.9995    4.2969    8.4910 H         2 RES2    0.0000
@<TRIPOS>BOND
     1    1    3 1
     2    3    5 1
     3    5    6 1
     4    6    7 1
     5    8    6 1
     6    9    6 1
     7   10    5 1
     8   11   10 1
     9   12   10 1
    10   13   10 1
    11   14    5 1
    12   15   14 1
    13   16   15 1
    14   17   15 1
    15   18   15 1
    16   19   14 1
    17   20   19 1
    18   21   19 1
    19   22   19 1
    20   23   14 1
    21   25    3 1
    22   26   25 1
    23   27   26 1
    24   28   27 1
    25   29   28 1
    26   30   28 1
    27   31   28 1
    28   32   27 2
    29   33   32 1
    30   34   33 1
    31   35   34 1
    32   36   34 1
    33   37   34 1
    34   38   26 2
    35   39   38 1
    36   40   39 1
    37   41   39 1
    38   42   39 1
    39   43   44 1
    40   44   45 1
    41   45   46 1
    42   46   47 1
    43   48   46 1
    44   49   46 1
    45   50   45 1
    46   51   50 1
    47   52   50 1
    48   53   50 1
    49   54   45 1
    50   55   54 1
    51   56   55 1
    52   57   55 1
    53   58   55 1
    54   59   54 1
    55   60   59 1
    56   61   59 1
    57   62   59 1
    58   63   54 1
    59   64   44 1
    60   65   64 1
    61   66   65 1
    62   67   66 1
    63   68   67 1
    64   69   67 1
    65   70   67 1
    66   71   66 2
    67   72   71 1
    68   73   72 1
    69   74   73 1
    70   75   73 1
    71   76   73 1
    72   77   65 2
    73   78   77 1
    74   79   78 1
    75   80   78 1
    76   81   78 1
    77   23   25 2
    78   33   38 1
    79   63   64 2
    80   72   77 1
@<TRIPOS>SUBSTRUCTURE
     1 RES1 1
     2 RES2 43
     3 SUP3 2

@<TRIPOS>CRYSIN
   7.7350   32.7760   11.7800  90.0000 103.7600  90.0000 231 1

