# MOL2 file generated by ConQuest
# Please check atom types

@<TRIPOS>MOLECULE
JADJEE
    67    71     1
SMALL
NO_CHARGES
****
Generated from CSD

@<TRIPOS>ATOM
      1 C1         6.7979    3.9958    7.7325 C.2       1 RES1    0.0000
      2 C2         7.7935    5.0795    7.9002 C.2       1 RES1    0.0000
      3 C3         9.3384    6.3893    6.7102 C.3       1 RES1    0.0000
      4 H1         9.6994    6.4686    5.8242 H         1 RES1    0.0000
      5 H2        10.0481    6.2041    7.3290 H         1 RES1    0.0000
      6 H3         8.9086    7.2132    6.9546 H         1 RES1    0.0000
      7 C4         6.3005    3.4260    6.6536 C.2       1 RES1    0.0000
      8 C5         6.7651    3.6218    5.2588 C.2       1 RES1    0.0000
      9 C6         6.6959    5.0481    3.4049 C.3       1 RES1    0.0000
     10 H4         6.2428    5.8405    3.1081 H         1 RES1    0.0000
     11 H5         6.5126    4.3268    2.7969 H         1 RES1    0.0000
     12 H6         7.6420    5.2112    3.4316 H         1 RES1    0.0000
     13 C7         5.2201    2.4495    7.0885 C.3       1 RES1    0.0000
     14 C8         3.8109    3.0356    7.0089 C.ar      1 RES1    0.0000
     15 C9         3.5989    4.3897    7.1472 C.ar      1 RES1    0.0000
     16 H7         4.3242    4.9723    7.1849 H         1 RES1    0.0000
     17 C10        2.3127    4.8838    7.2301 C.ar      1 RES1    0.0000
     18 H8         2.1770    5.7985    7.3361 H         1 RES1    0.0000
     19 C11        1.2414    4.0506    7.1590 C.ar      1 RES1    0.0000
     20 H9         0.3762    4.3909    7.2060 H         1 RES1    0.0000
     21 C12        1.4478    2.7070    7.0179 C.ar      1 RES1    0.0000
     22 H10        0.7179    2.1313    6.9669 H         1 RES1    0.0000
     23 C13        2.7199    2.1989    6.9514 C.ar      1 RES1    0.0000
     24 H11        2.8464    1.2818    6.8667 H         1 RES1    0.0000
     25 C14        5.3499    1.1024    6.3725 C.2       1 RES1    0.0000
     26 C15        4.1571    1.5510    3.1832 C.3       1 RES1    0.0000
     27 H12        3.7917    2.3026    2.7126 H         1 RES1    0.0000
     28 H13        3.5034    0.8483    3.2224 H         1 RES1    0.0000
     29 H14        4.9389    1.2352    2.7231 H         1 RES1    0.0000
     30 C16        6.0278   -0.0326    7.1105 C.3       1 RES1    0.0000
     31 C17        5.7378   -1.4065    6.6128 C.ar      1 RES1    0.0000
     32 C18        4.6182   -2.0614    7.0470 C.ar      1 RES1    0.0000
     33 H15        4.0631   -1.6582    7.6753 H         1 RES1    0.0000
     34 C19        4.3036   -3.3095    6.5625 C.ar      1 RES1    0.0000
     35 H16        3.5348   -3.7429    6.8544 H         1 RES1    0.0000
     36 C20        5.1280   -3.9119    5.6502 C.ar      1 RES1    0.0000
     37 H17        4.9222   -4.7591    5.3249 H         1 RES1    0.0000
     38 C21        6.2444   -3.2710    5.2212 C.ar      1 RES1    0.0000
     39 H18        6.8034   -3.6800    4.6006 H         1 RES1    0.0000
     40 C22        6.5518   -2.0206    5.6994 C.ar      1 RES1    0.0000
     41 H19        7.3178   -1.5883    5.4005 H         1 RES1    0.0000
     42 C23        7.6259    1.0336    8.1600 C.2       1 RES1    0.0000
     43 C24        8.8944    1.7211    8.5021 C.2       1 RES1    0.0000
     44 C25       11.1085    2.1057    7.9426 C.3       1 RES1    0.0000
     45 H20       11.7683    1.8016    7.3150 H         1 RES1    0.0000
     46 H21       11.4146    1.9367    8.8374 H         1 RES1    0.0000
     47 H22       10.9651    3.0473    7.8265 H         1 RES1    0.0000
     48 C26        6.3296    1.1956    8.9494 C.3       1 RES1    0.0000
     49 C27        6.4844    1.0045   10.4507 C.2       1 RES1    0.0000
     50 C28        5.5693    1.3552   12.5745 C.3       1 RES1    0.0000
     51 H23        4.8597    1.8528   12.9880 H         1 RES1    0.0000
     52 H24        6.4099    1.6209   12.9563 H         1 RES1    0.0000
     53 H25        5.4311    0.4172   12.7243 H         1 RES1    0.0000
     54 N1         5.0323    0.8533    5.1695 N.2       1 RES1    0.0000
     55 N2         7.4518    0.3212    7.1244 N.2       1 RES1    0.0000
     56 N3         5.5011    2.3460    8.5795 N.3       1 RES1    0.0000
     57 O1         6.2611    3.5403    8.9172 O.3       1 RES1    0.0000
     58 O2         8.0192    5.6332    8.9189 O.2       1 RES1    0.0000
     59 O3         8.3764    5.3161    6.7445 O.3       1 RES1    0.0000
     60 O4         7.5237    2.8796    4.7246 O.2       1 RES1    0.0000
     61 O5         6.2323    4.6957    4.7221 O.3       1 RES1    0.0000
     62 O6         4.5118    1.9443    4.5061 O.3       1 RES1    0.0000
     63 O7         8.9782    2.5031    9.3934 O.2       1 RES1    0.0000
     64 O8         9.8687    1.3995    7.7188 O.3       1 RES1    0.0000
     65 O9         7.3143    0.2797   10.8854 O.2       1 RES1    0.0000
     66 O10        5.5812    1.6230   11.1445 O.3       1 RES1    0.0000
     67 O11        5.6063    0.0874    8.4884 O.3       1 RES1    0.0000
@<TRIPOS>BOND
     1    1    2 1
     2    2   58 2
     3    3    4 1
     4    5    3 1
     5    6    3 1
     6    7    1 2
     7    8    7 1
     8    9   10 1
     9   11    9 1
    10   12    9 1
    11   13    7 1
    12   14   13 1
    13   15   14 ar
    14   16   15 1
    15   17   15 ar
    16   18   17 1
    17   19   17 ar
    18   20   19 1
    19   21   19 ar
    20   22   21 1
    21   23   14 ar
    22   24   23 1
    23   25   13 1
    24   26   27 1
    25   28   26 1
    26   29   26 1
    27   30   25 1
    28   31   30 1
    29   32   31 ar
    30   33   32 1
    31   34   32 ar
    32   35   34 1
    33   36   34 ar
    34   37   36 1
    35   38   36 ar
    36   39   38 1
    37   40   31 ar
    38   41   40 1
    39   42   43 1
    40   43   63 2
    41   44   45 1
    42   46   44 1
    43   47   44 1
    44   48   42 1
    45   49   48 1
    46   50   51 1
    47   52   50 1
    48   53   50 1
    49   54   25 2
    50   55   30 1
    51   56   13 1
    52   57    1 1
    53   59    2 1
    54   60    8 2
    55   61    8 1
    56   62   26 1
    57   64   43 1
    58   65   49 2
    59   66   49 1
    60   67   30 1
    61    3   59 1
    62    9   61 1
    63   21   23 ar
    64   38   40 ar
    65   42   55 2
    66   44   64 1
    67   48   56 1
    68   48   67 1
    69   50   66 1
    70   54   62 1
    71   56   57 1
@<TRIPOS>SUBSTRUCTURE
     1 RES1 1

@<TRIPOS>CRYSIN
  13.4620   11.6530   18.7140  90.0000 110.0500  90.0000 231 1

