# MOL2 file generated by ConQuest
# Please check atom types

@<TRIPOS>MOLECULE
JADKIJ
    60    61     1
SMALL
NO_CHARGES
****
Generated from CSD

@<TRIPOS>ATOM
      1 O1         7.2196   10.3324   18.6801 O.3       1 RES1    0.0000
      2 N1         8.0630    9.2849   19.2212 N.3       1 RES1    0.0000
      3 C1         9.1306    9.1869   18.2078 C.3       1 RES1    0.0000
      4 H1         9.9503    8.8420   18.6200 H         1 RES1    0.0000
      5 C2         9.3587   10.6023   17.7147 C.3       1 RES1    0.0000
      6 H2         9.5303   10.6158   16.7607 H         1 RES1    0.0000
      7 H3        10.1036   11.0170   18.1770 H         1 RES1    0.0000
      8 C3         8.0497   11.3022   18.0450 C.3       1 RES1    0.0000
      9 H4         7.6236   11.5737   17.2056 H         1 RES1    0.0000
     10 C4         8.6589    8.2299   17.1095 C.3       1 RES1    0.0000
     11 H5         7.8699    8.6272   16.6863 H         1 RES1    0.0000
     12 C5         8.2551    6.8498   17.6481 C.3       1 RES1    0.0000
     13 H6         7.6206    6.9990   18.3803 H         1 RES1    0.0000
     14 C6         9.4353    6.0653   18.2236 C.3       1 RES1    0.0000
     15 H7         9.1165    5.2474   18.6127 H         1 RES1    0.0000
     16 H8         9.8706    6.5917   18.8978 H         1 RES1    0.0000
     17 H9        10.0586    5.8646   17.5215 H         1 RES1    0.0000
     18 C7         7.5286    6.0461   16.5786 C.3       1 RES1    0.0000
     19 H10        8.1386    5.8338   15.8692 H         1 RES1    0.0000
     20 H11        6.7991    6.5645   16.2287 H         1 RES1    0.0000
     21 H12        7.1884    5.2351   16.9641 H         1 RES1    0.0000
     22 H13       10.5470    7.9619   16.4121 H         1 RES1    0.0000
     23 N2         9.7070    8.1352   16.0953 N.am      1 RES1    0.0000
     24 C8         9.4435    8.3644   14.8005 C.2       1 RES1    0.0000
     25 O2         8.3823    8.6419   14.3317 O.2       1 RES1    0.0000
     26 O3        10.5965    8.2539   14.0900 O.3       1 RES1    0.0000
     27 C9        10.6124    8.4211   12.6414 C.3       1 RES1    0.0000
     28 C10       10.1649    9.8048   12.2999 C.3       1 RES1    0.0000
     29 H14        9.2136    9.8690   12.4085 H         1 RES1    0.0000
     30 H15       10.3978   10.0011   11.3899 H         1 RES1    0.0000
     31 H16       10.5971   10.4331   12.8824 H         1 RES1    0.0000
     32 C11       12.0571    8.2125   12.2845 C.3       1 RES1    0.0000
     33 H17       12.5957    8.8679   12.7353 H         1 RES1    0.0000
     34 H18       12.1686    8.3050   11.3354 H         1 RES1    0.0000
     35 H19       12.3301    7.3336   12.5537 H         1 RES1    0.0000
     36 C12        9.7480    7.3583   12.0085 C.3       1 RES1    0.0000
     37 H20       10.0331    6.4929   12.3104 H         1 RES1    0.0000
     38 H21        9.8287    7.4076   11.0540 H         1 RES1    0.0000
     39 H22        8.8324    7.4990   12.2596 H         1 RES1    0.0000
     40 C13        8.1989   12.5205   18.9223 C.2       1 RES1    0.0000
     41 O4         9.0675   13.3557   18.5298 O.3       1 RES1    0.0000
     42 O5         7.5511   12.6998   19.9302 O.2       1 RES1    0.0000
     43 C14        9.2412   14.5832   19.3659 C.3       1 RES1    0.0000
     44 H23        8.5351   15.2041   19.1720 H         1 RES1    0.0000
     45 H24       10.0882   14.9881   19.1665 H         1 RES1    0.0000
     46 H25        9.2115   14.3437   20.2959 H         1 RES1    0.0000
     47 C15        8.5847    9.7461   20.5436 C.3       1 RES1    0.0000
     48 H26        7.8587   10.0863   21.0894 H         1 RES1    0.0000
     49 H27        9.2340   10.4554   20.4194 H         1 RES1    0.0000
     50 C16        9.2289    8.5655   21.2116 C.ar      1 RES1    0.0000
     51 C17        8.4901    7.4496   21.5102 C.ar      1 RES1    0.0000
     52 H28        7.5848    7.4299   21.2982 H         1 RES1    0.0000
     53 C18        9.0664    6.3584   22.1199 C.ar      1 RES1    0.0000
     54 H29        8.5576    5.6066   22.3186 H         1 RES1    0.0000
     55 C19       10.4132    6.3954   22.4339 C.ar      1 RES1    0.0000
     56 H30       10.8178    5.6622   22.8379 H         1 RES1    0.0000
     57 C20       11.1499    7.5150   22.1470 C.ar      1 RES1    0.0000
     58 H31       12.0552    7.5447   22.3585 H         1 RES1    0.0000
     59 C21       10.5429    8.5964   21.5436 C.ar      1 RES1    0.0000
     60 H32       11.0426    9.3592   21.3617 H         1 RES1    0.0000
@<TRIPOS>BOND
     1    1    2 1
     2    2    3 1
     3    3    4 1
     4    5    3 1
     5    6    5 1
     6    7    5 1
     7    8    1 1
     8    9    8 1
     9   10    3 1
    10   11   10 1
    11   12   10 1
    12   13   12 1
    13   14   12 1
    14   15   14 1
    15   16   14 1
    16   17   14 1
    17   18   12 1
    18   19   18 1
    19   20   18 1
    20   21   18 1
    21   22   23 1
    22   23   10 1
    23   24   23 1
    24   25   24 2
    25   26   24 1
    26   27   26 1
    27   28   27 1
    28   29   28 1
    29   30   28 1
    30   31   28 1
    31   32   27 1
    32   33   32 1
    33   34   32 1
    34   35   32 1
    35   36   27 1
    36   37   36 1
    37   38   36 1
    38   39   36 1
    39   40    8 1
    40   41   40 1
    41   42   40 2
    42   43   41 1
    43   44   43 1
    44   45   43 1
    45   46   43 1
    46   47    2 1
    47   48   47 1
    48   49   47 1
    49   50   47 1
    50   51   50 ar
    51   52   51 1
    52   53   51 ar
    53   54   53 1
    54   55   53 ar
    55   56   55 1
    56   57   55 ar
    57   58   57 1
    58   59   50 ar
    59   60   59 1
    60    5    8 1
    61   57   59 ar
@<TRIPOS>SUBSTRUCTURE
     1 RES1 1

@<TRIPOS>CRYSIN
  10.2180   12.3440   18.1570  90.0000  90.0000  90.0000  19 1

