# MOL2 file generated by ConQuest
# Please check atom types

@<TRIPOS>MOLECULE
JADKUV
   138   144     2
SMALL
NO_CHARGES
****
Generated from CSD

@<TRIPOS>ATOM
      1 O1         5.8088    8.8794   36.7253 O.3       1 RES1    0.0000
      2 N1         6.0938    9.8576   35.6932 N.3       1 RES1    0.0000
      3 C1         7.5707   10.0319   35.7606 C.3       1 RES1    0.0000
      4 H1         7.9207   10.0780   34.8474 H         1 RES1    0.0000
      5 C2         8.1273    8.7579   36.4344 C.3       1 RES1    0.0000
      6 H2         8.5301    8.9998   37.2944 H         1 RES1    0.0000
      7 C3         6.8902    7.9251   36.6858 C.3       1 RES1    0.0000
      8 H3         6.7571    7.2823   35.9722 H         1 RES1    0.0000
      9 H4         6.9613    7.4493   37.5291 H         1 RES1    0.0000
     10 C4         7.9712   11.3220   36.5011 C.3       1 RES1    0.0000
     11 H5         7.6947   11.1861   37.4322 H         1 RES1    0.0000
     12 C5         9.5113   11.4729   36.5458 C.3       1 RES1    0.0000
     13 H6         9.8751   10.6171   36.8512 H         1 RES1    0.0000
     14 C6        10.1471   11.7724   35.1856 C.3       1 RES1    0.0000
     15 H7        11.1030   11.7851   35.2757 H         1 RES1    0.0000
     16 H8         9.8441   12.6271   34.8697 H         1 RES1    0.0000
     17 H9         9.8935   11.0916   34.5568 H         1 RES1    0.0000
     18 C7         9.9508   12.5258   37.5443 C.3       1 RES1    0.0000
     19 H10        9.7110   13.3966   37.2199 H         1 RES1    0.0000
     20 H11       10.9033   12.4785   37.6594 H         1 RES1    0.0000
     21 H12        9.5182   12.3691   38.3857 H         1 RES1    0.0000
     22 C8         9.1670    8.0483   35.5815 C.3       1 RES1    0.0000
     23 H13        8.7688    7.8133   34.7282 H         1 RES1    0.0000
     24 H14        9.9026    8.6565   35.4098 H         1 RES1    0.0000
     25 O2         9.6674    6.8821   36.1923 O.3       1 RES1    0.0000
     26 H15       10.1104    7.0876   36.8512 H         1 RES1    0.0000
     27 N2         7.3102   12.5591   36.0731 N.3       1 RES1    0.0000
     28 C9         6.9602   12.6548   34.6440 C.3       1 RES1    0.0000
     29 H16        6.1247   12.1883   34.4823 H         1 RES1    0.0000
     30 H17        7.6499   12.2274   34.1136 H         1 RES1    0.0000
     31 C10        6.8190   14.0981   34.2205 C.ar      1 RES1    0.0000
     32 C11        7.8530   14.9977   34.4205 C.ar      1 RES1    0.0000
     33 H18        8.6426   14.7121   34.8213 H         1 RES1    0.0000
     34 C12        7.7199   16.3144   34.0298 C.ar      1 RES1    0.0000
     35 H19        8.4245   16.9076   34.1546 H         1 RES1    0.0000
     36 C13        6.5494   16.7544   33.4581 C.ar      1 RES1    0.0000
     37 H20        6.4598   17.6437   33.2011 H         1 RES1    0.0000
     38 C14        5.5165   15.8732   33.2696 C.ar      1 RES1    0.0000
     39 H21        4.7212   16.1669   32.8882 H         1 RES1    0.0000
     40 C15        5.6508   14.5577   33.6443 C.ar      1 RES1    0.0000
     41 H22        4.9450   13.9679   33.5065 H         1 RES1    0.0000
     42 C16        6.1431   12.9474   36.8963 C.3       1 RES1    0.0000
     43 H23        5.5727   12.1733   37.0262 H         1 RES1    0.0000
     44 H24        5.6301   13.6212   36.4229 H         1 RES1    0.0000
     45 C17        6.5539   13.4887   38.2397 C.ar      1 RES1    0.0000
     46 C18        6.0788   12.9462   39.4212 C.ar      1 RES1    0.0000
     47 H25        5.4855   12.2320   39.3951 H         1 RES1    0.0000
     48 C19        6.4828   13.4623   40.6447 C.ar      1 RES1    0.0000
     49 H26        6.1557   13.0913   41.4325 H         1 RES1    0.0000
     50 C20        7.3527   14.5070   40.7013 C.ar      1 RES1    0.0000
     51 H27        7.6338   14.8330   41.5256 H         1 RES1    0.0000
     52 C21        7.8220   15.0841   39.5366 C.ar      1 RES1    0.0000
     53 H28        8.4062   15.8052   39.5739 H         1 RES1    0.0000
     54 C22        7.4146   14.5796   38.3049 C.ar      1 RES1    0.0000
     55 H29        7.7199   14.9747   37.5216 H         1 RES1    0.0000
     56 C23        5.6909    9.2705   34.3978 C.3       1 RES1    0.0000
     57 H30        6.2211    8.4745   34.2291 H         1 RES1    0.0000
     58 H31        5.8746    9.9052   33.6890 H         1 RES1    0.0000
     59 C24        4.2427    8.9099   34.3728 C.ar      1 RES1    0.0000
     60 C25        3.8307    7.5830   34.3952 C.ar      1 RES1    0.0000
     61 H32        4.4665    6.9056   34.4339 H         1 RES1    0.0000
     62 C26        2.4868    7.2547   34.3613 C.ar      1 RES1    0.0000
     63 H33        2.2298    6.3608   34.3781 H         1 RES1    0.0000
     64 C27        1.5458    8.2188   34.3017 C.ar      1 RES1    0.0000
     65 H34        0.6450    7.9873   34.2887 H         1 RES1    0.0000
     66 C28        1.9130    9.5458   34.2622 C.ar      1 RES1    0.0000
     67 H35        1.2635   10.2081   34.2105 H         1 RES1    0.0000
     68 C29        3.2684    9.8914   34.3017 C.ar      1 RES1    0.0000
     69 H36        3.5162   10.7875   34.2812 H         1 RES1    0.0000
     70 O3         5.4726    7.8323   28.4139 O.3       2 RES2    0.0000
     71 N3         4.5365    7.5080   29.4702 N.3       2 RES2    0.0000
     72 C30        4.3758    6.0313   29.3703 C.3       2 RES2    0.0000
     73 H37        4.3345    5.6593   30.2773 H         2 RES2    0.0000
     74 C31        5.6611    5.5049   28.6764 C.3       2 RES2    0.0000
     75 H38        5.4144    5.0776   27.8302 H         2 RES2    0.0000
     76 C32        6.4392    6.7732   28.3800 C.3       2 RES2    0.0000
     77 H39        7.1277    6.9160   29.0482 H         2 RES2    0.0000
     78 H40        6.8592    6.7202   27.5062 H         2 RES2    0.0000
     79 C33        3.0939    5.6374   28.6187 C.3       2 RES2    0.0000
     80 H41        3.2316    5.9127   27.6887 H         2 RES2    0.0000
     81 C34        2.9367    4.0962   28.5882 C.3       2 RES2    0.0000
     82 H42        3.7859    3.7287   28.2660 H         2 RES2    0.0000
     83 C35        2.6613    3.4545   29.9402 C.3       2 RES2    0.0000
     84 H43        2.6555    2.4996   29.8452 H         2 RES2    0.0000
     85 H44        1.8063    3.7483   30.2661 H         2 RES2    0.0000
     86 H45        3.3453    3.7114   30.5603 H         2 RES2    0.0000
     87 C36        1.8660    3.6619   27.5997 C.3       2 RES2    0.0000
     88 H46        1.0030    3.9222   27.9271 H         2 RES2    0.0000
     89 H47        1.8947    2.7081   27.4950 H         2 RES2    0.0000
     90 H48        2.0255    4.0823   26.7501 H         2 RES2    0.0000
     91 C37        6.4025    4.5016   29.5402 C.3       2 RES2    0.0000
     92 H49        6.1179    3.4787   29.7223 H         2 RES2    0.0000
     93 H50        6.7135    4.9877   30.3629 H         2 RES2    0.0000
     94 O4         7.5650    4.0190   28.9290 O.3       2 RES2    0.0000
     95 H51        7.3619    3.5121   28.3181 H         2 RES2    0.0000
     96 N4         1.8545    6.3067   29.0631 N.3       2 RES2    0.0000
     97 C38        1.7478    6.6303   30.4840 C.3       2 RES2    0.0000
     98 H52        2.2424    7.4447   30.6646 H         2 RES2    0.0000
     99 H53        2.1437    5.9162   31.0073 H         2 RES2    0.0000
    100 C39        0.3156    6.8146   30.8985 C.ar      2 RES2    0.0000
    101 C40       -0.1113    8.0092   31.4192 C.ar      2 RES2    0.0000
    102 H54        0.4889    8.7141   31.4989 H         2 RES2    0.0000
    103 C41       -1.4322    8.1819   31.8293 C.ar      2 RES2    0.0000
    104 H55       -1.7122    8.9986   32.1768 H         2 RES2    0.0000
    105 C42       -2.3182    7.1418   31.7191 C.ar      2 RES2    0.0000
    106 H56       -3.1972    7.2478   32.0055 H         2 RES2    0.0000
    107 C43       -1.9096    5.9427   31.1894 C.ar      2 RES2    0.0000
    108 H57       -2.5121    5.2377   31.1079 H         2 RES2    0.0000
    109 C44       -0.5979    5.7871   30.7771 C.ar      2 RES2    0.0000
    110 H58       -0.3271    4.9751   30.4114 H         2 RES2    0.0000
    111 C45        1.4953    7.4839   28.2388 C.3       2 RES2    0.0000
    112 H59        2.2837    8.0368   28.1133 H         2 RES2    0.0000
    113 H60        0.8343    8.0126   28.7129 H         2 RES2    0.0000
    114 C46        0.9445    7.0957   26.8868 C.ar      2 RES2    0.0000
    115 C47       -0.1515    6.2594   26.7892 C.ar      2 RES2    0.0000
    116 H61       -0.5623    5.9427   27.5620 H         2 RES2    0.0000
    117 C48       -0.6392    5.8908   25.5541 C.ar      2 RES2    0.0000
    118 H62       -1.3599    5.3057   25.4949 H         2 RES2    0.0000
    119 C49       -0.0551    6.3942   24.4006 C.ar      2 RES2    0.0000
    120 H63       -0.3902    6.1511   23.5693 H         2 RES2    0.0000
    121 C50        1.0019    7.2397   24.4807 C.ar      2 RES2    0.0000
    122 H64        1.3829    7.5818   23.7034 H         2 RES2    0.0000
    123 C51        1.5217    7.5979   25.7284 C.ar      2 RES2    0.0000
    124 H65        2.2516    8.1716   25.7817 H         2 RES2    0.0000
    125 C52        5.1780    7.8894   30.7462 C.3       2 RES2    0.0000
    126 H66        6.0111    7.4010   30.8397 H         2 RES2    0.0000
    127 H67        4.5996    7.6313   31.4803 H         2 RES2    0.0000
    128 C53        5.4580    9.3523   30.8375 C.ar      2 RES2    0.0000
    129 C54        4.4229   10.2634   31.0077 C.ar      2 RES2    0.0000
    130 H68        3.5415    9.9685   31.0408 H         2 RES2    0.0000
    131 C55        4.7109   11.6169   31.1298 C.ar      2 RES2    0.0000
    132 H69        4.0177   12.2263   31.2419 H         2 RES2    0.0000
    133 C56        6.0111   12.0638   31.0859 C.ar      2 RES2    0.0000
    134 H70        6.1936   12.9704   31.1786 H         2 RES2    0.0000
    135 C57        7.0359   11.1757   30.9071 C.ar      2 RES2    0.0000
    136 H71        7.9138   11.4775   30.8695 H         2 RES2    0.0000
    137 C58        6.7571    9.8257   30.7808 C.ar      2 RES2    0.0000
    138 H72        7.4560    9.2256   30.6572 H         2 RES2    0.0000
@<TRIPOS>BOND
     1    1    2 1
     2    2    3 1
     3    3    4 1
     4    5    3 1
     5    6    5 1
     6    7    1 1
     7    8    7 1
     8    9    7 1
     9   10    3 1
    10   11   10 1
    11   12   10 1
    12   13   12 1
    13   14   12 1
    14   15   14 1
    15   16   14 1
    16   17   14 1
    17   18   12 1
    18   19   18 1
    19   20   18 1
    20   21   18 1
    21   22    5 1
    22   23   22 1
    23   24   22 1
    24   25   22 1
    25   26   25 1
    26   27   10 1
    27   28   27 1
    28   29   28 1
    29   30   28 1
    30   31   28 1
    31   32   31 ar
    32   33   32 1
    33   34   32 ar
    34   35   34 1
    35   36   34 ar
    36   37   36 1
    37   38   36 ar
    38   39   38 1
    39   40   31 ar
    40   41   40 1
    41   42   27 1
    42   43   42 1
    43   44   42 1
    44   45   42 1
    45   46   45 ar
    46   47   46 1
    47   48   46 ar
    48   49   48 1
    49   50   48 ar
    50   51   50 1
    51   52   50 ar
    52   53   52 1
    53   54   45 ar
    54   55   54 1
    55   56    2 1
    56   57   56 1
    57   58   56 1
    58   59   56 1
    59   60   59 ar
    60   61   60 1
    61   62   60 ar
    62   63   62 1
    63   64   62 ar
    64   65   64 1
    65   66   64 ar
    66   67   66 1
    67   68   59 ar
    68   69   68 1
    69   70   71 1
    70   71   72 1
    71   72   73 1
    72   74   72 1
    73   75   74 1
    74   76   70 1
    75   77   76 1
    76   78   76 1
    77   79   72 1
    78   80   79 1
    79   81   79 1
    80   82   81 1
    81   83   81 1
    82   84   83 1
    83   85   83 1
    84   86   83 1
    85   87   81 1
    86   88   87 1
    87   89   87 1
    88   90   87 1
    89   91   74 1
    90   92   91 1
    91   93   91 1
    92   94   91 1
    93   95   94 1
    94   96   79 1
    95   97   96 1
    96   98   97 1
    97   99   97 1
    98  100   97 1
    99  101  100 ar
   100  102  101 1
   101  103  101 ar
   102  104  103 1
   103  105  103 ar
   104  106  105 1
   105  107  105 ar
   106  108  107 1
   107  109  100 ar
   108  110  109 1
   109  111   96 1
   110  112  111 1
   111  113  111 1
   112  114  111 1
   113  115  114 ar
   114  116  115 1
   115  117  115 ar
   116  118  117 1
   117  119  117 ar
   118  120  119 1
   119  121  119 ar
   120  122  121 1
   121  123  114 ar
   122  124  123 1
   123  125   71 1
   124  126  125 1
   125  127  125 1
   126  128  125 1
   127  129  128 ar
   128  130  129 1
   129  131  129 ar
   130  132  131 1
   131  133  131 ar
   132  134  133 1
   133  135  133 ar
   134  136  135 1
   135  137  128 ar
   136  138  137 1
   137    5    7 1
   138   38   40 ar
   139   52   54 ar
   140   66   68 ar
   141   74   76 1
   142  107  109 ar
   143  121  123 ar
   144  135  137 ar
@<TRIPOS>SUBSTRUCTURE
     1 RES1 1
     2 RES2 70

@<TRIPOS>CRYSIN
  11.4760   11.5190   37.2460  90.0000  90.0000  90.0000  19 1

