# MOL2 file generated by ConQuest
# Please check atom types

@<TRIPOS>MOLECULE
JADKOP
    69    72     1
SMALL
NO_CHARGES
****
Generated from CSD

@<TRIPOS>ATOM
      1 O1         4.2016    3.2316    8.2882 O.3       1 RES1    0.0000
      2 N1         2.8689    3.8105    8.2955 N.3       1 RES1    0.0000
      3 C1         2.2095    3.1027    7.1902 C.3       1 RES1    0.0000
      4 H1         1.2381    3.1129    7.3189 H         1 RES1    0.0000
      5 C2         2.7360    1.6682    7.3014 C.3       1 RES1    0.0000
      6 H2         2.1860    1.1402    7.8996 H         1 RES1    0.0000
      7 H3         2.7602    1.2379    6.4322 H         1 RES1    0.0000
      8 C3         4.1158    1.8429    7.8559 C.3       1 RES1    0.0000
      9 H4         4.7686    1.6909    7.1406 H         1 RES1    0.0000
     10 C4         2.5653    3.7618    5.8622 C.3       1 RES1    0.0000
     11 H5         3.5417    3.6999    5.7910 H         1 RES1    0.0000
     12 C5         2.2389    5.2615    5.7649 C.3       1 RES1    0.0000
     13 H6         2.0734    5.4384    4.8156 H         1 RES1    0.0000
     14 C6         3.4114    6.1038    6.1369 C.3       1 RES1    0.0000
     15 H7         3.6634    5.9181    7.0441 H         1 RES1    0.0000
     16 H8         3.1771    7.0316    6.0531 H         1 RES1    0.0000
     17 H9         4.1460    5.9052    5.5523 H         1 RES1    0.0000
     18 C7         0.9944    5.7445    6.5034 C.3       1 RES1    0.0000
     19 H10        0.2244    5.2778    6.1710 H         1 RES1    0.0000
     20 H11        0.8833    6.6868    6.3620 H         1 RES1    0.0000
     21 H12        1.0922    5.5709    7.4426 H         1 RES1    0.0000
     22 C8         4.4303    0.9189    9.0132 C.3       1 RES1    0.0000
     23 H13        3.8053    1.0715    9.7384 H         1 RES1    0.0000
     24 H14        4.3508   -0.0048    8.7299 H         1 RES1    0.0000
     25 O2         5.7072    1.1684    9.4394 O.3       1 RES1    0.0000
     26 H15        5.9359    0.5870    9.9703 H         1 RES1    0.0000
     27 N2         2.0327    2.9463    4.7433 N.3       1 RES1    0.0000
     28 C9         0.5984    3.1153    4.4911 C.3       1 RES1    0.0000
     29 H16        0.4492    3.9583    4.0351 H         1 RES1    0.0000
     30 H17        0.1243    3.1452    5.3369 H         1 RES1    0.0000
     31 C10        0.0502    1.9864    3.6497 C.ar      1 RES1    0.0000
     32 C11       -0.6525    2.2311    2.4984 C.ar      1 RES1    0.0000
     33 H18       -0.7698    3.1064    2.2080 H         1 RES1    0.0000
     34 C12       -1.1896    1.1854    1.7627 C.ar      1 RES1    0.0000
     35 H19       -1.6594    1.3606    0.9793 H         1 RES1    0.0000
     36 C13       -1.0286   -0.0791    2.1816 C.ar      1 RES1    0.0000
     37 H20       -1.3979   -0.7792    1.6926 H         1 RES1    0.0000
     38 C14       -0.3248   -0.3432    3.3244 C.ar      1 RES1    0.0000
     39 H21       -0.2042   -1.2193    3.6112 H         1 RES1    0.0000
     40 C15        0.2010    0.6985    4.0419 C.ar      1 RES1    0.0000
     41 H22        0.6744    0.5160    4.8205 H         1 RES1    0.0000
     42 C16        2.8084    3.1411    3.5139 C.3       1 RES1    0.0000
     43 H23        2.9397    4.0924    3.3715 H         1 RES1    0.0000
     44 H24        2.2980    2.7971    2.7635 H         1 RES1    0.0000
     45 C17        4.1505    2.4661    3.5428 C.ar      1 RES1    0.0000
     46 C18        5.3154    3.1468    3.3645 C.ar      1 RES1    0.0000
     47 H25        5.2932    4.0730    3.2848 H         1 RES1    0.0000
     48 C19        6.5364    2.4863    3.2999 C.ar      1 RES1    0.0000
     49 H26        7.3223    2.9651    3.1610 H         1 RES1    0.0000
     50 C20        6.5740    1.1644    3.4378 C.ar      1 RES1    0.0000
     51 H27        7.3920    0.7243    3.3832 H         1 RES1    0.0000
     52 C21        5.4469    0.4457    3.6570 C.ar      1 RES1    0.0000
     53 H28        5.4892   -0.4756    3.7730 H         1 RES1    0.0000
     54 C22        4.2270    1.1030    3.7057 C.ar      1 RES1    0.0000
     55 H29        3.4498    0.6145    3.8509 H         1 RES1    0.0000
     56 C23        2.2629    3.5368    9.6120 C.3       1 RES1    0.0000
     57 H30        2.9590    3.4520   10.2821 H         1 RES1    0.0000
     58 H31        1.7728    2.7011    9.5786 H         1 RES1    0.0000
     59 C24        1.3331    4.6576    9.9847 C.ar      1 RES1    0.0000
     60 C25       -0.0279    4.4719   10.1009 C.ar      1 RES1    0.0000
     61 H32       -0.4155    3.6458    9.9216 H         1 RES1    0.0000
     62 C26       -0.8370    5.5983   10.5092 C.ar      1 RES1    0.0000
     63 H33       -1.7565    5.5039   10.6163 H         1 RES1    0.0000
     64 C27       -0.2331    6.8104   10.7381 C.ar      1 RES1    0.0000
     65 H34       -0.7540    7.5347   11.0003 H         1 RES1    0.0000
     66 C28        1.0423    6.9662   10.5969 C.ar      1 RES1    0.0000
     67 H35        1.4253    7.8004   10.7489 H         1 RES1    0.0000
     68 C29        1.8414    5.9036   10.2235 C.ar      1 RES1    0.0000
     69 H36        2.7581    6.0408   10.1311 H         1 RES1    0.0000
@<TRIPOS>BOND
     1    1    2 1
     2    2    3 1
     3    3    4 1
     4    5    3 1
     5    6    5 1
     6    7    5 1
     7    8    1 1
     8    9    8 1
     9   10    3 1
    10   11   10 1
    11   12   10 1
    12   13   12 1
    13   14   12 1
    14   15   14 1
    15   16   14 1
    16   17   14 1
    17   18   12 1
    18   19   18 1
    19   20   18 1
    20   21   18 1
    21   22    8 1
    22   23   22 1
    23   24   22 1
    24   25   22 1
    25   26   25 1
    26   27   10 1
    27   28   27 1
    28   29   28 1
    29   30   28 1
    30   31   28 1
    31   32   31 ar
    32   33   32 1
    33   34   32 ar
    34   35   34 1
    35   36   34 ar
    36   37   36 1
    37   38   36 ar
    38   39   38 1
    39   40   31 ar
    40   41   40 1
    41   42   27 1
    42   43   42 1
    43   44   42 1
    44   45   42 1
    45   46   45 ar
    46   47   46 1
    47   48   46 ar
    48   49   48 1
    49   50   48 ar
    50   51   50 1
    51   52   50 ar
    52   53   52 1
    53   54   45 ar
    54   55   54 1
    55   56    2 1
    56   57   56 1
    57   58   56 1
    58   59   56 1
    59   60   59 ar
    60   61   60 1
    61   62   60 ar
    62   63   62 1
    63   64   62 ar
    64   65   64 1
    65   66   64 ar
    66   67   66 1
    67   68   59 ar
    68   69   68 1
    69    5    8 1
    70   38   40 ar
    71   52   54 ar
    72   66   68 ar
@<TRIPOS>SUBSTRUCTURE
     1 RES1 1

@<TRIPOS>CRYSIN
  32.8090    8.0749   10.1120  90.0000 105.5000  90.0000   5 1

