# MOL2 file generated by ConQuest
# Please check atom types

@<TRIPOS>MOLECULE
JADRAI
    54    57     1
SMALL
NO_CHARGES
****
Generated from CSD

@<TRIPOS>ATOM
      1 C1         2.1349    4.9041    5.5155 C.3       1 RES1    0.0000
      2 H1         2.9980    5.4093    5.5003 H         1 RES1    0.0000
      3 N1         2.3397    3.6463    4.7571 N.am      1 RES1    0.0000
      4 C2         3.2288    3.6915    3.7298 C.2       1 RES1    0.0000
      5 C3         3.5498    2.3815    2.9839 C.3       1 RES1    0.0000
      6 H2         3.6278    1.6269    3.6356 H         1 RES1    0.0000
      7 O1         4.8100    2.5690    2.2882 O.3       1 RES1    0.0000
      8 C4         5.9213    2.5647    3.0610 C.2       1 RES1    0.0000
      9 O2         5.9038    2.3802    4.2587 O.2       1 RES1    0.0000
     10 C5         7.1370    2.8512    2.2377 C.3       1 RES1    0.0000
     11 H3         6.9631    2.6111    1.3027 H         1 RES1    0.0000
     12 H4         7.8912    2.3248    2.5754 H         1 RES1    0.0000
     13 H5         7.3532    3.8052    2.2944 H         1 RES1    0.0000
     14 C6         1.0890    5.7576    4.8002 C.ar      1 RES1    0.0000
     15 C7        -0.2641    5.3928    4.8549 C.ar      1 RES1    0.0000
     16 H6        -0.5274    4.6918    5.4384 H         1 RES1    0.0000
     17 C8        -1.2304    6.0236    4.0833 C.ar      1 RES1    0.0000
     18 H7        -2.1366    5.7444    4.1340 H         1 RES1    0.0000
     19 C9        -0.8688    7.0665    3.2338 C.ar      1 RES1    0.0000
     20 H8        -1.5246    7.4868    2.6891 H         1 RES1    0.0000
     21 C10        0.4494    7.4910    3.1833 C.ar      1 RES1    0.0000
     22 H9         0.7030    8.2107    2.6172 H         1 RES1    0.0000
     23 C11        1.3938    6.8500    3.9728 C.ar      1 RES1    0.0000
     24 N2         2.7607    7.4113    3.9430 N.pl3     1 RES1    0.0000
     25 O3         3.2044    7.8110    2.8655 O.2       1 RES1    0.0000
     26 O4         3.3694    7.5121    5.0101 O.2       1 RES1    0.0000
     27 C12        1.7839    4.6408    6.9689 C.ar      1 RES1    0.0000
     28 C13        1.6798    5.7555    7.8229 C.ar      1 RES1    0.0000
     29 H10        1.7904    6.6294    7.4669 H         1 RES1    0.0000
     30 C14        1.4190    5.5959    9.1759 C.ar      1 RES1    0.0000
     31 H11        1.3710    6.3528    9.7480 H         1 RES1    0.0000
     32 C15        1.2280    4.3144    9.6847 C.ar      1 RES1    0.0000
     33 H12        1.0329    4.1956   10.6075 H         1 RES1    0.0000
     34 C16        1.3206    3.2094    8.8513 C.ar      1 RES1    0.0000
     35 H13        1.1857    2.3394    9.2078 H         1 RES1    0.0000
     36 C17        1.6108    3.3601    7.4935 C.ar      1 RES1    0.0000
     37 C18        1.7717    2.1479    6.6013 C.3       1 RES1    0.0000
     38 H14        1.1329    1.4463    6.8849 H         1 RES1    0.0000
     39 H15        2.6876    1.7863    6.7043 H         1 RES1    0.0000
     40 C19        1.5287    2.4878    5.1427 C.3       1 RES1    0.0000
     41 H16        1.7652    1.7114    4.5755 H         1 RES1    0.0000
     42 H17        0.5697    2.6908    5.0036 H         1 RES1    0.0000
     43 O5         3.7934    4.7413    3.4082 O.2       1 RES1    0.0000
     44 C20        2.5575    2.0245    1.8927 C.ar      1 RES1    0.0000
     45 C21        2.2138    2.9561    0.9123 C.ar      1 RES1    0.0000
     46 H18        2.5462    3.8442    0.9649 H         1 RES1    0.0000
     47 C22        1.3840    2.5851   -0.1447 C.ar      1 RES1    0.0000
     48 H19        1.1654    3.2147   -0.8211 H         1 RES1    0.0000
     49 C23        0.8801    1.2982   -0.2087 C.ar      1 RES1    0.0000
     50 H20        0.3080    1.0509   -0.9248 H         1 RES1    0.0000
     51 C24        1.2036    0.3708    0.7634 C.ar      1 RES1    0.0000
     52 H21        0.8517   -0.5108    0.7158 H         1 RES1    0.0000
     53 C25        2.0464    0.7319    1.8120 C.ar      1 RES1    0.0000
     54 H22        2.2739    0.0927    2.4767 H         1 RES1    0.0000
@<TRIPOS>BOND
     1    1    2 1
     2    3    1 1
     3    4    3 1
     4    5    4 1
     5    6    5 1
     6    7    5 1
     7    8    7 1
     8    9    8 2
     9   10    8 1
    10   11   10 1
    11   12   10 1
    12   13   10 1
    13   14    1 1
    14   15   14 ar
    15   16   15 1
    16   17   15 ar
    17   18   17 1
    18   19   17 ar
    19   20   19 1
    20   21   19 ar
    21   22   21 1
    22   23   14 ar
    23   24   23 1
    24   25   24 2
    25   26   24 2
    26   27    1 1
    27   28   27 ar
    28   29   28 1
    29   30   28 ar
    30   31   30 1
    31   32   30 ar
    32   33   32 1
    33   34   32 ar
    34   35   34 1
    35   36   27 ar
    36   37   36 1
    37   38   37 1
    38   39   37 1
    39   40    3 1
    40   41   40 1
    41   42   40 1
    42   43    4 2
    43   44    5 1
    44   45   44 ar
    45   46   45 1
    46   47   45 ar
    47   48   47 1
    48   49   47 ar
    49   50   49 1
    50   51   49 ar
    51   52   51 1
    52   53   44 ar
    53   54   53 1
    54   21   23 ar
    55   34   36 ar
    56   37   40 1
    57   51   53 ar
@<TRIPOS>SUBSTRUCTURE
     1 RES1 1

@<TRIPOS>CRYSIN
   8.1269   16.2685   16.7232  90.0000  90.0000  90.0000  19 1

