# MOL2 file generated by ConQuest
# Please check atom types

@<TRIPOS>MOLECULE
JADYIW
    47    50     1
SMALL
USER_CHARGES
****
Generated from CSD

@<TRIPOS>ATOM
      1 C1        11.4791    4.6894   10.0612 C.3       1 RES1    0.0000
      2 H1        11.0669    3.8142   10.2718 H         1 RES1    0.0000
      3 H2        11.3245    5.3096   10.8177 H         1 RES1    0.0000
      4 C2        12.9941    4.5352    9.7645 C.3       1 RES1    0.0000
      5 H3        13.5153    5.2215   10.2515 H         1 RES1    0.0000
      6 H4        13.3134    3.6398   10.0385 H         1 RES1    0.0000
      7 C3        13.1392    4.7203    8.2509 C.3       1 RES1    0.0000
      8 H5        13.4710    5.6275    8.0336 H         1 RES1    0.0000
      9 H6        13.7614    4.0514    7.8692 H         1 RES1    0.0000
     10 N1        11.7517    4.5185    7.7325 N.4       1 RES1    1.0000
     11 O1        11.4678    3.1549    7.7256 O.2       1 RES1   -1.0000
     12 C4        11.5159    5.1066    6.3849 C.3       1 RES1    0.0000
     13 H7        12.0252    4.5952    5.7081 H         1 RES1    0.0000
     14 H8        11.8398    6.0419    6.3717 H         1 RES1    0.0000
     15 C5        10.0490    5.0777    6.0399 C.3       1 RES1    0.0000
     16 H9         9.7459    4.1367    5.9882 H         1 RES1    0.0000
     17 H10        9.9166    5.4896    5.1501 H         1 RES1    0.0000
     18 C6         9.1970    5.8229    7.0697 C.3       1 RES1    0.0000
     19 H11        9.5211    6.7685    7.1002 H         1 RES1    0.0000
     20 C7         7.6823    5.8614    6.7654 C.3       1 RES1    0.0000
     21 C8         7.0593    4.5119    7.0912 C.ar      1 RES1    0.0000
     22 C9         5.8036    4.1769    6.5728 C.ar      1 RES1    0.0000
     23 H12        5.3267    4.8258    6.0693 H         1 RES1    0.0000
     24 C10        5.2376    2.9386    6.7688 C.ar      1 RES1    0.0000
     25 H13        4.3815    2.7387    6.4102 H         1 RES1    0.0000
     26 C11        5.9337    1.9878    7.4949 C.ar      1 RES1    0.0000
     27 H14        5.5597    1.1214    7.6075 H         1 RES1    0.0000
     28 C12        7.1666    2.2753    8.0624 C.ar      1 RES1    0.0000
     29 C13        7.7163    3.5659    7.8885 C.ar      1 RES1    0.0000
     30 N2         8.9231    3.8444    8.5450 N.3       1 RES1    0.0000
     31 H15        9.5720    3.2994    8.3502 H         1 RES1    0.0000
     32 C14        9.4440    5.2051    8.4543 C.3       1 RES1    0.0000
     33 H16        8.9648    5.7644    9.1314 H         1 RES1    0.0000
     34 C15       10.9282    5.2573    8.7682 C.3       1 RES1    0.0000
     35 H17       11.2031    6.2182    8.7296 H         1 RES1    0.0000
     36 C16        7.4634    6.2163    5.2830 C.3       1 RES1    0.0000
     37 H18        7.7127    5.4503    4.7240 H         1 RES1    0.0000
     38 H19        8.0179    6.9879    5.0466 H         1 RES1    0.0000
     39 H20        6.5197    6.4347    5.1359 H         1 RES1    0.0000
     40 C17        7.0220    6.9612    7.6154 C.3       1 RES1    0.0000
     41 H21        6.0553    6.9598    7.4573 H         1 RES1    0.0000
     42 H22        7.3927    7.8336    7.3660 H         1 RES1    0.0000
     43 H23        7.1974    6.7910    8.5632 H         1 RES1    0.0000
     44 C18        7.9200    1.2459    8.8437 C.3       1 RES1    0.0000
     45 H24        7.3648    0.4454    8.9488 H         1 RES1    0.0000
     46 H25        8.1443    1.6061    9.7260 H         1 RES1    0.0000
     47 H26        8.7432    1.0117    8.3664 H         1 RES1    0.0000
@<TRIPOS>BOND
     1    1    2 1
     2    3    1 1
     3    4    1 1
     4    5    4 1
     5    6    4 1
     6    7    4 1
     7    8    7 1
     8    9    7 1
     9   10    7 1
    10   11   10 1
    11   12   10 1
    12   13   12 1
    13   14   12 1
    14   15   12 1
    15   16   15 1
    16   17   15 1
    17   18   15 1
    18   19   18 1
    19   20   18 1
    20   21   20 1
    21   22   21 ar
    22   23   22 1
    23   24   22 ar
    24   25   24 1
    25   26   24 ar
    26   27   26 1
    27   28   26 ar
    28   29   21 ar
    29   30   29 1
    30   31   30 1
    31   32   18 1
    32   33   32 1
    33   34    1 1
    34   35   34 1
    35   36   20 1
    36   37   36 1
    37   38   36 1
    38   39   36 1
    39   40   20 1
    40   41   40 1
    41   42   40 1
    42   43   40 1
    43   44   28 1
    44   45   44 1
    45   46   44 1
    46   47   44 1
    47   10   34 1
    48   28   29 ar
    49   30   32 1
    50   32   34 1
@<TRIPOS>SUBSTRUCTURE
     1 RES1 1

@<TRIPOS>CRYSIN
  16.4100    9.3760   20.2920  90.0000  90.0000  90.0000  61 1

