# MOL2 file generated by ConQuest
# Please check atom types

@<TRIPOS>MOLECULE
JAFTOC
    94   102     2
SMALL
NO_CHARGES
****
Generated from CSD

@<TRIPOS>ATOM
      1 O1         7.4772    2.3777   14.9918 O.3       1 RES1    0.0000
      2 O2         8.9295    3.1831   13.4778 O.3       1 RES1    0.0000
      3 O3         6.4873    3.3935   10.8657 O.3       1 RES1    0.0000
      4 O4         7.1613    5.1763    9.6888 O.2       1 RES1    0.0000
      5 O5         2.7323    4.4039    7.8714 O.2       1 RES1    0.0000
      6 O6         4.0211    4.8931    9.5928 O.3       1 RES1    0.0000
      7 O7         5.7418    3.2062   13.7053 O.3       1 RES1    0.0000
      8 O8         4.1740    6.9832   11.6764 O.3       1 RES1    0.0000
      9 N1         5.3501    6.4092   12.2463 N.2       1 RES1    0.0000
     10 C1         9.5691    1.2142   14.7337 C.3       1 RES1    0.0000
     11 H1         9.5203    0.8109   15.6056 H         1 RES1    0.0000
     12 H2        10.4885    1.3431   14.4937 H         1 RES1    0.0000
     13 H3         9.1464    0.6390   14.0931 H         1 RES1    0.0000
     14 C2         9.4433    3.4586   15.7792 C.3       1 RES1    0.0000
     15 H4         8.9221    4.2640   15.8135 H         1 RES1    0.0000
     16 H5        10.3487    3.6734   15.5435 H         1 RES1    0.0000
     17 H6         9.4287    3.0322   16.6405 H         1 RES1    0.0000
     18 C3         8.8676    2.5374   14.7572 C.3       1 RES1    0.0000
     19 C4         7.8284    2.6939   12.7155 C.3       1 RES1    0.0000
     20 H7         8.0686    1.9689   12.1006 H         1 RES1    0.0000
     21 C5         6.8076    2.2840   13.7717 C.3       1 RES1    0.0000
     22 H8         6.4900    1.3695   13.6153 H         1 RES1    0.0000
     23 C6         7.2020    3.8849   12.0277 C.3       1 RES1    0.0000
     24 H9         7.8719    4.5570   11.7856 H         1 RES1    0.0000
     25 C7         6.2501    4.3984   13.0818 C.3       1 RES1    0.0000
     26 H10        6.7530    4.9173   13.7439 H         1 RES1    0.0000
     27 C8         5.1297    5.2137   12.5784 C.2       1 RES1    0.0000
     28 C9         3.7277    4.7675   12.3470 C.3       1 RES1    0.0000
     29 H11        3.2495    4.6463   13.1825 H         1 RES1    0.0000
     30 H12        3.6944    3.9455   11.8349 H         1 RES1    0.0000
     31 C10        3.1758    5.9530   11.5478 C.3       1 RES1    0.0000
     32 H13        2.3473    6.2626   11.9720 H         1 RES1    0.0000
     33 C11        2.9051    5.6688   10.1252 C.3       1 RES1    0.0000
     34 H14        2.0806    5.1663   10.0374 H         1 RES1    0.0000
     35 H15        2.8119    6.4984    9.6325 H         1 RES1    0.0000
     36 C12        3.7705    4.2937    8.4370 C.2       1 RES1    0.0000
     37 C13        4.8992    3.4850    7.9335 C.ar      1 RES1    0.0000
     38 C14        4.6855    2.7865    6.7423 C.ar      1 RES1    0.0000
     39 H16        3.8574    2.8504    6.3245 H         1 RES1    0.0000
     40 C15        5.6494    2.0174    6.1746 C.ar      1 RES1    0.0000
     41 H17        5.4801    1.5712    5.3754 H         1 RES1    0.0000
     42 C16        6.8644    1.9006    6.7766 C.ar      1 RES1    0.0000
     43 H18        7.5257    1.3717    6.3931 H         1 RES1    0.0000
     44 C17        7.1116    2.5650    7.9528 C.ar      1 RES1    0.0000
     45 H19        7.9430    2.4791    8.3599 H         1 RES1    0.0000
     46 C18        6.1459    3.3594    8.5441 C.ar      1 RES1    0.0000
     47 C19        6.6104    4.1240    9.7439 C.2       1 RES1    0.0000
     48 O9         5.8351    6.0632   18.9657 O.3       2 RES2    0.0000
     49 O10        7.3054    5.6511   17.3389 O.3       2 RES2    0.0000
     50 O11        9.0552    6.3155   18.6998 O.3       2 RES2    0.0000
     51 O12        8.2665    6.2781   21.5730 O.3       2 RES2    0.0000
     52 O13        7.4846    7.9627   22.8118 O.2       2 RES2    0.0000
     53 O14       12.0043    6.7111   24.5247 O.2       2 RES2    0.0000
     54 O15       10.7166    7.5473   22.9393 O.3       2 RES2    0.0000
     55 O16       10.6589    9.8347   21.0625 O.3       2 RES2    0.0000
     56 N2         9.4541    9.3477   20.5054 N.2       2 RES2    0.0000
     57 C20        5.1731    6.5171   16.7304 C.3       2 RES2    0.0000
     58 H20        4.2356    6.4918   16.9361 H         2 RES2    0.0000
     59 H21        5.3062    6.2538   15.8156 H         2 RES2    0.0000
     60 H22        5.5044    7.4096   16.8568 H         2 RES2    0.0000
     61 C21        5.4339    4.1659   17.5189 C.3       2 RES2    0.0000
     62 H23        5.9283    3.6150   18.1295 H         2 RES2    0.0000
     63 H24        5.5714    3.8530   16.6212 H         2 RES2    0.0000
     64 H25        4.4994    4.1229   17.7331 H         2 RES2    0.0000
     65 C22        5.9064    5.5817   17.6303 C.3       2 RES2    0.0000
     66 C23        8.0219    5.3966   18.5280 C.3       2 RES2    0.0000
     67 H26        8.3579    4.4766   18.5472 H         2 RES2    0.0000
     68 C24        7.0017    5.6423   19.6485 C.3       2 RES2    0.0000
     69 H27        6.8515    4.8523   20.2076 H         2 RES2    0.0000
     70 C25        8.5258    7.4394   19.4299 C.3       2 RES2    0.0000
     71 H28        8.0315    8.0255   18.8193 H         2 RES2    0.0000
     72 C26        7.5633    6.8091   20.4219 C.3       2 RES2    0.0000
     73 H29        6.8589    7.4372   20.6897 H         2 RES2    0.0000
     74 C27        9.6736    8.1919   20.0255 C.2       2 RES2    0.0000
     75 C28       11.0726    7.7214   20.1455 C.3       2 RES2    0.0000
     76 H30       11.5241    7.7247   19.2864 H         2 RES2    0.0000
     77 H31       11.1187    6.8323   20.5290 H         2 RES2    0.0000
     78 C29       11.6451    8.7549   21.0732 C.3       2 RES2    0.0000
     79 H32       12.4882    9.0876   20.7004 H         2 RES2    0.0000
     80 C30       11.8790    8.2932   22.4615 C.3       2 RES2    0.0000
     81 H33       12.6650    7.7258   22.4872 H         2 RES2    0.0000
     82 H34       12.0376    9.0568   23.0378 H         2 RES2    0.0000
     83 C31       10.9299    6.7904   24.0041 C.2       2 RES2    0.0000
     84 C32        9.7377    6.0952   24.5033 C.ar      2 RES2    0.0000
     85 C33        9.8924    5.3746   25.7009 C.ar      2 RES2    0.0000
     86 H35       10.7341    5.3118   26.0908 H         2 RES2    0.0000
     87 C34        8.8273    4.7653   26.3008 C.ar      2 RES2    0.0000
     88 H36        8.9492    4.3202   27.1085 H         2 RES2    0.0000
     89 C35        7.5962    4.8005   25.7395 C.ar      2 RES2    0.0000
     90 H37        6.8803    4.3741   26.1508 H         2 RES2    0.0000
     91 C36        7.4126    5.4737   24.5525 C.ar      2 RES2    0.0000
     92 H38        6.5694    5.4881   24.1605 H         2 RES2    0.0000
     93 C37        8.4711    6.1337   23.9269 C.ar      2 RES2    0.0000
     94 C38        8.0661    6.9347   22.7357 C.2       2 RES2    0.0000
@<TRIPOS>BOND
     1    1   18 1
     2    2   18 1
     3    3   23 1
     4    4   47 2
     5    5   36 2
     6    6   33 1
     7    7   21 1
     8    8    9 1
     9    9   27 2
    10   10   11 1
    11   12   10 1
    12   13   10 1
    13   14   15 1
    14   16   14 1
    15   17   14 1
    16   18   10 1
    17   19    2 1
    18   20   19 1
    19   21    1 1
    20   22   21 1
    21   23   19 1
    22   24   23 1
    23   25    7 1
    24   26   25 1
    25   27   25 1
    26   28   27 1
    27   29   28 1
    28   30   28 1
    29   31    8 1
    30   32   31 1
    31   33   31 1
    32   34   33 1
    33   35   33 1
    34   36    6 1
    35   37   36 1
    36   38   37 ar
    37   39   38 1
    38   40   38 ar
    39   41   40 1
    40   42   40 ar
    41   43   42 1
    42   44   42 ar
    43   45   44 1
    44   46   37 ar
    45   47    3 1
    46   48   65 1
    47   49   65 1
    48   50   66 1
    49   51   72 1
    50   52   94 2
    51   53   83 2
    52   54   80 1
    53   55   56 1
    54   56   74 2
    55   57   58 1
    56   59   57 1
    57   60   57 1
    58   61   62 1
    59   63   61 1
    60   64   61 1
    61   65   57 1
    62   66   49 1
    63   67   66 1
    64   68   48 1
    65   69   68 1
    66   70   50 1
    67   71   70 1
    68   72   68 1
    69   73   72 1
    70   74   70 1
    71   75   74 1
    72   76   75 1
    73   77   75 1
    74   78   55 1
    75   79   78 1
    76   80   78 1
    77   81   80 1
    78   82   80 1
    79   83   54 1
    80   84   83 1
    81   85   84 ar
    82   86   85 1
    83   87   85 ar
    84   88   87 1
    85   89   87 ar
    86   90   89 1
    87   91   89 ar
    88   92   91 1
    89   93   84 ar
    90   94   51 1
    91   14   18 1
    92   19   21 1
    93   23   25 1
    94   28   31 1
    95   44   46 ar
    96   46   47 1
    97   61   65 1
    98   66   68 1
    99   70   72 1
   100   75   78 1
   101   91   93 ar
   102   93   94 1
@<TRIPOS>SUBSTRUCTURE
     1 RES1 1
     2 RES2 48

@<TRIPOS>CRYSIN
   7.7477   11.0180   21.4270  90.0000  90.8650  90.0000   4 1

