# MOL2 file generated by ConQuest
# Please check atom types

@<TRIPOS>MOLECULE
JAGMOW
   201   190     3
SMALL
NO_CHARGES
****
Generated from CSD

@<TRIPOS>ATOM
      1 N1         3.2791    0.0826    1.6289 N.pl3     1 RES1    0.0000
      2 H1         2.9735   -0.0632    0.8160 H         1 RES1    0.0000
      3 N2         1.0717   -1.5268    0.5303 N.2       1 RES1    0.0000
      4 N3         2.2188   -1.2451   -2.1472 N.pl3     1 RES1    0.0000
      5 H2         2.3225   -0.8007   -1.3936 H         1 RES1    0.0000
      6 N4         4.3754    0.4132   -1.0426 N.2       1 RES1    0.0000
      7 N5         5.9806    2.3663   -3.7681 N.pl3     1 RES1    0.0000
      8 O1         5.0914    2.7794   -4.4944 O.2       1 RES1    0.0000
      9 O2         7.1741    2.5747   -3.9341 O.2       1 RES1    0.0000
     10 C1         4.4271    0.7982    1.9291 C.2       1 RES1    0.0000
     11 C2         4.5549    0.7625    3.3418 C.2       1 RES1    0.0000
     12 H3         5.2541    1.1614    3.8467 H         1 RES1    0.0000
     13 C3         3.5150    0.0639    3.8481 C.2       1 RES1    0.0000
     14 H4         3.3603   -0.1111    4.7695 H         1 RES1    0.0000
     15 C4         2.6909   -0.3625    2.7755 C.2       1 RES1    0.0000
     16 C5         1.4806   -1.0798    2.8876 C.2       1 RES1    0.0000
     17 C6         0.6779   -1.5475    1.8490 C.2       1 RES1    0.0000
     18 C7        -0.6354   -2.1785    1.9891 C.2       1 RES1    0.0000
     19 C8        -1.0155   -2.5653    0.7504 C.2       1 RES1    0.0000
     20 C9         0.1019   -2.2198   -0.1461 C.2       1 RES1    0.0000
     21 C10        0.2257   -2.5935   -1.4968 C.2       1 RES1    0.0000
     22 C11        1.2498   -2.1785   -2.3613 C.2       1 RES1    0.0000
     23 C12        1.4806   -2.6630   -3.7040 C.2       1 RES1    0.0000
     24 H5         0.9764   -3.3384   -4.1414 H         1 RES1    0.0000
     25 C13        2.5296   -1.9982   -4.2323 C.2       1 RES1    0.0000
     26 H6         2.8825   -2.1224   -5.1057 H         1 RES1    0.0000
     27 C14        3.0170   -1.0836   -3.2658 C.2       1 RES1    0.0000
     28 C15        4.0729   -0.2178   -3.4179 C.2       1 RES1    0.0000
     29 C16        4.6225    0.5803   -2.3753 C.2       1 RES1    0.0000
     30 C17        5.6014    1.6245   -2.5174 C.2       1 RES1    0.0000
     31 C18        5.9775    2.0395   -1.3147 C.2       1 RES1    0.0000
     32 H7         6.6242    2.7061   -1.1125 H         1 RES1    0.0000
     33 C19        5.2118    1.2752   -0.3842 C.2       1 RES1    0.0000
     34 C20        5.2801    1.4235    1.0186 C.2       1 RES1    0.0000
     35 C21        1.2335   -1.4085    4.3664 C.ar      1 RES1    0.0000
     36 C22        0.5649   -0.5390    5.2208 C.ar      1 RES1    0.0000
     37 H8         0.2759    0.3090    4.9026 H         1 RES1    0.0000
     38 C23        0.3207   -0.9071    6.5376 C.ar      1 RES1    0.0000
     39 H9        -0.1352   -0.3125    7.1208 H         1 RES1    0.0000
     40 C24        0.7449   -2.1466    7.0018 C.ar      1 RES1    0.0000
     41 H10        0.5779   -2.3996    7.9024 H         1 RES1    0.0000
     42 C25        1.4133   -3.0179    6.1493 C.ar      1 RES1    0.0000
     43 H11        1.7022   -3.8653    6.4659 H         1 RES1    0.0000
     44 C26        1.6562   -2.6480    4.8306 C.ar      1 RES1    0.0000
     45 H12        2.1133   -3.2438    4.2478 H         1 RES1    0.0000
     46 C27       -1.4830   -2.3475    3.2438 C.3       1 RES1    0.0000
     47 H13       -2.3414   -2.7553    3.0048 H         1 RES1    0.0000
     48 H14       -1.6401   -1.4705    3.6519 H         1 RES1    0.0000
     49 H15       -1.0126   -2.9249    3.8803 H         1 RES1    0.0000
     50 C28       -2.3450   -3.1550    0.3922 C.3       1 RES1    0.0000
     51 H16       -2.9912   -2.9595    1.1017 H         1 RES1    0.0000
     52 H17       -2.2554   -4.1254    0.2891 H         1 RES1    0.0000
     53 H18       -2.6582   -2.7651   -0.4514 H         1 RES1    0.0000
     54 C29       -0.6918   -3.6302   -2.0491 C.ar      1 RES1    0.0000
     55 C30       -0.6693   -4.9391   -1.5408 C.ar      1 RES1    0.0000
     56 H19       -0.0656   -5.1612   -0.8422 H         1 RES1    0.0000
     57 C31       -1.5108   -5.9007   -2.0431 C.ar      1 RES1    0.0000
     58 H20       -1.4993   -6.7767   -1.6756 H         1 RES1    0.0000
     59 C32       -2.3659   -5.6040   -3.0737 C.ar      1 RES1    0.0000
     60 H21       -2.9402   -6.2741   -3.4265 H         1 RES1    0.0000
     61 C33       -2.3870   -4.3213   -3.5980 C.ar      1 RES1    0.0000
     62 H22       -2.9729   -4.1116   -4.3167 H         1 RES1    0.0000
     63 C34       -1.5640   -3.3597   -3.0817 C.ar      1 RES1    0.0000
     64 H23       -1.5955   -2.4811   -3.4418 H         1 RES1    0.0000
     65 C35        4.7292   -0.1653   -4.7666 C.ar      1 RES1    0.0000
     66 C36        4.0676    0.2460   -5.8912 C.ar      1 RES1    0.0000
     67 H24        3.1428    0.4589   -5.8385 H         1 RES1    0.0000
     68 C37        4.7263    0.3568   -7.1039 C.ar      1 RES1    0.0000
     69 H25        4.2595    0.6580   -7.8748 H         1 RES1    0.0000
     70 C38        6.0752    0.0263   -7.1919 C.ar      1 RES1    0.0000
     71 H26        6.5352    0.1037   -8.0192 H         1 RES1    0.0000
     72 C39        6.7308   -0.4094   -6.0813 C.ar      1 RES1    0.0000
     73 H27        7.6495   -0.6463   -6.1420 H         1 RES1    0.0000
     74 C40        6.0843   -0.5127   -4.8767 C.ar      1 RES1    0.0000
     75 H28        6.5558   -0.8201   -4.1112 H         1 RES1    0.0000
     76 C41        6.3007    2.3644    1.5909 C.ar      1 RES1    0.0000
     77 C42        7.6480    2.1672    1.3747 C.ar      1 RES1    0.0000
     78 H29        7.9423    1.4242    0.8610 H         1 RES1    0.0000
     79 C43        8.5732    3.0536    1.9050 C.ar      1 RES1    0.0000
     80 H30        9.5016    2.9127    1.7558 H         1 RES1    0.0000
     81 C44        8.1543    4.1429    2.6474 C.ar      1 RES1    0.0000
     82 H31        8.7884    4.7534    3.0024 H         1 RES1    0.0000
     83 C45        6.8255    4.3307    2.8656 C.ar      1 RES1    0.0000
     84 H32        6.5342    5.0668    3.3915 H         1 RES1    0.0000
     85 C46        5.8837    3.4518    2.3273 C.ar      1 RES1    0.0000
     86 H33        4.9559    3.6034    2.4673 H         1 RES1    0.0000
     87 N6        15.5060   -0.4150    9.9374 N.2       2 RES2    0.0000
     88 N7        13.7872    1.7296    8.9149 N.2       2 RES2    0.0000
     89 H34       13.6595    0.9984    9.3886 H         2 RES2    0.0000
     90 C47       16.1169   -1.5700   10.3516 C.2       2 RES2    0.0000
     91 C48       17.6759   -0.4526    9.2030 C.2       2 RES2    0.0000
     92 C49       16.4601    0.2798    9.2310 C.2       2 RES2    0.0000
     93 C50       16.2467    1.5606    8.6567 C.2       2 RES2    0.0000
     94 C51       15.0043    2.1635    8.4666 C.2       2 RES2    0.0000
     95 C52       14.7677    3.3879    7.7482 C.2       2 RES2    0.0000
     96 H35       15.4286    3.9370    7.3426 H         2 RES2    0.0000
     97 C53       13.4458    3.6170    7.7582 C.2       2 RES2    0.0000
     98 H36       13.0088    4.3411    7.3252 H         2 RES2    0.0000
     99 C54       12.7963    2.5916    8.5266 C.2       2 RES2    0.0000
    100 C55       11.4501    2.5541    8.8608 C.2       2 RES2    0.0000
    101 C56       17.4601    2.3550    8.2665 C.2       2 RES2    0.0000
    102 C57       17.8138    2.5560    6.9298 C.2       2 RES2    0.0000
    103 H37       17.2571    2.2354    6.2304 H         2 RES2    0.0000
    104 C58       18.9923    3.2358    6.6416 C.2       2 RES2    0.0000
    105 H38       19.2708    3.3521    5.7400 H         2 RES2    0.0000
    106 C59       19.7524    3.7372    7.6742 C.2       2 RES2    0.0000
    107 H39       20.5628    4.1932    7.4791 H         2 RES2    0.0000
    108 C60       19.3651    3.5926    8.9529 C.2       2 RES2    0.0000
    109 H40       19.8816    3.9861    9.6465 H         2 RES2    0.0000
    110 C61       18.2197    2.8752    9.2730 C.2       2 RES2    0.0000
    111 H41       17.9688    2.7497   10.1807 H         2 RES2    0.0000
    112 C62       10.5471    3.7166    8.4526 C.2       2 RES2    0.0000
    113 C63        9.7837    3.6377    7.2940 C.2       2 RES2    0.0000
    114 H42        9.7829    2.8395    6.7799 H         2 RES2    0.0000
    115 C64        9.0211    4.7269    6.8898 C.2       2 RES2    0.0000
    116 H43        8.4993    4.6734    6.0977 H         2 RES2    0.0000
    117 C65        9.0221    5.8950    7.6422 C.2       2 RES2    0.0000
    118 H44        8.5016    6.6398    7.3661 H         2 RES2    0.0000
    119 C66        9.7869    5.9739    8.8008 C.2       2 RES2    0.0000
    120 H45        9.7873    6.7724    9.3167 H         2 RES2    0.0000
    121 C67       10.5493    4.8847    9.2070 C.2       2 RES2    0.0000
    122 H46       11.0708    4.9386    9.9989 H         2 RES2    0.0000
    123 C68       17.4661   -1.6038    9.8874 C.2       2 RES2    0.0000
    124 C69       18.5326   -2.6968    9.8914 C.3       2 RES2    0.0000
    125 H47       18.3122   -3.3702    9.2133 H         2 RES2    0.0000
    126 H48       18.5626   -3.1212   10.7742 H         2 RES2    0.0000
    127 H49       19.4061   -2.3029    9.6880 H         2 RES2    0.0000
    128 N8        18.8767   -0.1108    8.5006 N.2       2 RES2    0.0000
    129 O3        18.7449   -0.2986    7.2800 O.2       2 RES2    0.0000
    130 O4        19.8527   -0.3174    9.2030 O.2       2 RES2    0.0000
    131 C70        0.9385   -1.3390    4.2603 Du        3 SUP3    0.0000
    132 C71        0.2322   -0.3418    4.9247 Du        3 SUP3    0.0000
    133 H50       -0.0270    0.4457    4.4600 Du        3 SUP3    0.0000
    134 C72       -0.0919   -0.4958    6.2674 Du        3 SUP3    0.0000
    135 H51       -0.5742    0.1863    6.7203 Du        3 SUP3    0.0000
    136 C73        0.2875   -1.6470    6.9458 Du        3 SUP3    0.0000
    137 H52        0.0657   -1.7522    7.8640 Du        3 SUP3    0.0000
    138 C74        0.9936   -2.6442    6.2834 Du        3 SUP3    0.0000
    139 H53        1.2529   -3.4314    6.7476 Du        3 SUP3    0.0000
    140 C75        1.3177   -2.4902    4.9407 Du        3 SUP3    0.0000
    141 H54        1.8002   -3.1721    4.4873 Du        3 SUP3    0.0000
    142 C76       10.6694    3.6339    8.2065 Du        3 SUP3    0.0000
    143 C77        9.8422    3.3184    7.1359 Du        3 SUP3    0.0000
    144 H55        9.8530    2.4427    6.7690 Du        3 SUP3    0.0000
    145 C78        8.9978    4.2856    6.6016 Du        3 SUP3    0.0000
    146 H56        8.4314    4.0697    5.8705 Du        3 SUP3    0.0000
    147 C79        8.9803    5.5664    7.1399 Du        3 SUP3    0.0000
    148 H57        8.4036    6.2277    6.7749 Du        3 SUP3    0.0000
    149 C80        9.8089    5.8819    8.2105 Du        3 SUP3    0.0000
    150 H58        9.7973    6.7587    8.5780 Du        3 SUP3    0.0000
    151 C81       10.6534    4.9166    8.7448 Du        3 SUP3    0.0000
    152 H59       11.2190    5.1317    9.4766 Du        3 SUP3    0.0000
    153 H60       18.0971   -2.2989   10.0314 Du        3 SUP3    0.0000
    154 C82       18.8894   -0.4132    8.3566 Du        3 SUP3    0.0000
    155 H61       19.4349    0.3537    8.6069 Du        3 SUP3    0.0000
    156 H62       18.6191   -0.3363    7.4155 Du        3 SUP3    0.0000
    157 H63       19.3963   -1.2414    8.4822 Du        3 SUP3    0.0000
    158 N6B       11.4419    0.4150   10.0735 N.2       2 RES2    0.0000
    159 N7B       13.1607   -1.7296   11.0960 N.2       2 RES2    0.0000
    160 H34B      13.2884   -0.9984   10.6223 H         2 RES2    0.0000
    161 C47B      10.8309    1.5700    9.6593 C.2       2 RES2    0.0000
    162 C48B       9.2719    0.4526   10.8079 C.2       2 RES2    0.0000
    163 C49B      10.4877   -0.2798   10.7799 C.2       2 RES2    0.0000
    164 C50B      10.7011   -1.5606   11.3542 C.2       2 RES2    0.0000
    165 C51B      11.9436   -2.1635   11.5443 C.2       2 RES2    0.0000
    166 C52B      12.1802   -3.3879   12.2627 C.2       2 RES2    0.0000
    167 H35B      11.5193   -3.9370   12.6683 H         2 RES2    0.0000
    168 C53B      13.5021   -3.6170   12.2527 C.2       2 RES2    0.0000
    169 H36B      13.9391   -4.3411   12.6857 H         2 RES2    0.0000
    170 C54B      14.1516   -2.5916   11.4843 C.2       2 RES2    0.0000
    171 C55B      15.4978   -2.5541   11.1501 C.2       2 RES2    0.0000
    172 C56B       9.4878   -2.3550   11.7444 C.2       2 RES2    0.0000
    173 C57B       9.1341   -2.5560   13.0811 C.2       2 RES2    0.0000
    174 H37B       9.6907   -2.2354   13.7805 H         2 RES2    0.0000
    175 C58B       7.9556   -3.2358   13.3693 C.2       2 RES2    0.0000
    176 H38B       7.6770   -3.3521   14.2709 H         2 RES2    0.0000
    177 C59B       7.1954   -3.7372   12.3367 C.2       2 RES2    0.0000
    178 H39B       6.3851   -4.1932   12.5318 H         2 RES2    0.0000
    179 C60B       7.5828   -3.5926   11.0580 C.2       2 RES2    0.0000
    180 H40B       7.0663   -3.9861   10.3644 H         2 RES2    0.0000
    181 C61B       8.7282   -2.8752   10.7378 C.2       2 RES2    0.0000
    182 H41B       8.9791   -2.7497    9.8302 H         2 RES2    0.0000
    183 C62B      16.4008   -3.7166   11.5583 C.2       2 RES2    0.0000
    184 C63B      17.1641   -3.6377   12.7169 C.2       2 RES2    0.0000
    185 H42B      17.1650   -2.8395   13.2310 H         2 RES2    0.0000
    186 C64B      17.9267   -4.7269   13.1211 C.2       2 RES2    0.0000
    187 H43B      18.4485   -4.6734   13.9132 H         2 RES2    0.0000
    188 C65B      17.9258   -5.8950   12.3687 C.2       2 RES2    0.0000
    189 H44B      18.4463   -6.6398   12.6448 H         2 RES2    0.0000
    190 C66B      17.1610   -5.9739   11.2101 C.2       2 RES2    0.0000
    191 H45B      17.1606   -6.7724   10.6942 H         2 RES2    0.0000
    192 C67B      16.3986   -4.8847   10.8039 C.2       2 RES2    0.0000
    193 H46B      15.8770   -4.9386   10.0120 H         2 RES2    0.0000
    194 C68B       9.4818    1.6038   10.1235 C.2       2 RES2    0.0000
    195 C69B       8.4153    2.6968   10.1195 C.3       2 RES2    0.0000
    196 H47B       8.6357    3.3702   10.7976 H         2 RES2    0.0000
    197 H48B       8.3853    3.1212    9.2367 H         2 RES2    0.0000
    198 H49B       7.5418    2.3029   10.3229 H         2 RES2    0.0000
    199 N8B        8.0712    0.1108   11.5103 N.2       2 RES2    0.0000
    200 O3B        8.2030    0.2986   12.7309 O.2       2 RES2    0.0000
    201 O4B        7.0951    0.3174   10.8079 O.2       2 RES2    0.0000
@<TRIPOS>BOND
     1    1    2 1
     2    3   17 1
     3    4    5 1
     4    6   29 2
     5    7    8 2
     6    9    7 2
     7   10    1 1
     8   11   10 2
     9   12   11 1
    10   13   11 1
    11   14   13 1
    12   15    1 1
    13   16   15 1
    14   17   16 2
    15   18   17 1
    16   19   18 2
    17   20    3 2
    18   21   20 1
    19   22    4 1
    20   23   22 1
    21   24   23 1
    22   25   23 2
    23   26   25 1
    24   27    4 1
    25   28   27 2
    26   29   28 1
    27   30    7 1
    28   31   30 2
    29   32   31 1
    30   33    6 1
    31   34   10 1
    32   35   16 1
    33   36   35 ar
    34   37   36 1
    35   38   36 ar
    36   39   38 1
    37   40   38 ar
    38   41   40 1
    39   42   40 ar
    40   43   42 1
    41   44   35 ar
    42   45   44 1
    43   46   18 1
    44   47   46 1
    45   48   46 1
    46   49   46 1
    47   50   19 1
    48   51   50 1
    49   52   50 1
    50   53   50 1
    51   54   21 1
    52   55   54 ar
    53   56   55 1
    54   57   55 ar
    55   58   57 1
    56   59   57 ar
    57   60   59 1
    58   61   59 ar
    59   62   61 1
    60   63   54 ar
    61   64   63 1
    62   65   28 1
    63   66   65 ar
    64   67   66 1
    65   68   66 ar
    66   69   68 1
    67   70   68 ar
    68   71   70 1
    69   72   70 ar
    70   73   72 1
    71   74   65 ar
    72   75   74 1
    73   76   34 1
    74   77   76 ar
    75   78   77 1
    76   79   77 ar
    77   80   79 1
    78   81   79 ar
    79   82   81 1
    80   83   81 ar
    81   84   83 1
    82   85   76 ar
    83   86   85 1
    84   87   90 1
    85   88   89 1
    86   90  123 1
    87   91   92 1
    88   92   87 1
    89   93   92 1
    90   94   88 1
    91   95   94 1
    92   96   95 1
    93   97   95 1
    94   98   97 1
    95   99   88 1
    96  100   99 1
    97  101   93 1
    98  102  101 1
    99  103  102 1
   100  104  102 1
   101  105  104 1
   102  106  104 1
   103  107  106 1
   104  108  106 1
   105  109  108 1
   106  110  101 1
   107  111  110 1
   108  112  100 1
   109  113  112 1
   110  114  113 1
   111  115  113 1
   112  116  115 1
   113  117  115 1
   114  118  117 1
   115  119  117 1
   116  120  119 1
   117  121  112 1
   118  122  121 1
   119  123   91 1
   120  124  123 1
   121  125  124 1
   122  126  124 1
   123  127  124 1
   124  128   91 1
   125  129  128 1
   126  130  128 1
   127  158  161 1
   128  159  160 1
   129  161  100 1
   130  162  163 1
   131  163  158 1
   132  164  163 1
   133  165  159 1
   134  166  165 1
   135  167  166 1
   136  168  166 1
   137  169  168 1
   138  170  159 1
   139  171   90 1
   140  172  164 1
   141  173  172 1
   142  174  173 1
   143  175  173 1
   144  176  175 1
   145  177  175 1
   146  178  177 1
   147  179  177 1
   148  180  179 1
   149  181  172 1
   150  182  181 1
   151  183  171 1
   152  184  183 1
   153  185  184 1
   154  186  184 1
   155  187  186 1
   156  188  186 1
   157  189  188 1
   158  190  188 1
   159  191  190 1
   160  192  183 1
   161  193  192 1
   162  194  161 1
   163  195  194 1
   164  196  195 1
   165  197  195 1
   166  198  195 1
   167  199  162 1
   168  200  199 1
   169  201  199 1
   170   13   15 2
   171   19   20 1
   172   21   22 2
   173   25   27 1
   174   29   30 1
   175   31   33 1
   176   33   34 2
   177   42   44 ar
   178   61   63 ar
   179   72   74 ar
   180   83   85 ar
   181   93   94 1
   182   97   99 1
   183  108  110 1
   184  119  121 1
   185  162  194 1
   186  164  165 1
   187  168  170 1
   188  170  171 1
   189  179  181 1
   190  190  192 1
@<TRIPOS>SUBSTRUCTURE
     1 RES1 1
     2 RES2 87
     3 SUP3 131

@<TRIPOS>CRYSIN
  14.3588   18.7800   20.0890  90.0000  95.0540  90.0000  14 1

