# MOL2 file generated by ConQuest
# Please check atom types

@<TRIPOS>MOLECULE
JAGNOX01
    52    54     1
SMALL
NO_CHARGES
****
Generated from CSD

@<TRIPOS>ATOM
      1 N1         6.0153    8.5852    0.3249 N.pl3     1 RES1    0.0000
      2 N2         7.4827    7.7014    2.6802 N.3       1 RES1    0.0000
      3 H1         7.7236    8.4125    2.2594 H         1 RES1    0.0000
      4 N3        15.1641   11.1394    2.9537 N.pl3     1 RES1    0.0000
      5 O1         7.0363    9.2334    0.6107 O.2       1 RES1    0.0000
      6 O2         5.3494    8.8739   -0.6698 O.2       1 RES1    0.0000
      7 O3         2.9202    4.9497    1.1007 O.3       1 RES1    0.0000
      8 O4        10.8187    6.5264    2.4633 O.3       1 RES1    0.0000
      9 H2        10.3620    6.1656    1.8852 H         1 RES1    0.0000
     10 O5        16.2443   10.5719    2.9939 O.2       1 RES1    0.0000
     11 O6        15.0362   12.3508    2.9110 O.2       1 RES1    0.0000
     12 C1         5.6278    7.4579    1.1066 C.ar      1 RES1    0.0000
     13 C2         4.4621    6.7855    0.6943 C.ar      1 RES1    0.0000
     14 H3         3.9843    7.0906   -0.0420 H         1 RES1    0.0000
     15 C3         4.0313    5.6823    1.3815 C.ar      1 RES1    0.0000
     16 C4         4.7606    5.2515    2.4913 C.ar      1 RES1    0.0000
     17 H4         4.4730    4.5047    2.9624 H         1 RES1    0.0000
     18 C5         5.8900    5.9043    2.8967 C.ar      1 RES1    0.0000
     19 H5         6.3547    5.5828    3.6339 H         1 RES1    0.0000
     20 C6         6.3752    7.0556    2.2314 C.ar      1 RES1    0.0000
     21 C7         2.1376    5.3444   -0.0063 C.3       1 RES1    0.0000
     22 H6         1.8139    6.2366    0.1329 H         1 RES1    0.0000
     23 H7         1.3941    4.7453   -0.1014 H         1 RES1    0.0000
     24 H8         2.6733    5.3193   -0.8009 H         1 RES1    0.0000
     25 C8         8.2933    7.2841    3.8162 C.3       1 RES1    0.0000
     26 H9         8.5295    6.3405    3.6934 H         1 RES1    0.0000
     27 C9         9.5784    8.1041    3.8060 C.3       1 RES1    0.0000
     28 H10       10.0941    7.8822    4.5958 H         1 RES1    0.0000
     29 H11        9.3473    9.0444    3.8613 H         1 RES1    0.0000
     30 C10       10.4549    7.8855    2.5707 C.3       1 RES1    0.0000
     31 H12        9.9541    8.1479    1.7698 H         1 RES1    0.0000
     32 C11       11.7057    8.7383    2.6774 C.ar      1 RES1    0.0000
     33 C12       12.9325    8.1763    2.9691 C.ar      1 RES1    0.0000
     34 H13       12.9992    7.2568    3.0918 H         1 RES1    0.0000
     35 C13       14.0609    8.9602    3.0796 C.ar      1 RES1    0.0000
     36 H14       14.8842    8.5754    3.2772 H         1 RES1    0.0000
     37 C14       13.9537   10.3117    2.8960 C.ar      1 RES1    0.0000
     38 C15       12.7466   10.9207    2.6291 C.ar      1 RES1    0.0000
     39 H15       12.6854   11.8435    2.5322 H         1 RES1    0.0000
     40 C16       11.6281   10.1127    2.5126 C.ar      1 RES1    0.0000
     41 H16       10.8059   10.5008    2.3189 H         1 RES1    0.0000
     42 C17        7.5913    7.4306    5.1582 C.ar      1 RES1    0.0000
     43 C18        6.5526    8.3206    5.3470 C.ar      1 RES1    0.0000
     44 H17        6.2541    8.8389    4.6342 H         1 RES1    0.0000
     45 C19        5.9524    8.4475    6.5894 C.ar      1 RES1    0.0000
     46 H18        5.2406    9.0357    6.7013 H         1 RES1    0.0000
     47 C20        6.4039    7.7061    7.6540 C.ar      1 RES1    0.0000
     48 H19        6.0048    7.7980    8.4885 H         1 RES1    0.0000
     49 C21        7.4426    6.8347    7.4812 C.ar      1 RES1    0.0000
     50 H20        7.7532    6.3372    8.2017 H         1 RES1    0.0000
     51 C22        8.0331    6.6871    6.2393 C.ar      1 RES1    0.0000
     52 H21        8.7328    6.0847    6.1312 H         1 RES1    0.0000
@<TRIPOS>BOND
     1    1    5 2
     2    2    3 1
     3    4   10 2
     4    6    1 2
     5    7   15 1
     6    8    9 1
     7   11    4 2
     8   12    1 1
     9   13   12 ar
    10   14   13 1
    11   15   13 ar
    12   16   15 ar
    13   17   16 1
    14   18   16 ar
    15   19   18 1
    16   20    2 1
    17   21    7 1
    18   22   21 1
    19   23   21 1
    20   24   21 1
    21   25    2 1
    22   26   25 1
    23   27   25 1
    24   28   27 1
    25   29   27 1
    26   30    8 1
    27   31   30 1
    28   32   30 1
    29   33   32 ar
    30   34   33 1
    31   35   33 ar
    32   36   35 1
    33   37    4 1
    34   38   37 ar
    35   39   38 1
    36   40   32 ar
    37   41   40 1
    38   42   25 1
    39   43   42 ar
    40   44   43 1
    41   45   43 ar
    42   46   45 1
    43   47   45 ar
    44   48   47 1
    45   49   47 ar
    46   50   49 1
    47   51   42 ar
    48   52   51 1
    49   12   20 ar
    50   18   20 ar
    51   27   30 1
    52   35   37 ar
    53   38   40 ar
    54   49   51 ar
@<TRIPOS>SUBSTRUCTURE
     1 RES1 1

@<TRIPOS>CRYSIN
  10.9338   10.9338   34.9754  90.0000  90.0000  90.0000  92 1

