# MOL2 file generated by ConQuest
# Please check atom types

@<TRIPOS>MOLECULE
JAGNUD01
    52    54     1
SMALL
NO_CHARGES
****
Generated from CSD

@<TRIPOS>ATOM
      1 N1         7.9509    0.9337   14.1166 N.pl3     1 RES1    0.0000
      2 N2         8.7270    0.5648   11.3209 N.3       1 RES1    0.0000
      3 H1         9.3124    0.4675   11.9438 H         1 RES1    0.0000
      4 N3        16.1410   -2.7055   10.9307 N.pl3     1 RES1    0.0000
      5 O1         9.1541    1.0686   13.8702 O.2       1 RES1    0.0000
      6 O2         7.5429    0.8844   15.2726 O.2       1 RES1    0.0000
      7 O3         3.3416    0.8317   12.6662 O.3       1 RES1    0.0000
      8 O4        10.0161   -2.1992    9.0214 O.3       1 RES1    0.0000
      9 H2         9.2999   -2.5347    9.2380 H         1 RES1    0.0000
     10 O5        16.8589   -2.8491    9.9530 O.2       1 RES1    0.0000
     11 O6        16.5683   -2.6533   12.0655 O.2       1 RES1    0.0000
     12 C1         7.0095    0.8319   13.0340 C.ar      1 RES1    0.0000
     13 C2         5.6556    0.8469   13.4032 C.ar      1 RES1    0.0000
     14 H3         5.4169    0.8871   14.3003 H         1 RES1    0.0000
     15 C3         4.6913    0.8014   12.4366 C.ar      1 RES1    0.0000
     16 C4         5.0734    0.7436   11.0878 C.ar      1 RES1    0.0000
     17 H4         4.4199    0.7352   10.4249 H         1 RES1    0.0000
     18 C5         6.3927    0.6990   10.7353 C.ar      1 RES1    0.0000
     19 H5         6.6140    0.6593    9.8338 H         1 RES1    0.0000
     20 C6         7.4301    0.7113   11.6910 C.ar      1 RES1    0.0000
     21 C7         2.9360    0.5687   14.0109 C.3       1 RES1    0.0000
     22 H6         3.2825   -0.2824   14.2892 H         1 RES1    0.0000
     23 H7         1.9776    0.5568   14.0600 H         1 RES1    0.0000
     24 H8         3.2777    1.2560   14.5879 H         1 RES1    0.0000
     25 C8         9.1998    0.5613    9.9286 C.3       1 RES1    0.0000
     26 H9         8.6041   -0.0040    9.3944 H         1 RES1    0.0000
     27 C9        10.5980   -0.0601    9.9283 C.3       1 RES1    0.0000
     28 H10       11.0234    0.1292    9.0768 H         1 RES1    0.0000
     29 H11       11.1273    0.3636   10.6225 H         1 RES1    0.0000
     30 C10       10.6096   -1.5717   10.1564 C.3       1 RES1    0.0000
     31 H12       10.0851   -1.7848   10.9575 H         1 RES1    0.0000
     32 C11       12.0309   -2.0471   10.3465 C.ar      1 RES1    0.0000
     33 C12       12.8826   -2.1889    9.2633 C.ar      1 RES1    0.0000
     34 H13       12.5419   -2.1112    8.4019 H         1 RES1    0.0000
     35 C13       14.2289   -2.4432    9.4415 C.ar      1 RES1    0.0000
     36 H14       14.7986   -2.5347    8.7132 H         1 RES1    0.0000
     37 C14       14.6994   -2.5563   10.7258 C.ar      1 RES1    0.0000
     38 C15       13.8738   -2.4844   11.8281 C.ar      1 RES1    0.0000
     39 H15       14.2144   -2.5973   12.6866 H         1 RES1    0.0000
     40 C16       12.5371   -2.2416   11.6267 C.ar      1 RES1    0.0000
     41 H16       11.9626   -2.2071   12.3579 H         1 RES1    0.0000
     42 C17        9.1892    1.9658    9.3499 C.ar      1 RES1    0.0000
     43 C18        8.5800    2.2430    8.1387 C.ar      1 RES1    0.0000
     44 H17        8.1643    1.5584    7.6670 H         1 RES1    0.0000
     45 C19        8.5820    3.5257    7.6205 C.ar      1 RES1    0.0000
     46 H18        8.1662    3.6949    6.8056 H         1 RES1    0.0000
     47 C20        9.1950    4.5526    8.3025 C.ar      1 RES1    0.0000
     48 H19        9.1902    5.4171    7.9593 H         1 RES1    0.0000
     49 C21        9.8157    4.2809    9.5005 C.ar      1 RES1    0.0000
     50 H20       10.2449    4.9629    9.9666 H         1 RES1    0.0000
     51 C22        9.8041    3.0008   10.0122 C.ar      1 RES1    0.0000
     52 H21       10.2227    2.8331   10.8264 H         1 RES1    0.0000
@<TRIPOS>BOND
     1    1    5 2
     2    2    3 1
     3    4   10 2
     4    6    1 2
     5    7   15 1
     6    8    9 1
     7   11    4 2
     8   12    1 1
     9   13   12 ar
    10   14   13 1
    11   15   13 ar
    12   16   15 ar
    13   17   16 1
    14   18   16 ar
    15   19   18 1
    16   20    2 1
    17   21    7 1
    18   22   21 1
    19   23   21 1
    20   24   21 1
    21   25    2 1
    22   26   25 1
    23   27   25 1
    24   28   27 1
    25   29   27 1
    26   30    8 1
    27   31   30 1
    28   32   30 1
    29   33   32 ar
    30   34   33 1
    31   35   33 ar
    32   36   35 1
    33   37    4 1
    34   38   37 ar
    35   39   38 1
    36   40   32 ar
    37   41   40 1
    38   42   25 1
    39   43   42 ar
    40   44   43 1
    41   45   43 ar
    42   46   45 1
    43   47   45 ar
    44   48   47 1
    45   49   47 ar
    46   50   49 1
    47   51   42 ar
    48   52   51 1
    49   12   20 ar
    50   18   20 ar
    51   27   30 1
    52   35   37 ar
    53   38   40 ar
    54   49   51 ar
@<TRIPOS>SUBSTRUCTURE
     1 RES1 1

@<TRIPOS>CRYSIN
   9.6232   13.3196   15.8049  90.0000  90.0000  90.0000  19 1

