# MOL2 file generated by ConQuest
# Please check atom types

@<TRIPOS>MOLECULE
JAGPAL
    52    54     1
SMALL
NO_CHARGES
****
Generated from CSD

@<TRIPOS>ATOM
      1 N1         2.4538    4.4048    2.2889 N.pl3     1 RES1    0.0000
      2 H1         4.4540    5.5553    1.1734 H         1 RES1    0.0000
      3 N2         4.9812    5.7910    1.8088 N.3       1 RES1    0.0000
      4 N3         9.5239    4.8486   -5.4731 N.pl3     1 RES1    0.0000
      5 O1         2.6507    4.8093    1.1382 O.2       1 RES1    0.0000
      6 O2         1.4321    3.7555    2.5448 O.2       1 RES1    0.0000
      7 O3         3.8254    3.7967    6.8667 O.3       1 RES1    0.0000
      8 O4         5.0413    4.6342   -0.8456 O.3       1 RES1    0.0000
      9 H2         4.9161    3.9141   -1.2159 H         1 RES1    0.0000
     10 O5        10.6266    4.3995   -5.4479 O.2       1 RES1    0.0000
     11 O6         9.0625    5.3762   -6.4525 O.2       1 RES1    0.0000
     12 C1         3.4079    4.6638    3.3125 C.ar      1 RES1    0.0000
     13 C2         3.0926    4.1407    4.5748 C.ar      1 RES1    0.0000
     14 H3         2.2829    3.7048    4.7161 H         1 RES1    0.0000
     15 C3         3.9904    4.2805    5.5924 C.ar      1 RES1    0.0000
     16 C4         5.1818    4.9766    5.3675 C.ar      1 RES1    0.0000
     17 H4         5.7804    5.0869    6.0693 H         1 RES1    0.0000
     18 C5         5.4881    5.4959    4.1489 C.ar      1 RES1    0.0000
     19 H5         6.2838    5.9656    4.0445 H         1 RES1    0.0000
     20 C6         4.6267    5.3393    3.0314 C.ar      1 RES1    0.0000
     21 C7         2.6451    3.0318    7.1251 C.3       1 RES1    0.0000
     22 H6         1.8725    3.5922    7.0280 H         1 RES1    0.0000
     23 H7         2.6780    2.6845    8.0191 H         1 RES1    0.0000
     24 H8         2.5934    2.3032    6.5012 H         1 RES1    0.0000
     25 C8         6.3174    6.2855    1.5027 C.3       1 RES1    0.0000
     26 H9         6.9648    5.7090    1.9598 H         1 RES1    0.0000
     27 C9         6.5929    6.2079    0.0025 C.3       1 RES1    0.0000
     28 H10        7.4976    6.5187   -0.1573 H         1 RES1    0.0000
     29 H11        5.9922    6.8225   -0.4494 H         1 RES1    0.0000
     30 C10        6.4390    4.8276   -0.6421 C.3       1 RES1    0.0000
     31 H12        6.7788    4.1417   -0.0300 H         1 RES1    0.0000
     32 C11        7.2144    4.7741   -1.9454 C.ar      1 RES1    0.0000
     33 C12        8.4772    4.2062   -1.9783 C.ar      1 RES1    0.0000
     34 H13        8.8233    3.8137   -1.2084 H         1 RES1    0.0000
     35 C13        9.2282    4.2133   -3.1328 C.ar      1 RES1    0.0000
     36 H14       10.0742    3.8270   -3.1482 H         1 RES1    0.0000
     37 C14        8.7094    4.7991   -4.2540 C.ar      1 RES1    0.0000
     38 C15        7.4494    5.3525   -4.2632 C.ar      1 RES1    0.0000
     39 H15        7.1040    5.7344   -5.0382 H         1 RES1    0.0000
     40 C16        6.7082    5.3291   -3.0993 C.ar      1 RES1    0.0000
     41 H16        5.8531    5.6945   -3.0933 H         1 RES1    0.0000
     42 C17        6.5509    7.7150    1.9681 C.ar      1 RES1    0.0000
     43 C18        5.6356    8.7139    1.7247 C.ar      1 RES1    0.0000
     44 H17        4.8280    8.5085    1.3132 H         1 RES1    0.0000
     45 C19        5.9083   10.0189    2.0879 C.ar      1 RES1    0.0000
     46 H18        5.2762   10.6798    1.9199 H         1 RES1    0.0000
     47 C20        7.0781   10.3542    2.6851 C.ar      1 RES1    0.0000
     48 H19        7.2613   11.2389    2.9036 H         1 RES1    0.0000
     49 C21        7.9808    9.3714    2.9600 C.ar      1 RES1    0.0000
     50 H20        8.7786    9.5832    3.3879 H         1 RES1    0.0000
     51 C22        7.7186    8.0590    2.6057 C.ar      1 RES1    0.0000
     52 H21        8.3430    7.3986    2.8037 H         1 RES1    0.0000
@<TRIPOS>BOND
     1    1    5 2
     2    2    3 1
     3    3   20 1
     4    4   10 2
     5    6    1 2
     6    7   15 1
     7    8    9 1
     8   11    4 2
     9   12    1 1
    10   13   12 ar
    11   14   13 1
    12   15   13 ar
    13   16   15 ar
    14   17   16 1
    15   18   16 ar
    16   19   18 1
    17   20   12 ar
    18   21    7 1
    19   22   21 1
    20   23   21 1
    21   24   21 1
    22   25    3 1
    23   26   25 1
    24   27   25 1
    25   28   27 1
    26   29   27 1
    27   30    8 1
    28   31   30 1
    29   32   30 1
    30   33   32 ar
    31   34   33 1
    32   35   33 ar
    33   36   35 1
    34   37    4 1
    35   38   37 ar
    36   39   38 1
    37   40   32 ar
    38   41   40 1
    39   42   25 1
    40   43   42 ar
    41   44   43 1
    42   45   43 ar
    43   46   45 1
    44   47   45 ar
    45   48   47 1
    46   49   47 ar
    47   50   49 1
    48   51   42 ar
    49   52   51 1
    50   18   20 ar
    51   27   30 1
    52   35   37 ar
    53   38   40 ar
    54   49   51 ar
@<TRIPOS>SUBSTRUCTURE
     1 RES1 1

@<TRIPOS>CRYSIN
   6.9921   12.1031   24.9662  90.0000  90.0000  90.0000  19 1

