# MOL2 file generated by ConQuest
# Please check atom types

@<TRIPOS>MOLECULE
JAHGOR
    55    61     1
SMALL
NO_CHARGES
****
Generated from CSD

@<TRIPOS>ATOM
      1 C1         5.6218    9.3889    8.9563 C.2       1 RES1    0.0000
      2 C2         3.8459    8.1345    8.2034 C.3       1 RES1    0.0000
      3 H1         2.9291    8.0447    8.5005 H         1 RES1    0.0000
      4 H2         4.1246    7.2997    7.7951 H         1 RES1    0.0000
      5 C3         3.9690    9.2857    7.1964 C.3       1 RES1    0.0000
      6 H3         3.3800   10.0150    7.4821 H         1 RES1    0.0000
      7 C4         3.7336    9.0254    5.7562 C.3       1 RES1    0.0000
      8 H4         2.7836    9.0658    5.5657 H         1 RES1    0.0000
      9 H5         4.0540    8.1390    5.5248 H         1 RES1    0.0000
     10 C5         4.4771   10.0823    4.9261 C.ar      1 RES1    0.0000
     11 C6         4.1348   10.0958    3.5154 C.ar      1 RES1    0.0000
     12 H6         3.5630    9.4540    3.1571 H         1 RES1    0.0000
     13 C7         4.6536   11.0405    2.7511 C.ar      1 RES1    0.0000
     14 C8         5.1939   12.4295    1.0796 C.3       1 RES1    0.0000
     15 H7         4.5445   13.1409    0.9662 H         1 RES1    0.0000
     16 H8         5.6897   12.3330    0.2517 H         1 RES1    0.0000
     17 C9         5.6432   11.9112    3.2160 C.ar      1 RES1    0.0000
     18 C10        6.0444   11.9515    4.5791 C.ar      1 RES1    0.0000
     19 H9         6.6814   12.5484    4.9034 H         1 RES1    0.0000
     20 C11        5.4132   11.0293    5.3820 C.ar      1 RES1    0.0000
     21 C12        5.7422   11.0427    6.8970 C.3       1 RES1    0.0000
     22 H10        6.7039   11.2043    6.9968 H         1 RES1    0.0000
     23 C13        5.4346    9.6918    7.4867 C.3       1 RES1    0.0000
     24 H11        5.9978    9.0523    7.0013 H         1 RES1    0.0000
     25 C14        4.9906   12.2141    7.5910 C.ar      1 RES1    0.0000
     26 C15        5.4774   12.5664    8.9518 C.ar      1 RES1    0.0000
     27 H12        6.2294   12.1378    9.2965 H         1 RES1    0.0000
     28 C16        4.8473   13.4932    9.6798 C.ar      1 RES1    0.0000
     29 C17        3.7529   14.2853    9.0947 C.ar      1 RES1    0.0000
     30 C18        3.3645   13.9442    7.7679 C.ar      1 RES1    0.0000
     31 C19        3.9727   12.8963    7.0376 C.ar      1 RES1    0.0000
     32 H13        3.6721   12.6831    6.1848 H         1 RES1    0.0000
     33 C20        1.7759   15.5644    7.8427 C.ar      1 RES1    0.0000
     34 C21        0.6579   16.2937    7.2553 C.ar      1 RES1    0.0000
     35 H14        0.3274   16.0468    6.4230 H         1 RES1    0.0000
     36 C22        0.0802   17.3798    7.9629 C.ar      1 RES1    0.0000
     37 C23        0.5456   17.7052    9.2761 C.ar      1 RES1    0.0000
     38 H15        0.1519   18.4053    9.7456 H         1 RES1    0.0000
     39 C24        1.5780   16.9781    9.8522 C.ar      1 RES1    0.0000
     40 H16        1.8604   17.2047   10.7072 H         1 RES1    0.0000
     41 C25        2.2091   15.9010    9.1877 C.ar      1 RES1    0.0000
     42 C26        6.2048   13.1050   11.5986 C.3       1 RES1    0.0000
     43 H17        6.9997   13.0937   11.0633 H         1 RES1    0.0000
     44 H18        5.8925   12.2074   11.7301 H         1 RES1    0.0000
     45 H19        6.3963   13.5066   12.4491 H         1 RES1    0.0000
     46 N1         3.1634   15.2637    9.7615 N.ar      1 RES1    0.0000
     47 N2         2.3610   14.6129    7.1510 N.ar      1 RES1    0.0000
     48 N3        -1.0024   18.0709    7.2803 N.pl3     1 RES1    0.0000
     49 O1         6.5044    9.7322    9.6798 O.2       1 RES1    0.0000
     50 O2         4.7018    8.4509    9.3124 O.3       1 RES1    0.0000
     51 O3         4.5520   11.2492    1.3812 O.3       1 RES1    0.0000
     52 O4         6.0925   12.7549    2.1546 O.3       1 RES1    0.0000
     53 O5         5.1784   13.8769   10.9227 O.3       1 RES1    0.0000
     54 O6        -1.2570   17.8802    6.1168 O.2       1 RES1    0.0000
     55 O7        -1.5630   18.8698    8.0196 O.2       1 RES1    0.0000
@<TRIPOS>BOND
     1    1   23 1
     2    2    3 1
     3    4    2 1
     4    5    2 1
     5    6    5 1
     6    7    5 1
     7    8    7 1
     8    9    7 1
     9   10    7 1
    10   11   10 ar
    11   12   11 1
    12   13   11 ar
    13   14   15 1
    14   16   14 1
    15   17   13 ar
    16   18   17 ar
    17   19   18 1
    18   20   10 ar
    19   21   20 1
    20   22   21 1
    21   23    5 1
    22   24   23 1
    23   25   21 1
    24   26   25 ar
    25   27   26 1
    26   28   26 ar
    27   29   28 ar
    28   30   29 ar
    29   31   25 ar
    30   32   31 1
    31   33   34 ar
    32   34   35 1
    33   36   34 ar
    34   37   36 ar
    35   38   37 1
    36   39   37 ar
    37   40   39 1
    38   41   33 ar
    39   42   43 1
    40   44   42 1
    41   45   42 1
    42   46   29 ar
    43   47   30 ar
    44   48   36 1
    45   49    1 2
    46   50    1 1
    47   51   13 1
    48   52   14 1
    49   53   28 1
    50   54   48 2
    51   55   48 2
    52    2   50 1
    53   14   51 1
    54   17   52 1
    55   18   20 ar
    56   21   23 1
    57   30   31 ar
    58   33   47 ar
    59   39   41 ar
    60   41   46 ar
    61   42   53 1
@<TRIPOS>SUBSTRUCTURE
     1 RES1 1

@<TRIPOS>CRYSIN
   5.3490   22.4400   22.6800  90.0000  90.0000  90.0000  19 1

