# MOL2 file generated by ConQuest
# Please check atom types

@<TRIPOS>MOLECULE
JAHLIN01
    44    37     2
SMALL
NO_CHARGES
****
Generated from CSD

@<TRIPOS>ATOM
      1 O1         3.0372   12.4095    8.8383 O.3       1 RES1    0.0000
      2 N1        -0.0755   12.9601    7.8762 N.pl3     1 RES1    0.0000
      3 N2         2.8436   11.5141    7.7899 N.2       1 RES1    0.0000
      4 C1         0.4404   11.7007    8.4607 C.3       1 RES1    0.0000
      5 C2         1.6100   11.2044    7.6104 C.2       1 RES1    0.0000
      6 C3         1.3296   10.2853    6.4502 C.3       1 RES1    0.0000
      7 C4         0.1530    9.3538    6.7971 C.3       1 RES1    0.0000
      8 C5        -1.0048   10.1564    7.3428 C.3       1 RES1    0.0000
      9 O2         0.9284   11.1377    5.3456 O.3       1 RES1    0.0000
     10 O3         1.9266    9.7234    3.8800 O.2       1 RES1    0.0000
     11 O4        -0.3041    8.7094    5.5991 O.3       1 RES1    0.0000
     12 O5         1.0792    6.9786    6.0031 O.2       1 RES1    0.0000
     13 O6        -0.5966   10.7567    8.5777 O.3       1 RES1    0.0000
     14 N3        -1.2752   13.4620    8.2899 N.2       1 RES1    0.0000
     15 C6        -1.3463   14.6773    7.7354 C.2       1 RES1    0.0000
     16 C7        -0.1942   14.9836    6.9933 C.2       1 RES1    0.0000
     17 C8         0.6010   13.8667    7.1095 C.2       1 RES1    0.0000
     18 C9         1.2415   10.6945    4.0877 C.2       1 RES1    0.0000
     19 C10        0.5759   11.5537    3.0561 C.3       1 RES1    0.0000
     20 C11        0.2935    7.5382    5.2769 C.2       1 RES1    0.0000
     21 C12       -0.1206    7.0475    3.9275 C.3       1 RES1    0.0000
     22 O7         3.5802   11.5503    7.7090 Du        2 SUP2    0.0000
     23 N4         0.1462   13.3727    7.5382 Du        2 SUP2    0.0000
     24 N5         2.4730   12.0003    8.4193 Du        2 SUP2    0.0000
     25 C13        0.0063   12.1506    8.3647 Du        2 SUP2    0.0000
     26 C14        1.3566   11.4384    8.0118 Du        2 SUP2    0.0000
     27 C15        1.4170   10.5860    6.8860 Du        2 SUP2    0.0000
     28 C16        0.4941    9.3877    6.8208 Du        2 SUP2    0.0000
     29 C17       -0.9349    9.7777    6.9977 Du        2 SUP2    0.0000
     30 H1         0.7562   11.9121    9.3840 H         1 RES1    0.0000
     31 H2         3.9491   12.6220    8.7432 H         1 RES1    0.0000
     32 H3         2.1508    9.7743    6.1756 H         1 RES1    0.0000
     33 H4         0.5039    8.6879    7.4326 H         1 RES1    0.0000
     34 H5        -1.7252    9.6002    7.5206 H         1 RES1    0.0000
     35 H6        -1.3230   10.8325    6.7222 H         1 RES1    0.0000
     36 H7        -2.0699   15.1544    7.8507 H         1 RES1    0.0000
     37 H8        -0.0713   15.7637    6.4555 H         1 RES1    0.0000
     38 H9         1.4975   13.6971    6.7715 H         1 RES1    0.0000
     39 H10        0.9779   11.3638    2.2120 H         1 RES1    0.0000
     40 H11       -0.4530   11.2767    3.0772 H         1 RES1    0.0000
     41 H12        0.6463   12.5079    3.3466 H         1 RES1    0.0000
     42 H13        0.3922    7.5563    3.2762 H         1 RES1    0.0000
     43 H14       -0.0764    6.1081    3.9302 H         1 RES1    0.0000
     44 H15       -1.0969    7.2194    3.8219 H         1 RES1    0.0000
@<TRIPOS>BOND
     1    1    3 1
     2    2    4 1
     3    3    5 2
     4    4    5 1
     5    5    6 1
     6    6    7 1
     7    7    8 1
     8    8   13 1
     9    9    6 1
    10   10   18 2
    11   11    7 1
    12   12   20 2
    13   13    4 1
    14   14    2 1
    15   15   14 2
    16   16   15 1
    17   17    2 1
    18   18    9 1
    19   19   18 1
    20   20   11 1
    21   21   20 1
    22   30    4 1
    23   31    1 1
    24   32    6 1
    25   33    7 1
    26   34    8 1
    27   35    8 1
    28   36   15 1
    29   37   16 1
    30   38   17 1
    31   39   19 1
    32   40   19 1
    33   41   19 1
    34   42   21 1
    35   43   21 1
    36   44   21 1
    37   16   17 2
@<TRIPOS>SUBSTRUCTURE
     1 RES1 1
     2 SUP2 22

@<TRIPOS>CRYSIN
   6.8030   11.3050    9.1300  90.0000 105.4000  90.0000   4 1

