# MOL2 file generated by ConQuest
# Please check atom types

@<TRIPOS>MOLECULE
JAHPIR
    21    22     1
SMALL
NO_CHARGES
****
Generated from CSD

@<TRIPOS>ATOM
      1 O1         8.5583    2.6657    6.8772 O.3       1 RES1    0.0000
      2 C1         8.2800    3.8393    6.2651 C.2       1 RES1    0.0000
      3 C2         6.9621    4.1143    6.1965 C.2       1 RES1    0.0000
      4 C3         6.3405    3.0153    6.8505 C.2       1 RES1    0.0000
      5 C4         7.3227    2.1591    7.2291 C.2       1 RES1    0.0000
      6 C5         7.2924    0.8861    7.9005 C.2       1 RES1    0.0000
      7 N1         8.3796    0.2436    8.0782 N.2       1 RES1    0.0000
      8 N2         8.2562   -0.9675    8.7356 N.pl3     1 RES1    0.0000
      9 N3         7.0823   -1.4329    9.2489 N.2       1 RES1    0.0000
     10 C6         7.4516   -2.5924    9.7995 C.2       1 RES1    0.0000
     11 C7         8.7717   -2.8532    9.6439 C.2       1 RES1    0.0000
     12 C8         9.3283   -1.7751    8.9597 C.2       1 RES1    0.0000
     13 N4         9.7344    4.5805    5.8075 N.pl3     1 RES1    0.0000
     14 O2         9.1496    5.6137    5.2058 O.2       1 RES1    0.0000
     15 O3        10.5281    4.1539    6.0154 O.2       1 RES1    0.0000
     16 H1         6.4650    4.7590    5.7261 H         1 RES1    0.0000
     17 H2         5.3821    2.8913    7.0038 H         1 RES1    0.0000
     18 H3         6.3243    0.5678    8.1885 H         1 RES1    0.0000
     19 H4         6.7249   -3.1602   10.1979 H         1 RES1    0.0000
     20 H5         9.4647   -3.6160    9.9191 H         1 RES1    0.0000
     21 H6        10.2444   -1.4568    8.6183 H         1 RES1    0.0000
@<TRIPOS>BOND
     1    1    2 1
     2    2    3 2
     3    3    4 1
     4    4    5 2
     5    5    1 1
     6    6    5 1
     7    7    6 2
     8    8    7 1
     9    9    8 1
    10   10    9 2
    11   11   10 1
    12   12    8 1
    13   13    2 1
    14   14   13 2
    15   15   13 2
    16   16    3 1
    17   17    4 1
    18   18    6 1
    19   19   10 1
    20   20   11 1
    21   21   12 1
    22   11   12 2
@<TRIPOS>SUBSTRUCTURE
     1 RES1 1

@<TRIPOS>CRYSIN
  10.8292    7.4710   11.6149  90.0000  90.0000  90.0000  33 1

