# MOL2 file generated by ConQuest
# Please check atom types

@<TRIPOS>MOLECULE
JAHROC
    73    77     1
SMALL
NO_CHARGES
****
Generated from CSD

@<TRIPOS>ATOM
      1 O1         0.5696   13.8901    0.7331 O.2       1 RES1    0.0000
      2 O2        -0.8742   13.7865    2.4400 O.3       1 RES1    0.0000
      3 O3         3.0830    5.1342    0.3520 O.2       1 RES1    0.0000
      4 O4         3.5231    3.8139    1.9756 O.2       1 RES1    0.0000
      5 O5         0.3625    9.2246    7.9743 O.2       1 RES1    0.0000
      6 O6         1.0323   10.7890    9.2785 O.2       1 RES1    0.0000
      7 N1         2.3602   11.8475    0.5410 N.pl3     1 RES1    0.0000
      8 H1         2.1067   12.6031    0.2157 H         1 RES1    0.0000
      9 N2        -0.1879    9.8362    3.1897 N.3       1 RES1    0.0000
     10 C1        -1.9010    8.1995    2.4774 C.ar      1 RES1    0.0000
     11 H2        -1.2873    7.7629    1.9315 H         1 RES1    0.0000
     12 N3         3.0277    4.8307    1.5223 N.pl3     1 RES1    0.0000
     13 C2         6.8973    9.4951   -2.0587 C.3       1 RES1    0.0000
     14 H3         7.2243    8.7464   -1.5552 H         1 RES1    0.0000
     15 H4         7.5887   10.1566   -2.1355 H         1 RES1    0.0000
     16 H5         6.6357    9.2032   -2.9348 H         1 RES1    0.0000
     17 C3         5.7029   10.0952   -1.3498 C.ar      1 RES1    0.0000
     18 C4         4.4570    9.5188   -1.4400 C.ar      1 RES1    0.0000
     19 H6         4.3539    8.7357   -1.9315 H         1 RES1    0.0000
     20 C5         3.3539   10.0724   -0.8181 C.ar      1 RES1    0.0000
     21 H7         2.5218    9.6664   -0.8980 H         1 RES1    0.0000
     22 C6         3.4910   11.2304   -0.0778 C.ar      1 RES1    0.0000
     23 C7         1.6525   11.3698    1.5764 C.2       1 RES1    0.0000
     24 C8         2.0270   10.0591    2.1962 C.3       1 RES1    0.0000
     25 H8         2.4168   10.2115    3.0719 H         1 RES1    0.0000
     26 H9         2.6889    9.6136    1.6438 H         1 RES1    0.0000
     27 C9         0.7929    9.1736    2.3321 C.3       1 RES1    0.0000
     28 H10        0.3975    9.0481    1.4432 H         1 RES1    0.0000
     29 C10       -1.4920    9.2936    3.2462 C.ar      1 RES1    0.0000
     30 C11       -2.4278    9.8502    4.1164 C.ar      1 RES1    0.0000
     31 H11       -2.1681   10.5315    4.6940 H         1 RES1    0.0000
     32 C12       -3.7347    9.4065    4.1350 C.ar      1 RES1    0.0000
     33 H12       -4.3419    9.8162    4.7074 H         1 RES1    0.0000
     34 C13       -4.1697    8.3678    3.3246 C.ar      1 RES1    0.0000
     35 C14       -5.6089    7.9396    3.3204 C.3       1 RES1    0.0000
     36 H13       -5.7630    7.3449    2.5836 H         1 RES1    0.0000
     37 H14       -6.1723    8.7120    3.2325 H         1 RES1    0.0000
     38 H15       -5.8105    7.4882    4.1439 H         1 RES1    0.0000
     39 C15        5.8188   11.2597   -0.6157 C.ar      1 RES1    0.0000
     40 H16        6.6501   11.6702   -0.5418 H         1 RES1    0.0000
     41 C16        4.7228   11.8297    0.0119 C.ar      1 RES1    0.0000
     42 H17        4.8208   12.6182    0.4950 H         1 RES1    0.0000
     43 C17        0.5721   11.9901    2.1502 C.2       1 RES1    0.0000
     44 C18        0.1211   13.2748    1.6885 C.2       1 RES1    0.0000
     45 C19       -1.3029   15.1282    2.1413 C.3       1 RES1    0.0000
     46 H18       -0.6794   15.5355    1.5351 H         1 RES1    0.0000
     47 H19       -1.3411   15.6400    2.9532 H         1 RES1    0.0000
     48 H20       -2.1736   15.1035    1.7375 H         1 RES1    0.0000
     49 C20       -0.0771   11.3105    3.3425 C.3       1 RES1    0.0000
     50 H21       -0.9975   11.6443    3.3679 H         1 RES1    0.0000
     51 C21       -3.2137    7.7615    2.5249 C.ar      1 RES1    0.0000
     52 H22       -3.4634    7.0346    2.0017 H         1 RES1    0.0000
     53 C22        1.2456    7.8172    2.8591 C.ar      1 RES1    0.0000
     54 C23        1.8214    6.9240    1.9746 C.ar      1 RES1    0.0000
     55 H23        1.8450    7.1133    1.0652 H         1 RES1    0.0000
     56 C24        2.3613    5.7484    2.4552 C.ar      1 RES1    0.0000
     57 C25        2.3297    5.4139    3.7835 C.ar      1 RES1    0.0000
     58 H24        2.7034    4.6172    4.0853 H         1 RES1    0.0000
     59 C26        1.7320    6.2849    4.6562 C.ar      1 RES1    0.0000
     60 H25        1.6839    6.0737    5.5603 H         1 RES1    0.0000
     61 C27        1.1993    7.4812    4.1984 C.ar      1 RES1    0.0000
     62 H26        0.8050    8.0667    4.8027 H         1 RES1    0.0000
     63 C28        0.5401   11.6903    4.6964 C.ar      1 RES1    0.0000
     64 C29        0.4265   10.8554    5.7970 C.ar      1 RES1    0.0000
     65 H27        0.0358   10.0165    5.7074 H         1 RES1    0.0000
     66 C30        0.8922   11.2697    7.0233 C.ar      1 RES1    0.0000
     67 N4         0.7574   10.3570    8.1718 N.pl3     1 RES1    0.0000
     68 C31        1.4601   12.4986    7.2300 C.ar      1 RES1    0.0000
     69 H28        1.7552   12.7604    8.0720 H         1 RES1    0.0000
     70 C32        1.5759   13.3292    6.1380 C.ar      1 RES1    0.0000
     71 H29        1.9586   14.1705    6.2392 H         1 RES1    0.0000
     72 C33        1.1295   12.9295    4.8934 C.ar      1 RES1    0.0000
     73 H30        1.2271   13.5048    4.1706 H         1 RES1    0.0000
@<TRIPOS>BOND
     1    1   44 2
     2    2   44 1
     3    3   12 2
     4    4   12 2
     5    5   67 2
     6    6   67 2
     7    7    8 1
     8    9   27 1
     9   10   11 1
    10   12   56 1
    11   13   14 1
    12   15   13 1
    13   16   13 1
    14   17   13 1
    15   18   17 ar
    16   19   18 1
    17   20   18 ar
    18   21   20 1
    19   22    7 1
    20   23    7 1
    21   24   23 1
    22   25   24 1
    23   26   24 1
    24   27   24 1
    25   28   27 1
    26   29    9 1
    27   30   29 ar
    28   31   30 1
    29   32   30 ar
    30   33   32 1
    31   34   32 ar
    32   35   34 1
    33   36   35 1
    34   37   35 1
    35   38   35 1
    36   39   17 ar
    37   40   39 1
    38   41   22 ar
    39   42   41 1
    40   43   23 2
    41   44   43 1
    42   45    2 1
    43   46   45 1
    44   47   45 1
    45   48   45 1
    46   49    9 1
    47   50   49 1
    48   51   10 ar
    49   52   51 1
    50   53   27 1
    51   54   53 ar
    52   55   54 1
    53   56   54 ar
    54   57   56 ar
    55   58   57 1
    56   59   57 ar
    57   60   59 1
    58   61   53 ar
    59   62   61 1
    60   63   49 1
    61   64   63 ar
    62   65   64 1
    63   66   64 ar
    64   67   66 1
    65   68   66 ar
    66   69   68 1
    67   70   68 ar
    68   71   70 1
    69   72   63 ar
    70   73   72 1
    71   10   29 ar
    72   20   22 ar
    73   34   51 ar
    74   39   41 ar
    75   43   49 1
    76   59   61 ar
    77   70   72 ar
@<TRIPOS>SUBSTRUCTURE
     1 RES1 1

@<TRIPOS>CRYSIN
  15.9388   10.7728   16.8025  90.0000  95.5910  90.0000 231 1

