# MOL2 file generated by ConQuest
# Please check atom types

@<TRIPOS>MOLECULE
JAJBEB
    74    82     2
SMALL
NO_CHARGES
****
Generated from CSD

@<TRIPOS>ATOM
      1 C1         0.4736    2.9207    4.3589 C.3       1 RES1    0.0000
      2 C2        -0.1752    1.9912    5.4204 C.3       1 RES1    0.0000
      3 C3         0.2955    2.4783    6.8190 C.3       1 RES1    0.0000
      4 C4         0.8135    1.1990    7.4217 C.3       1 RES1    0.0000
      5 N1         1.4512    1.3043    8.7865 N.pl3     1 RES1    0.0000
      6 O1         0.9633    0.6512    9.6821 O.2       1 RES1    0.0000
      7 O2         2.3838    2.0500    8.9045 O.2       1 RES1    0.0000
      8 N2        -0.2971    0.1713    7.5837 N.pl3     1 RES1    0.0000
      9 O3         0.0048   -0.9849    7.4359 O.2       1 RES1    0.0000
     10 O4        -1.3987    0.5852    7.8377 O.2       1 RES1    0.0000
     11 C5         1.7751    0.8493    6.2940 C.3       1 RES1    0.0000
     12 C6         0.8319    0.8796    5.0627 C.3       1 RES1    0.0000
     13 C7         1.4914    1.8056    4.0090 C.3       1 RES1    0.0000
     14 C8         2.8667    1.9912    4.5793 C.3       1 RES1    0.0000
     15 N3         3.7239    0.7083    4.3680 N.pl3     1 RES1    0.0000
     16 O5         3.2972   -0.1285    3.6046 O.2       1 RES1    0.0000
     17 O6         4.7477    0.6423    4.9940 O.2       1 RES1    0.0000
     18 N4         3.7559    3.0242    3.9247 N.pl3     1 RES1    0.0000
     19 O7         3.7159    3.0956    2.7348 O.2       1 RES1    0.0000
     20 O8         4.4764    3.6612    4.6155 O.2       1 RES1    0.0000
     21 C9         2.5950    2.1428    6.0763 C.3       1 RES1    0.0000
     22 C10        1.5491    3.2918    6.4327 C.3       1 RES1    0.0000
     23 C11        0.9903    4.0376    5.2195 C.3       1 RES1    0.0000
     24 N5         1.8507    5.0760    4.5650 N.pl3     1 RES1    0.0000
     25 O9         1.7615    5.1902    3.3777 O.2       1 RES1    0.0000
     26 O10        2.5287    5.7630    5.2623 O.2       1 RES1    0.0000
     27 N6        -0.2042    4.9529    5.6615 N.pl3     1 RES1    0.0000
     28 O11       -1.0594    5.1563    4.8177 O.2       1 RES1    0.0000
     29 O12       -0.1895    5.4026    6.7788 O.2       1 RES1    0.0000
     30 C12        3.8657   -3.8146    0.7232 C.3       2 RES2    0.0000
     31 C13        3.0766   -2.5032    0.9954 C.3       2 RES2    0.0000
     32 C14        2.1048   -2.2909   -0.2061 C.3       2 RES2    0.0000
     33 C15        2.4514   -0.8653   -0.6079 C.3       2 RES2    0.0000
     34 N7         1.7878   -0.3247   -1.8470 N.pl3     2 RES2    0.0000
     35 O13        1.7292    0.8707   -1.9831 O.2       2 RES2    0.0000
     36 O14        1.3996   -1.1205   -2.6558 O.2       2 RES2    0.0000
     37 N8         2.1271    0.1374    0.4796 N.pl3     2 RES2    0.0000
     38 O15        2.9443    0.9688    0.7427 O.2       2 RES2    0.0000
     39 O16        1.0534    0.0178    1.0162 O.2       2 RES2    0.0000
     40 C16        3.9390   -1.0794   -0.7621 C.3       2 RES2    0.0000
     41 C17        4.3193   -1.6736    0.6105 C.3       2 RES2    0.0000
     42 C18        5.1109   -2.9760    0.3344 C.3       2 RES2    0.0000
     43 C19        5.3635   -2.8797   -1.1250 C.3       2 RES2    0.0000
     44 N9         6.4939   -1.8449   -1.4141 N.pl3     2 RES2    0.0000
     45 O17        7.0259   -1.3078   -0.4912 O.2       2 RES2    0.0000
     46 O18        6.7114   -1.6664   -2.6078 O.2       2 RES2    0.0000
     47 N10        5.9383   -4.0787   -1.7952 N.pl3     2 RES2    0.0000
     48 O19        6.8677   -4.6246   -1.2910 O.2       2 RES2    0.0000
     49 O20        5.3581   -4.5105   -2.7841 O.2       2 RES2    0.0000
     50 C20        4.0645   -2.3248   -1.6616 C.3       2 RES2    0.0000
     51 C21        2.7931   -3.1794   -1.2728 C.3       2 RES2    0.0000
     52 C22        3.1040   -4.4016   -0.4109 C.3       2 RES2    0.0000
     53 N11        3.6558   -5.6541   -1.0525 N.pl3     2 RES2    0.0000
     54 O21        4.4819   -6.2768   -0.4524 O.2       2 RES2    0.0000
     55 O22        3.1479   -6.0056   -2.0647 O.2       2 RES2    0.0000
     56 N12        1.7407   -4.9583    0.1231 N.pl3     2 RES2    0.0000
     57 O23        1.6740   -5.1777    1.3285 O.2       2 RES2    0.0000
     58 O24        0.8786   -5.1349   -0.6584 O.2       2 RES2    0.0000
     59 H1        -0.0935    3.2472    3.7368 H         1 RES1    0.0000
     60 H2        -1.0212    1.8020    5.3323 H         1 RES1    0.0000
     61 H3        -0.3171    2.8743    7.2791 H         1 RES1    0.0000
     62 H4         2.2848    0.1035    6.4133 H         1 RES1    0.0000
     63 H5         0.5703    0.0018    4.7918 H         1 RES1    0.0000
     64 H6         1.4424    1.5808    3.1768 H         1 RES1    0.0000
     65 H7         3.3746    2.1375    6.6090 H         1 RES1    0.0000
     66 H8         1.8437    3.7950    7.0782 H         1 RES1    0.0000
     67 H9         3.9862   -4.3624    1.4348 H         2 RES2    0.0000
     68 H10        2.6476   -2.3926    1.8340 H         2 RES2    0.0000
     69 H11        1.1582   -2.4604   -0.1024 H         2 RES2    0.0000
     70 H12        4.4038   -0.3854   -1.0343 H         2 RES2    0.0000
     71 H13        4.6676   -1.1009    1.2210 H         2 RES2    0.0000
     72 H14        5.7553   -3.1616    0.8166 H         2 RES2    0.0000
     73 H15        4.0277   -2.1482   -2.5521 H         2 RES2    0.0000
     74 H16        2.3240   -3.3454   -1.9209 H         2 RES2    0.0000
@<TRIPOS>BOND
     1    1    2 1
     2    2    3 1
     3    3    4 1
     4    4    5 1
     5    5    6 2
     6    7    5 2
     7    8    4 1
     8    9    8 2
     9   10    8 2
    10   11    4 1
    11   12    2 1
    12   13    1 1
    13   14   13 1
    14   15   14 1
    15   16   15 2
    16   17   15 2
    17   18   14 1
    18   19   18 2
    19   20   18 2
    20   21   11 1
    21   22    3 1
    22   23    1 1
    23   24   23 1
    24   25   24 2
    25   26   24 2
    26   27   23 1
    27   28   27 2
    28   29   27 2
    29   30   31 1
    30   31   32 1
    31   32   33 1
    32   33   34 1
    33   34   35 2
    34   36   34 2
    35   37   33 1
    36   38   37 2
    37   39   37 2
    38   40   33 1
    39   41   31 1
    40   42   30 1
    41   43   42 1
    42   44   43 1
    43   45   44 2
    44   46   44 2
    45   47   43 1
    46   48   47 2
    47   49   47 2
    48   50   40 1
    49   51   32 1
    50   52   30 1
    51   53   52 1
    52   54   53 2
    53   55   53 2
    54   56   52 1
    55   57   56 2
    56   58   56 2
    57   59    1 1
    58   60    2 1
    59   61    3 1
    60   62   11 1
    61   63   12 1
    62   64   13 1
    63   65   21 1
    64   66   22 1
    65   67   30 1
    66   68   31 1
    67   69   32 1
    68   70   40 1
    69   71   41 1
    70   72   42 1
    71   73   50 1
    72   74   51 1
    73   11   12 1
    74   12   13 1
    75   14   21 1
    76   21   22 1
    77   22   23 1
    78   40   41 1
    79   41   42 1
    80   43   50 1
    81   50   51 1
    82   51   52 1
@<TRIPOS>SUBSTRUCTURE
     1 RES1 1
     2 RES2 30

@<TRIPOS>CRYSIN
  13.0800   17.8420   13.5300  90.0000 106.6700  90.0000  14 1

