# MOL2 file generated by ConQuest
# Please check atom types

@<TRIPOS>MOLECULE
JAKCOO
    32    33     1
SMALL
NO_CHARGES
****
Generated from CSD

@<TRIPOS>ATOM
      1 N1         8.2446   12.5066    1.0146 N.2       1 RES1    0.0000
      2 N2         8.3075   13.6173    1.5463 N.2       1 RES1    0.0000
      3 N3         9.3534   10.5131    0.9095 N.ar      1 RES1    0.0000
      4 N4        10.9014   13.8976    0.8793 N.pl3     1 RES1    0.0000
      5 N5         5.8988   13.6802    1.3772 N.ar      1 RES1    0.0000
      6 N6         8.4033   16.2176    2.3436 N.pl3     1 RES1    0.0000
      7 C1         9.5076   11.8304    0.9484 C.ar      1 RES1    0.0000
      8 C2         7.0458   14.2920    1.6535 C.ar      1 RES1    0.0000
      9 C3        10.7589   12.4330    0.9074 C.ar      1 RES1    0.0000
     10 C4        11.9169   11.6739    0.8448 C.ar      1 RES1    0.0000
     11 C5        11.7300   10.2993    0.8117 C.ar      1 RES1    0.0000
     12 C6        10.4651    9.7772    0.8498 C.ar      1 RES1    0.0000
     13 C7        13.2873   12.2672    0.7944 C.3       1 RES1    0.0000
     14 H1        13.3684   12.9348    0.1943 H         1 RES1    0.0000
     15 H2        13.8857   11.6538    0.5325 H         1 RES1    0.0000
     16 H3        13.5897   12.6531    1.5902 H         1 RES1    0.0000
     17 C8         4.7924   14.4041    1.5255 C.ar      1 RES1    0.0000
     18 C9         4.7708   15.7196    1.9385 C.ar      1 RES1    0.0000
     19 C10        5.9576   16.3778    2.2155 C.ar      1 RES1    0.0000
     20 C11        7.0945   15.6022    2.0659 C.ar      1 RES1    0.0000
     21 C12        6.0135   17.8115    2.6516 C.3       1 RES1    0.0000
     22 H4         6.7345   18.0395    3.2956 H         1 RES1    0.0000
     23 H5         5.2799   18.0695    2.8998 H         1 RES1    0.0000
     24 H6         6.1132   18.3392    1.9788 H         1 RES1    0.0000
     25 O1        10.5621   14.4644   -0.1418 O.2       1 RES1    0.0000
     26 O2        11.3818   14.4373    1.8550 O.2       1 RES1    0.0000
     27 O3         8.8569   16.1019    3.4596 O.2       1 RES1    0.0000
     28 O4         8.9446   16.8169    1.4413 O.2       1 RES1    0.0000
     29 H7        12.4567    9.6910    0.7339 H         1 RES1    0.0000
     30 H8        10.2983    8.8220    0.8419 H         1 RES1    0.0000
     31 H9         3.9880   16.1622    2.0148 H         1 RES1    0.0000
     32 H10        3.9510   13.9657    1.3240 H         1 RES1    0.0000
@<TRIPOS>BOND
     1    1    2 2
     2    2    8 1
     3    3    7 ar
     4    4    9 1
     5    5    8 ar
     6    6   20 1
     7    7    1 1
     8    8   20 ar
     9    9    7 ar
    10   10    9 ar
    11   11   10 ar
    12   12    3 ar
    13   13   10 1
    14   14   13 1
    15   15   13 1
    16   16   13 1
    17   17    5 ar
    18   18   17 ar
    19   19   18 ar
    20   20   19 ar
    21   21   19 1
    22   22   21 1
    23   23   21 1
    24   24   21 1
    25   25    4 2
    26   26    4 2
    27   27    6 2
    28   28    6 2
    29   29   11 1
    30   30   12 1
    31   31   18 1
    32   32   17 1
    33   11   12 ar
@<TRIPOS>SUBSTRUCTURE
     1 RES1 1

@<TRIPOS>CRYSIN
  12.3380   14.9830    7.3700  90.0000 102.4900  90.0000  14 1

