# MOL2 file generated by ConQuest
# Please check atom types

@<TRIPOS>MOLECULE
JAKJOU
    42    42     2
SMALL
NO_CHARGES
****
Generated from CSD

@<TRIPOS>ATOM
      1 C1         4.1643    3.4251    6.8466 C.ar      1 RES1    0.0000
      2 C2         4.1980    2.2334    6.0710 C.ar      1 RES1    0.0000
      3 C3         3.0944    1.3636    6.0633 C.ar      1 RES1    0.0000
      4 C4         1.9778    1.5908    6.7770 C.ar      1 RES1    0.0000
      5 C5         1.9519    2.7713    7.5581 C.ar      1 RES1    0.0000
      6 C6         2.9866    3.6500    7.5946 C.ar      1 RES1    0.0000
      7 N1         5.1780    4.2766    6.8919 N.3       1 RES1    0.0000
      8 C7         5.1887    5.5091    7.6564 C.3       1 RES1    0.0000
      9 N2         5.2423    1.8036    5.2954 N.2       1 RES1    0.0000
     10 O1         6.2543    2.5435    5.2501 O.2       1 RES1    0.0000
     11 C8         0.8048    0.6591    6.7847 C.3       1 RES1    0.0000
     12 C9         2.6869    7.1322    9.7766 C.ar      2 RES2    0.0000
     13 C10        2.7110    6.0432   10.7025 C.ar      2 RES2    0.0000
     14 C11        1.6147    5.1597   10.7886 C.ar      2 RES2    0.0000
     15 C12        0.5273    5.2815   10.0042 C.ar      2 RES2    0.0000
     16 C13        0.5290    6.3374    9.1005 C.ar      2 RES2    0.0000
     17 C14        1.5444    7.2258    8.9778 C.ar      2 RES2    0.0000
     18 N3         3.6921    7.9944    9.6716 N.3       2 RES2    0.0000
     19 C15        3.7237    9.1008    8.7469 C.3       2 RES2    0.0000
     20 N4         3.7255    5.7448   11.5476 N.2       2 RES2    0.0000
     21 O2         4.7255    6.5011   11.5200 O.2       2 RES2    0.0000
     22 C16       -0.6410    4.3393   10.0959 C.3       2 RES2    0.0000
     23 H1         6.0597    5.9809    7.3283 H         1 RES1    0.0000
     24 H2         5.1164    5.2972    8.7182 H         1 RES1    0.0000
     25 H3         4.4549    6.1392    7.3294 H         1 RES1    0.0000
     26 H4         0.9922   -0.0551    6.1881 H         1 RES1    0.0000
     27 H5         0.5812    0.3844    7.7769 H         1 RES1    0.0000
     28 H6         0.0213    1.0927    6.3671 H         1 RES1    0.0000
     29 H7         5.8905    4.1070    6.4555 H         1 RES1    0.0000
     30 H8         3.1853    0.6014    5.5882 H         1 RES1    0.0000
     31 H9         1.1356    2.8984    8.2464 H         1 RES1    0.0000
     32 H10        2.9132    4.4729    8.2122 H         1 RES1    0.0000
     33 H11        4.5710    9.6156    8.7646 H         2 RES2    0.0000
     34 H12        2.9945    9.7393    8.8618 H         2 RES2    0.0000
     35 H13        3.6242    8.7838    7.8410 H         2 RES2    0.0000
     36 H14       -1.3939    4.7915   10.5699 H         2 RES2    0.0000
     37 H15       -0.8718    3.9829    9.0684 H         2 RES2    0.0000
     38 H16       -0.4001    3.5838   10.7566 H         2 RES2    0.0000
     39 H17        4.3787    7.9004   10.1732 H         2 RES2    0.0000
     40 H18        1.7249    4.4697   11.3532 H         2 RES2    0.0000
     41 H19       -0.1795    6.4460    8.5403 H         2 RES2    0.0000
     42 H20        1.5451    7.9299    8.3381 H         2 RES2    0.0000
@<TRIPOS>BOND
     1    1    2 ar
     2    2    3 ar
     3    3    4 ar
     4    4    5 ar
     5    5    6 ar
     6    6    1 ar
     7    7    1 1
     8    8    7 1
     9    9    2 1
    10   10    9 2
    11   11    4 1
    12   12   13 ar
    13   13   14 ar
    14   14   15 ar
    15   15   16 ar
    16   16   17 ar
    17   17   12 ar
    18   18   12 1
    19   19   18 1
    20   20   13 1
    21   21   20 2
    22   22   15 1
    23   23    8 1
    24   24    8 1
    25   25    8 1
    26   26   11 1
    27   27   11 1
    28   28   11 1
    29   29    7 1
    30   30    3 1
    31   31    5 1
    32   32    6 1
    33   33   19 1
    34   34   19 1
    35   35   19 1
    36   36   22 1
    37   37   22 1
    38   38   22 1
    39   39   18 1
    40   40   14 1
    41   41   16 1
    42   42   17 1
@<TRIPOS>SUBSTRUCTURE
     1 RES1 1
     2 RES2 12

@<TRIPOS>CRYSIN
   8.6360    8.6310   11.1010  92.5700  94.1200 105.0200   2 1

