# MOL2 file generated by ConQuest
# Please check atom types

@<TRIPOS>MOLECULE
JAKVEW
    36    37     1
SMALL
NO_CHARGES
****
Generated from CSD

@<TRIPOS>ATOM
      1 O1         2.0448   -6.1634    3.3878 O.2       1 RES1    0.0000
      2 O2         3.7196   -5.7410    4.5995 O.2       1 RES1    0.0000
      3 O3         2.4799    5.3199   -1.1017 O.3       1 RES1    0.0000
      4 O4        -0.7564   15.1020   -6.5585 O.3       1 RES1    0.0000
      5 O5         1.7595   13.2866   -7.0571 O.3       1 RES1    0.0000
      6 O6        -1.6860   13.0914   -6.8214 O.2       1 RES1    0.0000
      7 O7         2.3876   14.2359   -5.1496 O.2       1 RES1    0.0000
      8 N1         2.9094   -5.4281    3.7636 N.pl3     1 RES1    0.0000
      9 N2         3.1357   -0.1585    1.7832 N.2       1 RES1    0.0000
     10 N3         2.3729    0.0710    0.8773 N.2       1 RES1    0.0000
     11 C1         2.9476   -4.0647    3.1964 C.ar      1 RES1    0.0000
     12 C2         2.1183   -3.7472    2.1290 C.ar      1 RES1    0.0000
     13 C3         2.1722   -2.4563    1.6346 C.ar      1 RES1    0.0000
     14 C4         3.0177   -1.5510    2.2133 C.ar      1 RES1    0.0000
     15 C5         3.8473   -1.8883    3.2449 C.ar      1 RES1    0.0000
     16 C6         3.8254   -3.1259    3.7422 C.ar      1 RES1    0.0000
     17 C7         2.4689    1.4866    0.4129 C.ar      1 RES1    0.0000
     18 C8         1.6568    1.7944   -0.6344 C.ar      1 RES1    0.0000
     19 C9         1.6066    3.0304   -1.1760 C.ar      1 RES1    0.0000
     20 C10        2.4161    4.0501   -0.6644 C.ar      1 RES1    0.0000
     21 C11        3.2518    3.7741    0.4015 C.ar      1 RES1    0.0000
     22 C12        3.2790    2.4819    0.9559 C.ar      1 RES1    0.0000
     23 C13        1.5545    5.6516   -2.1276 C.3       1 RES1    0.0000
     24 C14        1.9883    7.2144   -2.5434 C.3       1 RES1    0.0000
     25 C15        1.4049    7.9266   -2.0004 C.3       1 RES1    0.0000
     26 C16        1.7727    9.5163   -2.4434 C.3       1 RES1    0.0000
     27 C17        0.8695    9.9280   -3.5593 C.3       1 RES1    0.0000
     28 C18        1.0105   11.3904   -3.9051 C.3       1 RES1    0.0000
     29 C19        0.0731   11.8595   -5.0024 C.3       1 RES1    0.0000
     30 C20        0.1724   13.3445   -5.3282 C.3       1 RES1    0.0000
     31 C21       -0.8503   13.8301   -6.3156 C.2       1 RES1    0.0000
     32 C22        1.5579   13.6728   -5.8226 C.2       1 RES1    0.0000
     33 C23       -1.7152   15.6172   -7.5258 C.3       1 RES1    0.0000
     34 C24        3.0955   13.5482   -7.5744 C.3       1 RES1    0.0000
     35 C25       -1.1910   16.8010   -8.0388 C.3       1 RES1    0.0000
     36 C26        3.1991   12.9857   -8.8275 C.3       1 RES1    0.0000
@<TRIPOS>BOND
     1    1    8 2
     2    2    8 2
     3    3   20 1
     4    4   31 1
     5    5   32 1
     6    6   31 2
     7    7   32 2
     8    8   11 1
     9    9   10 2
    10   10   17 1
    11   11   12 ar
    12   12   13 ar
    13   13   14 ar
    14   14    9 1
    15   15   14 ar
    16   16   11 ar
    17   17   18 ar
    18   18   19 ar
    19   19   20 ar
    20   20   21 ar
    21   21   22 ar
    22   22   17 ar
    23   23    3 1
    24   24   23 1
    25   25   24 1
    26   26   25 1
    27   27   26 1
    28   28   27 1
    29   29   28 1
    30   30   29 1
    31   31   30 1
    32   32   30 1
    33   33    4 1
    34   34    5 1
    35   35   33 1
    36   36   34 1
    37   15   16 ar
@<TRIPOS>SUBSTRUCTURE
     1 RES1 1

@<TRIPOS>CRYSIN
   8.0740   11.5920   14.4220  87.4300  82.4600  85.4500   2 1

