# MOL2 file generated by ConQuest
# Please check atom types

@<TRIPOS>MOLECULE
JAKVAS
    34    35     1
SMALL
NO_CHARGES
****
Generated from CSD

@<TRIPOS>ATOM
      1 O1         3.5659   -4.9812    3.8900 O.2       1 RES1    0.0000
      2 O2         1.6461   -5.1848    2.9417 O.2       1 RES1    0.0000
      3 O3         2.5910    6.4609   -0.9574 O.3       1 RES1    0.0000
      4 O4         2.2933   12.5456   -6.4667 O.3       1 RES1    0.0000
      5 O5        -0.1466   14.4433   -5.9461 O.3       1 RES1    0.0000
      6 O6         2.9545   13.4282   -4.5348 O.2       1 RES1    0.0000
      7 O7        -1.1384   12.4810   -6.3032 O.2       1 RES1    0.0000
      8 N1         2.6827   -4.5449    3.1954 N.pl3     1 RES1    0.0000
      9 N2         3.0957    0.7318    1.3459 N.2       1 RES1    0.0000
     10 N3         2.3485    1.0847    0.4172 N.2       1 RES1    0.0000
     11 C1         2.7911   -3.2005    2.6539 C.ar      1 RES1    0.0000
     12 C2         3.7324   -2.3466    3.1967 C.ar      1 RES1    0.0000
     13 C3         3.7894   -1.0660    2.7232 C.ar      1 RES1    0.0000
     14 C4         2.9550   -0.6389    1.7148 C.ar      1 RES1    0.0000
     15 C5         2.0334   -1.5325    1.1419 C.ar      1 RES1    0.0000
     16 C6         1.9551   -2.8137    1.6128 C.ar      1 RES1    0.0000
     17 C7         2.4696    2.4657    0.0746 C.ar      1 RES1    0.0000
     18 C8         3.3024    3.3667    0.7259 C.ar      1 RES1    0.0000
     19 C9         3.3270    4.6941    0.3545 C.ar      1 RES1    0.0000
     20 C10        2.5055    5.1328   -0.6775 C.ar      1 RES1    0.0000
     21 C11        1.6759    4.2312   -1.3485 C.ar      1 RES1    0.0000
     22 C12        1.6730    2.9105   -0.9627 C.ar      1 RES1    0.0000
     23 C13        1.7819    6.9819   -2.0156 C.3       1 RES1    0.0000
     24 C14        2.0576    8.4616   -2.1255 C.3       1 RES1    0.0000
     25 C15        1.1964    9.0774   -3.2177 C.3       1 RES1    0.0000
     26 C16        1.4501   10.5688   -3.4282 C.3       1 RES1    0.0000
     27 C17        0.5310   11.1303   -4.5021 C.3       1 RES1    0.0000
     28 C18        0.7127   12.6175   -4.7598 C.3       1 RES1    0.0000
     29 C19        2.1023   12.9292   -5.2163 C.2       1 RES1    0.0000
     30 C20       -0.3106   13.1265   -5.7630 C.2       1 RES1    0.0000
     31 C21        3.6653   12.7362   -6.9677 C.3       1 RES1    0.0000
     32 C22       -1.0598   15.0581   -6.9323 C.3       1 RES1    0.0000
     33 C23        3.7412   12.1408   -8.2312 C.3       1 RES1    0.0000
     34 C24       -0.4215   16.1527   -7.4922 C.3       1 RES1    0.0000
@<TRIPOS>BOND
     1    1    8 2
     2    2    8 2
     3    3   20 1
     4    4   29 1
     5    5   30 1
     6    6   29 2
     7    7   30 2
     8    8   11 1
     9    9   10 2
    10   10   17 1
    11   11   12 ar
    12   12   13 ar
    13   13   14 ar
    14   14    9 1
    15   15   14 ar
    16   16   11 ar
    17   17   18 ar
    18   18   19 ar
    19   19   20 ar
    20   20   21 ar
    21   21   22 ar
    22   22   17 ar
    23   23    3 1
    24   24   23 1
    25   25   24 1
    26   26   25 1
    27   27   26 1
    28   28   27 1
    29   29   28 1
    30   30   28 1
    31   31    4 1
    32   32    5 1
    33   33   31 1
    34   34   32 1
    35   15   16 ar
@<TRIPOS>SUBSTRUCTURE
     1 RES1 1

@<TRIPOS>CRYSIN
   8.0070   11.9600   13.5160  77.1000  81.8000  83.1500   2 1

