# MOL2 file generated by ConQuest
# Please check atom types

@<TRIPOS>MOLECULE
JAKWEX
    39    39     2
SMALL
NO_CHARGES
****
Generated from CSD

@<TRIPOS>ATOM
      1 O1         2.3362  -10.8567    9.4840 O.2       1 RES1    0.0000
      2 O2         4.2482  -11.1251   10.4016 O.2       1 RES1    0.0000
      3 O3        -0.6868   -3.1541   18.5662 O.3       1 RES1    0.0000
      4 O4        -7.3663    7.9860   25.6770 O.3       1 RES1    0.0000
      5 O5        -8.3091    7.3111   23.7814 O.2       1 RES1    0.0000
      6 O6        -6.7806    4.8896   26.4155 O.2       1 RES1    0.0000
      7 O7        -4.8965    6.0609   26.4178 O.3       1 RES1    0.0000
      8 N1         3.1161  -10.6847   10.3799 N.pl3     1 RES1    0.0000
      9 N2         1.6312   -7.4359   14.7470 N.2       1 RES1    0.0000
     10 N3         0.5286   -6.8757   14.6621 N.2       1 RES1    0.0000
     11 C1         2.7102   -9.8441   11.5304 C.ar      1 RES1    0.0000
     12 C2         1.5575   -9.1478   11.4199 C.ar      1 RES1    0.0000
     13 C3         1.1542   -8.3278   12.4796 C.ar      1 RES1    0.0000
     14 C4         1.9329   -8.2837   13.6064 C.ar      1 RES1    0.0000
     15 C5         3.0926   -9.0092   13.6952 C.ar      1 RES1    0.0000
     16 C6         3.4755   -9.8057   12.6453 C.ar      1 RES1    0.0000
     17 C7         0.2524   -5.9853   15.7376 C.ar      1 RES1    0.0000
     18 C8        -0.9006   -5.2213   15.5699 C.ar      1 RES1    0.0000
     19 C9        -1.2506   -4.2643   16.4934 C.ar      1 RES1    0.0000
     20 C10       -0.4561   -4.0724   17.5965 C.ar      1 RES1    0.0000
     21 C11        0.6875   -4.8639   17.7879 C.ar      1 RES1    0.0000
     22 C12        1.0335   -5.8023   16.8585 C.ar      1 RES1    0.0000
     23 C13       -1.8449   -2.3004   18.4450 C.3       1 RES1    0.0000
     24 C14       -1.8062   -1.3395   19.5955 C.3       1 RES1    0.0000
     25 C15       -3.0162   -0.4245   19.6291 C.3       1 RES1    0.0000
     26 C16       -2.9796    0.5418   20.7993 C.3       1 RES1    0.0000
     27 C17       -4.2253    1.3950   20.9473 C.3       1 RES1    0.0000
     28 C18       -4.1558    2.3779   22.0879 C.3       1 RES1    0.0000
     29 C19       -5.3857    3.2476   22.2536 C.3       1 RES1    0.0000
     30 C20       -5.2515    4.2849   23.3370 C.3       1 RES1    0.0000
     31 C21       -6.4766    5.1822   23.4850 C.3       1 RES1    0.0000
     32 C22       -6.2715    6.2666   24.5270 C.3       1 RES1    0.0000
     33 C23       -7.4514    7.2257   24.6000 C.2       1 RES1    0.0000
     34 C24       -8.4143    8.9861   25.8531 C.3       1 RES1    0.0000
     35 C25       -8.0919    9.7403   27.0805 C.3       1 RES1    0.0000
     36 C26       -6.0371    5.6563   25.8945 C.2       1 RES1    0.0000
     37 C27       -4.5484    5.4811   27.7139 C.3       1 RES1    0.0000
     38 C28       -5.0529    6.2022   28.7263 C.3       1 RES1    0.0000
     39 C29       -3.7460    6.4035   28.4500 Du        2 SUP2    0.0000
@<TRIPOS>BOND
     1    1    8 2
     2    2    8 2
     3    3   20 1
     4    4   33 1
     5    5   33 2
     6    6   36 2
     7    7   36 1
     8    8   11 1
     9    9   10 2
    10   10   17 1
    11   11   12 ar
    12   12   13 ar
    13   13   14 ar
    14   14    9 1
    15   15   14 ar
    16   16   11 ar
    17   17   18 ar
    18   18   19 ar
    19   19   20 ar
    20   20   21 ar
    21   21   22 ar
    22   22   17 ar
    23   23    3 1
    24   24   23 1
    25   25   24 1
    26   26   25 1
    27   27   26 1
    28   28   27 1
    29   29   28 1
    30   30   29 1
    31   31   30 1
    32   32   31 1
    33   33   32 1
    34   34    4 1
    35   35   34 1
    36   36   32 1
    37   37    7 1
    38   38   37 1
    39   15   16 ar
@<TRIPOS>SUBSTRUCTURE
     1 RES1 1
     2 SUP2 39

@<TRIPOS>CRYSIN
   5.5200   13.6280   20.2200 100.0200  95.4900 101.0200   2 1

