# MOL2 file generated by ConQuest
# Please check atom types

@<TRIPOS>MOLECULE
JALKEP
    61    63     1
SMALL
USER_CHARGES
****
Generated from CSD

@<TRIPOS>ATOM
      1 O1        11.5729    9.2210   14.7034 O.3       1 RES1    0.0000
      2 O2         8.6946    5.6362    8.3178 O.2       1 RES1    0.0000
      3 O3         5.3692   -0.0647   10.3720 O.2       1 RES1    0.0000
      4 O4         5.9979   -1.1813   16.7576 O.2       1 RES1    0.0000
      5 O5         4.9027   -3.0194   16.4098 O.2       1 RES1    0.0000
      6 N1        10.9556    7.4059   12.5634 N.3       1 RES1    0.0000
      7 N2         9.1999    5.8422   10.4988 N.am      1 RES1    0.0000
      8 N3         6.9396    3.4380    8.8863 N.3       1 RES1    0.0000
      9 N4         6.4342    1.3551   11.7760 N.am      1 RES1    0.0000
     10 N5         4.9118   -1.9156   12.4906 N.3       1 RES1    0.0000
     11 N6         5.4349   -1.9760   16.0126 N.pl3     1 RES1    0.0000
     12 N7         4.4323    4.0836    5.5584 N.2       1 RES1    0.0000
     13 N8         4.2876    4.0676    4.3396 N.1       1 RES1    1.0000
     14 N9         4.0941    3.9581    3.2276 N.2       1 RES1   -1.0000
     15 C1        10.5174    9.4770   13.7865 C.3       1 RES1    0.0000
     16 H1        10.4060   10.4541   13.6792 H         1 RES1    0.0000
     17 H2         9.6722    9.1099   14.1482 H         1 RES1    0.0000
     18 C2        10.7950    8.8582   12.4454 C.3       1 RES1    0.0000
     19 H3        10.0465    9.0589   11.8284 H         1 RES1    0.0000
     20 H4        11.6188    9.2514   12.0647 H         1 RES1    0.0000
     21 C3        12.0232    7.1418   13.5392 C.3       1 RES1    0.0000
     22 H5        12.8852    7.4696   13.1790 H         1 RES1    0.0000
     23 H6        12.1031    6.1649   13.6816 H         1 RES1    0.0000
     24 C4        11.7471    7.8146   14.8534 C.3       1 RES1    0.0000
     25 H7        10.9290    7.4251   15.2530 H         1 RES1    0.0000
     26 H8        12.4996    7.6423   15.4725 H         1 RES1    0.0000
     27 C5        11.3184    6.8254   11.2713 C.3       1 RES1    0.0000
     28 H9        11.5957    5.8852   11.4133 H         1 RES1    0.0000
     29 H10       12.0988    7.3166   10.9119 H         1 RES1    0.0000
     30 C6        10.2144    6.8529   10.2412 C.3       1 RES1    0.0000
     31 H11        9.7910    7.7476   10.2426 H         1 RES1    0.0000
     32 H12       10.6042    6.7012    9.3430 H         1 RES1    0.0000
     33 C7         8.5332    5.2672    9.4898 C.2       1 RES1    0.0000
     34 C8         7.6701    4.1293    9.8349 C.2       1 RES1    0.0000
     35 C9         7.5584    3.4418   11.0295 C.2       1 RES1    0.0000
     36 H13        7.9566    3.6854   11.8572 H         1 RES1    0.0000
     37 C10        6.7487    2.3185   10.7962 C.2       1 RES1    0.0000
     38 C11        6.3745    2.3486    9.4707 C.2       1 RES1    0.0000
     39 H14        5.8146    1.7144    9.0383 H         1 RES1    0.0000
     40 C12        5.7686    0.2137   11.5019 C.2       1 RES1    0.0000
     41 C13        5.5365   -0.6869   12.6509 C.2       1 RES1    0.0000
     42 C14        5.8300   -0.5273   13.9834 C.2       1 RES1    0.0000
     43 H15        6.2618    0.2155   14.3881 H         1 RES1    0.0000
     44 C15        5.3658   -1.6784   14.6223 C.2       1 RES1    0.0000
     45 C16        4.8114   -2.5184   13.6877 C.2       1 RES1    0.0000
     46 H16        4.4274   -3.3712   13.8567 H         1 RES1    0.0000
     47 C17        4.5140   -2.5663   11.2332 C.3       1 RES1    0.0000
     48 H17        4.1114   -3.4386   11.4301 H         1 RES1    0.0000
     49 H18        5.3029   -2.6917   10.6660 H         1 RES1    0.0000
     50 H19        3.8621   -2.0040   10.7656 H         1 RES1    0.0000
     51 C18        6.6174    3.8253    7.5081 C.3       1 RES1    0.0000
     52 H20        6.2406    3.0438    7.0303 H         1 RES1    0.0000
     53 H21        7.4494    4.0935    7.0435 H         1 RES1    0.0000
     54 C19        5.6239    4.9707    7.4496 C.3       1 RES1    0.0000
     55 H22        4.8403    4.7483    8.0115 H         1 RES1    0.0000
     56 H23        6.0450    5.7832    7.8256 H         1 RES1    0.0000
     57 C20        5.1584    5.2609    6.0479 C.3       1 RES1    0.0000
     58 H24        4.5638    6.0530    6.0443 H         1 RES1    0.0000
     59 H25        5.9343    5.4492    5.4638 H         1 RES1    0.0000
     60 H26        8.9899    5.6894   11.2838 H         1 RES1    0.0000
     61 H27        6.6566    1.5581   12.6069 H         1 RES1    0.0000
@<TRIPOS>BOND
     1    1   15 1
     2    2   33 2
     3    3   40 2
     4    4   11 2
     5    5   11 2
     6    6   18 1
     7    7   30 1
     8    8   34 1
     9    9   37 1
    10   10   41 1
    11   11   44 1
    12   12   13 2
    13   13   14 2
    14   15   16 1
    15   17   15 1
    16   18   15 1
    17   19   18 1
    18   20   18 1
    19   21    6 1
    20   22   21 1
    21   23   21 1
    22   24    1 1
    23   25   24 1
    24   26   24 1
    25   27    6 1
    26   28   27 1
    27   29   27 1
    28   30   27 1
    29   31   30 1
    30   32   30 1
    31   33    7 1
    32   34   33 1
    33   35   34 2
    34   36   35 1
    35   37   35 1
    36   38    8 1
    37   39   38 1
    38   40    9 1
    39   41   40 1
    40   42   41 2
    41   43   42 1
    42   44   42 1
    43   45   10 1
    44   46   45 1
    45   47   10 1
    46   48   47 1
    47   49   47 1
    48   50   47 1
    49   51    8 1
    50   52   51 1
    51   53   51 1
    52   54   51 1
    53   55   54 1
    54   56   54 1
    55   57   12 1
    56   58   57 1
    57   59   57 1
    58   60    7 1
    59   61    9 1
    60   21   24 1
    61   37   38 2
    62   44   45 2
    63   54   57 1
@<TRIPOS>SUBSTRUCTURE
     1 RES1 1

@<TRIPOS>CRYSIN
  11.2809   16.4528   12.5130  90.0000 106.5420  90.0000  14 1

