# MOL2 file generated by ConQuest
# Please check atom types

@<TRIPOS>MOLECULE
JALRIA
    90    96     1
SMALL
NO_CHARGES
****
Generated from CSD

@<TRIPOS>ATOM
      1 O1        -0.3792   15.2789   30.3584 O.3       1 RES1    0.0000
      2 O2         3.3908   11.9689   31.1149 O.2       1 RES1    0.0000
      3 O3         1.0346    5.8544   23.8068 O.3       1 RES1    0.0000
      4 H1         0.3317    5.5855   24.1328 H         1 RES1    0.0000
      5 O4        -0.6013   15.1810   32.6072 O.2       1 RES1    0.0000
      6 O5        -0.2702   19.2876   29.9937 O.2       1 RES1    0.0000
      7 O6        -0.6173   21.2210   30.8229 O.2       1 RES1    0.0000
      8 N1         0.5444    4.3857   26.1518 N.3       1 RES1    0.0000
      9 N2        -0.2849   17.1656   31.4960 N.am      1 RES1    0.0000
     10 H2        -0.2100   17.4769   30.6996 H         1 RES1    0.0000
     11 C1        -0.6220   12.0039   28.5203 C.3       1 RES1    0.0000
     12 H3        -1.2092   11.4647   29.0740 H         1 RES1    0.0000
     13 H4        -0.8674   11.8549   27.5933 H         1 RES1    0.0000
     14 C2        -0.8387   13.5048   28.8648 C.3       1 RES1    0.0000
     15 H5        -0.3398   14.0543   28.2403 H         1 RES1    0.0000
     16 H6        -1.7790   13.7240   28.7714 H         1 RES1    0.0000
     17 C3        -0.3906   13.8161   30.2747 C.3       1 RES1    0.0000
     18 H7        -1.0112   13.4347   30.9314 H         1 RES1    0.0000
     19 C4         1.0219   13.3484   30.5354 C.3       1 RES1    0.0000
     20 H8         1.2466   13.5092   31.4657 H         1 RES1    0.0000
     21 H9         1.6366   13.8585   29.9882 H         1 RES1    0.0000
     22 C5         1.1824   11.8534   30.2248 C.3       1 RES1    0.0000
     23 H10        0.5096   11.3916   30.7672 H         1 RES1    0.0000
     24 C6         2.5006   11.2835   30.6304 C.2       1 RES1    0.0000
     25 C7         2.6919    9.7972   30.3777 C.3       1 RES1    0.0000
     26 H11        2.1201    9.2814   30.9700 H         1 RES1    0.0000
     27 H12        3.6135    9.5459   30.5451 H         1 RES1    0.0000
     28 C8         2.3247    9.5210   28.9127 C.3       1 RES1    0.0000
     29 H13        2.9494   10.0398   28.3626 H         1 RES1    0.0000
     30 C9         0.9370   10.0296   28.5905 C.3       1 RES1    0.0000
     31 H14        0.3377    9.6409   29.2607 H         1 RES1    0.0000
     32 C10        0.8126   11.5509   28.7318 C.3       1 RES1    0.0000
     33 C11        0.6360    9.3033   27.2727 C.3       1 RES1    0.0000
     34 H15        1.1704    9.6511   26.5407 H         1 RES1    0.0000
     35 H16       -0.3043    9.3573   27.0396 H         1 RES1    0.0000
     36 C12        1.0473    7.8769   27.6451 C.3       1 RES1    0.0000
     37 H17        0.4006    7.5788   28.3175 H         1 RES1    0.0000
     38 C13        2.3896    8.0509   28.3971 C.3       1 RES1    0.0000
     39 H18        2.4257    7.4341   29.1577 H         1 RES1    0.0000
     40 C14        3.5981    7.8302   27.4967 C.3       1 RES1    0.0000
     41 H19        3.6998    8.6003   26.9173 H         1 RES1    0.0000
     42 H20        4.3927    7.7717   28.0504 H         1 RES1    0.0000
     43 C15        3.5038    6.5821   26.6437 C.3       1 RES1    0.0000
     44 H21        3.4202    5.8018   27.2134 H         1 RES1    0.0000
     45 H22        4.3097    6.4872   26.1125 H         1 RES1    0.0000
     46 C16        2.2873    6.6815   25.7224 C.3       1 RES1    0.0000
     47 H23        2.3930    7.5101   25.2080 H         1 RES1    0.0000
     48 C17        0.9978    6.8277   26.5236 C.3       1 RES1    0.0000
     49 H24        0.2816    7.0790   25.9033 H         1 RES1    0.0000
     50 C18        0.6407    5.4700   27.1365 C.3       1 RES1    0.0000
     51 H25        1.3135    5.2377   27.7961 H         1 RES1    0.0000
     52 H26       -0.2087    5.5504   27.5997 H         1 RES1    0.0000
     53 C19        1.7563   12.2801   27.7574 C.3       1 RES1    0.0000
     54 H27        1.5436   12.0259   26.8561 H         1 RES1    0.0000
     55 H28        2.6652   12.0405   27.9506 H         1 RES1    0.0000
     56 H29        1.6473   13.2301   27.8540 H         1 RES1    0.0000
     57 C20        2.1228    5.5431   24.6929 C.3       1 RES1    0.0000
     58 C21        3.3708    5.4247   23.8142 C.3       1 RES1    0.0000
     59 H30        3.5941    6.2884   23.4601 H         1 RES1    0.0000
     60 H31        3.1982    4.8168   23.0931 H         1 RES1    0.0000
     61 H32        4.1031    5.0974   24.3421 H         1 RES1    0.0000
     62 C22        1.8078    4.2118   25.4108 C.3       1 RES1    0.0000
     63 H33        2.5274    4.0101   26.0449 H         1 RES1    0.0000
     64 C23        1.6600    3.0383   24.4290 C.3       1 RES1    0.0000
     65 H34        1.0126    3.2735   23.7433 H         1 RES1    0.0000
     66 H35        2.5107    2.8804   23.9912 H         1 RES1    0.0000
     67 C24        1.2092    1.7595   25.1275 C.3       1 RES1    0.0000
     68 H36        1.0453    1.0727   24.4644 H         1 RES1    0.0000
     69 H37        1.9188    1.4482   25.7102 H         1 RES1    0.0000
     70 C25       -0.0401    1.9729   25.9387 C.3       1 RES1    0.0000
     71 H38       -0.1752    1.1793   26.4956 H         1 RES1    0.0000
     72 C26        0.1578    3.1698   26.8658 C.3       1 RES1    0.0000
     73 H39       -0.6675    3.3349   27.3454 H         1 RES1    0.0000
     74 H40        0.8434    2.9535   27.5160 H         1 RES1    0.0000
     75 C27       -1.2808    2.1599   25.0889 C.3       1 RES1    0.0000
     76 H41       -1.3724    1.4161   24.4902 H         1 RES1    0.0000
     77 H42       -1.2032    2.9710   24.5835 H         1 RES1    0.0000
     78 H43       -2.0532    2.2096   25.6554 H         1 RES1    0.0000
     79 C28       -0.4320   15.7992   31.6074 C.2       1 RES1    0.0000
     80 C29       -0.2434   18.0994   32.5344 C.ar      1 RES1    0.0000
     81 C30       -0.2729   19.4702   32.2962 C.ar      1 RES1    0.0000
     82 C31       -0.1940   20.4143   33.3199 C.ar      1 RES1    0.0000
     83 H44       -0.2087   21.3233   33.1267 H         1 RES1    0.0000
     84 C32       -0.0950   19.9817   34.6139 C.ar      1 RES1    0.0000
     85 H45       -0.0268   20.5984   35.3092 H         1 RES1    0.0000
     86 C33       -0.0963   18.6241   34.8907 C.ar      1 RES1    0.0000
     87 H46       -0.0528   18.3376   35.7727 H         1 RES1    0.0000
     88 C34       -0.1612   17.6859   33.8735 C.ar      1 RES1    0.0000
     89 H47       -0.1498   16.7798   34.0796 H         1 RES1    0.0000
     90 N3        -0.3852   20.0212   30.9603 N.pl3     1 RES1    0.0000
@<TRIPOS>BOND
     1    1   17 1
     2    2   24 2
     3    3    4 1
     4    5   79 2
     5    6   90 2
     6    7   90 2
     7    8   50 1
     8    9   10 1
     9   11   12 1
    10   13   11 1
    11   14   11 1
    12   15   14 1
    13   16   14 1
    14   17   14 1
    15   18   17 1
    16   19   17 1
    17   20   19 1
    18   21   19 1
    19   22   19 1
    20   23   22 1
    21   24   22 1
    22   25   24 1
    23   26   25 1
    24   27   25 1
    25   28   25 1
    26   29   28 1
    27   30   28 1
    28   31   30 1
    29   32   11 1
    30   33   30 1
    31   34   33 1
    32   35   33 1
    33   36   33 1
    34   37   36 1
    35   38   28 1
    36   39   38 1
    37   40   38 1
    38   41   40 1
    39   42   40 1
    40   43   40 1
    41   44   43 1
    42   45   43 1
    43   46   43 1
    44   47   46 1
    45   48   36 1
    46   49   48 1
    47   50   48 1
    48   51   50 1
    49   52   50 1
    50   53   32 1
    51   54   53 1
    52   55   53 1
    53   56   53 1
    54   57    3 1
    55   58   57 1
    56   59   58 1
    57   60   58 1
    58   61   58 1
    59   62    8 1
    60   63   62 1
    61   64   62 1
    62   65   64 1
    63   66   64 1
    64   67   64 1
    65   68   67 1
    66   69   67 1
    67   70   67 1
    68   71   70 1
    69   72    8 1
    70   73   72 1
    71   74   72 1
    72   75   70 1
    73   76   75 1
    74   77   75 1
    75   78   75 1
    76   79    1 1
    77   80    9 1
    78   81   80 ar
    79   82   81 ar
    80   83   82 1
    81   84   82 ar
    82   85   84 1
    83   86   84 ar
    84   87   86 1
    85   88   80 ar
    86   89   88 1
    87   90   81 1
    88    9   79 1
    89   22   32 1
    90   30   32 1
    91   36   38 1
    92   46   48 1
    93   46   57 1
    94   57   62 1
    95   70   72 1
    96   86   88 ar
@<TRIPOS>SUBSTRUCTURE
     1 RES1 1

@<TRIPOS>CRYSIN
   6.6880   14.6140   32.1900  90.0000  90.0000  90.0000  19 1

