# MOL2 file generated by ConQuest
# Please check atom types

@<TRIPOS>MOLECULE
JANKEP
    50    51     1
SMALL
NO_CHARGES
****
Generated from CSD

@<TRIPOS>ATOM
      1 C1         4.5426    0.1001  -10.1610 C.ar      1 RES1    0.0000
      2 C2         5.7610   -0.1105   -9.5134 C.ar      1 RES1    0.0000
      3 C3         6.4707   -1.2803   -9.7292 C.ar      1 RES1    0.0000
      4 C4         5.9727   -2.2460  -10.5747 C.ar      1 RES1    0.0000
      5 C5         4.7443   -2.0458  -11.1965 C.ar      1 RES1    0.0000
      6 C6         4.0239   -0.8920  -10.9756 C.ar      1 RES1    0.0000
      7 C7         1.5430   -0.4684  -11.1840 C.2       1 RES1    0.0000
      8 C8         1.3652   -0.0376   -9.7552 C.3       1 RES1    0.0000
      9 C9         0.1424    0.8559   -9.5411 C.3       1 RES1    0.0000
     10 C10        0.0071    1.1386   -8.0502 C.3       1 RES1    0.0000
     11 C11        0.0186   -0.1505   -7.2420 C.3       1 RES1    0.0000
     12 C12        1.2307   -0.9921   -7.6056 C.3       1 RES1    0.0000
     13 C13       -0.5845    2.7352  -10.8252 C.2       1 RES1    0.0000
     14 C14       -0.1498    4.0163  -11.4541 C.3       1 RES1    0.0000
     15 C15       -1.2019    3.1484   -7.5906 C.2       1 RES1    0.0000
     16 C16       -2.5419    3.6656   -7.1825 C.3       1 RES1    0.0000
     17 C17       -0.1741   -0.6406   -4.9160 C.2       1 RES1    0.0000
     18 C18       -0.0257   -0.0472   -3.5550 C.3       1 RES1    0.0000
     19 N1         2.8030   -0.7350  -11.6898 N.pl3     1 RES1    0.0000
     20 N2         0.4767   -0.6422  -11.8637 N.2       1 RES1    0.0000
     21 O1         0.8037   -1.1874  -13.1347 O.3       1 RES1    0.0000
     22 O2         1.2120   -1.2443   -9.0097 O.3       1 RES1    0.0000
     23 O3         0.4391    2.0869  -10.2331 O.3       1 RES1    0.0000
     24 O4        -1.7068    2.3172  -10.7968 O.2       1 RES1    0.0000
     25 O5        -1.2453    1.8016   -7.7593 O.3       1 RES1    0.0000
     26 O6        -0.2196    3.8097   -7.7517 O.2       1 RES1    0.0000
     27 O7         0.0971    0.2778   -5.8655 O.3       1 RES1    0.0000
     28 O8        -0.4795   -1.7695   -5.1617 O.2       1 RES1    0.0000
     29 H1        -0.0403   -1.2571  -13.4429 H         1 RES1    0.0000
     30 H2         2.7535   -1.2171  -12.4466 H         1 RES1    0.0000
     31 H3         4.0482    0.9600  -10.0382 H         1 RES1    0.0000
     32 H4         6.1230    0.5845   -8.8924 H         1 RES1    0.0000
     33 H5         7.3478   -1.4228   -9.2693 H         1 RES1    0.0000
     34 H6         6.4908   -3.0851  -10.7405 H         1 RES1    0.0000
     35 H7         4.3794   -2.7472  -11.8097 H         1 RES1    0.0000
     36 H8         2.1867    0.4428   -9.4465 H         1 RES1    0.0000
     37 H9        -0.6847    0.4284   -9.9038 H         1 RES1    0.0000
     38 H10        0.7647    1.7207   -7.7542 H         1 RES1    0.0000
     39 H11       -0.8230   -0.6670   -7.3986 H         1 RES1    0.0000
     40 H12        2.0665   -0.4996   -7.3635 H         1 RES1    0.0000
     41 H13        1.2000   -1.8592   -7.1084 H         1 RES1    0.0000
     42 H14       -0.9361    4.4631  -11.8800 H         1 RES1    0.0000
     43 H15        0.5439    3.8281  -12.1501 H         1 RES1    0.0000
     44 H16        0.2361    4.6176  -10.7531 H         1 RES1    0.0000
     45 H17       -2.4939    4.6569   -7.0619 H         1 RES1    0.0000
     46 H18       -3.2129    3.4478   -7.8911 H         1 RES1    0.0000
     47 H19       -2.8154    3.2380   -6.3207 H         1 RES1    0.0000
     48 H20       -0.2300   -0.7414   -2.8645 H         1 RES1    0.0000
     49 H21       -0.6599    0.7190   -3.4550 H         1 RES1    0.0000
     50 H22        0.9123    0.2778   -3.4336 H         1 RES1    0.0000
@<TRIPOS>BOND
     1    1    2 ar
     2    2    3 ar
     3    3    4 ar
     4    4    5 ar
     5    5    6 ar
     6    6    1 ar
     7    7    8 1
     8    8    9 1
     9    9   10 1
    10   10   11 1
    11   11   12 1
    12   12   22 1
    13   13   14 1
    14   14   42 1
    15   15   16 1
    16   16   45 1
    17   17   18 1
    18   18   48 1
    19   19    6 1
    20   20    7 2
    21   21   20 1
    22   22    8 1
    23   23    9 1
    24   24   13 2
    25   25   10 1
    26   26   15 2
    27   27   11 1
    28   28   17 2
    29   29   21 1
    30   30   19 1
    31   31    1 1
    32   32    2 1
    33   33    3 1
    34   34    4 1
    35   35    5 1
    36   36    8 1
    37   37    9 1
    38   38   10 1
    39   39   11 1
    40   40   12 1
    41   41   12 1
    42   43   14 1
    43   44   14 1
    44   46   16 1
    45   47   16 1
    46   49   18 1
    47   50   18 1
    48    7   19 1
    49   13   23 1
    50   15   25 1
    51   17   27 1
@<TRIPOS>SUBSTRUCTURE
     1 RES1 1

@<TRIPOS>CRYSIN
   9.4400    8.0070   12.9320  90.0000 103.7110  90.0000   4 1

