# MOL2 file generated by ConQuest
# Please check atom types

@<TRIPOS>MOLECULE
JAPJOZ
   120   120     2
SMALL
NO_CHARGES
****
Generated from CSD

@<TRIPOS>ATOM
      1 C1         1.3981    8.9181    2.6053 C.2       1 RES1    0.0000
      2 C2         1.7997    9.5316    1.2791 C.3       1 RES1    0.0000
      3 C3         0.1996    8.9788    3.1309 C.2       1 RES1    0.0000
      4 C4        -1.0160    9.5679    2.4534 C.3       1 RES1    0.0000
      5 C5        -0.0847    8.4145    4.4997 C.3       1 RES1    0.0000
      6 C6         1.1486    8.1923    5.3473 C.3       1 RES1    0.0000
      7 C7         2.1578    7.4429    4.5392 C.3       1 RES1    0.0000
      8 N1         3.4652    7.1630    5.2653 N.pl3     1 RES1    0.0000
      9 O1         3.9775    8.0682    5.8942 O.2       1 RES1    0.0000
     10 O2         3.9177    6.0539    5.1468 O.2       1 RES1    0.0000
     11 C8         2.5659    8.2517    3.2844 C.3       1 RES1    0.0000
     12 C9         0.7151    7.5615    6.6918 C.3       1 RES1    0.0000
     13 O3         1.4962    6.4065    7.0882 O.3       1 RES1    0.0000
     14 C10        0.8741    5.2170    7.0320 C.2       1 RES1    0.0000
     15 O4        -0.2050    5.0840    6.6143 O.2       1 RES1    0.0000
     16 C11        1.7342    4.1363    7.6032 C.3       1 RES1    0.0000
     17 C12        0.7446    8.5599    7.8448 C.3       1 RES1    0.0000
     18 O5         2.1039    8.8673    8.2078 O.3       1 RES1    0.0000
     19 C13        2.5696   10.1112    7.9542 C.2       1 RES1    0.0000
     20 O6         1.9530   10.9323    7.3632 O.2       1 RES1    0.0000
     21 C14        3.9413   10.2726    8.5208 C.3       1 RES1    0.0000
     22 C15        0.1055    8.0311    9.1208 C.3       1 RES1    0.0000
     23 O7        -1.2397    7.6607    8.7411 O.3       1 RES1    0.0000
     24 C16       -1.7800    6.5870    9.3381 C.2       1 RES1    0.0000
     25 O8        -1.2719    6.0510   10.2647 O.2       1 RES1    0.0000
     26 C17       -3.0698    6.1959    8.6970 C.3       1 RES1    0.0000
     27 C18        0.0917    9.0223   10.2571 C.3       1 RES1    0.0000
     28 O9        -0.4145   10.2621    9.7558 O.3       1 RES1    0.0000
     29 C19       -0.0995   11.3727   10.4425 C.2       1 RES1    0.0000
     30 O10        0.5793   11.3378   11.4071 O.2       1 RES1    0.0000
     31 C20       -0.7040   12.5809    9.8409 C.3       1 RES1    0.0000
     32 C21        4.6041    2.7929    4.4115 C.2       2 RES2    0.0000
     33 C22        4.7289    2.1776    5.7894 C.3       2 RES2    0.0000
     34 C23        3.4763    2.8633    3.7279 C.2       2 RES2    0.0000
     35 C24        2.1439    2.3482    4.2004 C.3       2 RES2    0.0000
     36 C25        3.4178    3.4732    2.3683 C.3       2 RES2    0.0000
     37 C26        4.7655    3.6625    1.6619 C.3       2 RES2    0.0000
     38 C27        5.7495    4.2411    2.6843 C.3       2 RES2    0.0000
     39 N2         7.1818    4.3704    2.1435 N.pl3     2 RES2    0.0000
     40 O11        7.6429    3.4054    1.5495 O.2       2 RES2    0.0000
     41 O12        7.7516    5.4205    2.3562 O.2       2 RES2    0.0000
     42 C28        5.8866    3.3342    3.9057 C.3       2 RES2    0.0000
     43 C29        4.5880    4.5461    0.4132 C.3       2 RES2    0.0000
     44 O13        5.8704    4.9180   -0.1337 O.3       2 RES2    0.0000
     45 C30        6.1704    6.2458   -0.1534 C.2       2 RES2    0.0000
     46 O14        5.4448    7.0920    0.2674 O.2       2 RES2    0.0000
     47 C31        7.5251    6.4326   -0.7611 C.3       2 RES2    0.0000
     48 C32        3.7924    3.8429   -0.6958 C.3       2 RES2    0.0000
     49 O15        4.4430    2.5867   -1.0102 O.3       2 RES2    0.0000
     50 C33        3.7215    1.4325   -0.8370 C.2       2 RES2    0.0000
     51 O16        2.6601    1.3969   -0.3357 O.2       2 RES2    0.0000
     52 C34        4.5099    0.2693   -1.3156 C.3       2 RES2    0.0000
     53 C35        3.7737    4.6216   -2.0022 C.3       2 RES2    0.0000
     54 O17        3.1887    5.9135   -1.7136 O.3       2 RES2    0.0000
     55 C36        3.6631    6.9424   -2.4473 C.2       2 RES2    0.0000
     56 O18        4.5160    6.8403   -3.2585 O.2       2 RES2    0.0000
     57 C37        2.9818    8.2073   -2.0888 C.3       2 RES2    0.0000
     58 C38        3.0410    3.9190   -3.1233 C.3       2 RES2    0.0000
     59 O19        1.7207    3.5575   -2.6448 O.3       2 RES2    0.0000
     60 C39        1.2490    2.3706   -3.0565 C.2       2 RES2    0.0000
     61 O20        1.8109    1.6872   -3.8479 O.2       2 RES2    0.0000
     62 C40       -0.0328    2.0371   -2.3653 C.3       2 RES2    0.0000
     63 H1         1.0343    9.9698    0.8963 H         1 RES1    0.0000
     64 H2         2.0768    8.8162    0.6988 H         1 RES1    0.0000
     65 H3         2.5179   10.1651    1.3824 H         1 RES1    0.0000
     66 H4        -1.7625    9.5418    3.0686 H         1 RES1    0.0000
     67 H5        -1.2151    9.0376    1.6710 H         1 RES1    0.0000
     68 H6        -0.8512   10.4730    2.1875 H         1 RES1    0.0000
     69 H7        -0.6577    9.0302    4.9675 H         1 RES1    0.0000
     70 H8        -0.5357    7.5729    4.3903 H         1 RES1    0.0000
     71 H9         1.5998    9.0036    5.5904 H         1 RES1    0.0000
     72 H10        1.7161    6.6154    4.3295 H         1 RES1    0.0000
     73 H11        2.9841    7.6596    2.6585 H         1 RES1    0.0000
     74 H12        3.1904    8.9310    3.5548 H         1 RES1    0.0000
     75 H13       -0.1839    7.2753    6.5171 H         1 RES1    0.0000
     76 H14        1.2809    3.2997    7.5045 H         1 RES1    0.0000
     77 H15        1.9027    4.3094    8.5375 H         1 RES1    0.0000
     78 H16        2.5674    4.1007    7.1247 H         1 RES1    0.0000
     79 H17        0.2564    9.3239    7.5197 H         1 RES1    0.0000
     80 H18        4.2324   11.1555    8.2792 H         1 RES1    0.0000
     81 H19        4.5246    9.6228    8.1273 H         1 RES1    0.0000
     82 H20        3.9719   10.1877    9.4794 H         1 RES1    0.0000
     83 H21        0.6163    7.2985    9.4642 H         1 RES1    0.0000
     84 H22       -3.4661    5.5249    9.2515 H         1 RES1    0.0000
     85 H23       -2.9453    5.8377    7.8083 H         1 RES1    0.0000
     86 H24       -3.6502    6.9608    8.6590 H         1 RES1    0.0000
     87 H25        0.9846    9.1422   10.5883 H         1 RES1    0.0000
     88 H26       -0.4803    8.6995   10.9681 H         1 RES1    0.0000
     89 H27       -0.4656   13.3570   10.3604 H         1 RES1    0.0000
     90 H28       -1.6606   12.4959    9.8288 H         1 RES1    0.0000
     91 H29       -0.3745   12.6806    8.9477 H         1 RES1    0.0000
     92 H30        3.9202    1.7963    6.1373 H         2 RES2    0.0000
     93 H31        5.0234    2.8862    6.3651 H         2 RES2    0.0000
     94 H32        5.4093    1.4995    5.7423 H         2 RES2    0.0000
     95 H33        2.2029    1.9879    5.0891 H         2 RES2    0.0000
     96 H34        1.8032    1.6747    3.6003 H         2 RES2    0.0000
     97 H35        1.5549    3.1081    4.2080 H         2 RES2    0.0000
     98 H36        2.8729    2.9070    1.8230 H         2 RES2    0.0000
     99 H37        3.0057    4.3334    2.4458 H         2 RES2    0.0000
    100 H38        5.1247    2.8311    1.3368 H         2 RES2    0.0000
    101 H39        5.3782    5.1000    2.9015 H         2 RES2    0.0000
    102 H40        6.3006    3.8458    4.6181 H         2 RES2    0.0000
    103 H41        6.4573    2.5953    3.6763 H         2 RES2    0.0000
    104 H42        4.1048    5.3259    0.7140 H         2 RES2    0.0000
    105 H43        7.6929    7.3724   -0.8203 H         2 RES2    0.0000
    106 H44        7.5616    6.0463   -1.6407 H         2 RES2    0.0000
    107 H45        8.1891    6.0221   -0.1975 H         2 RES2    0.0000
    108 H46        2.9010    3.7499   -0.3646 H         2 RES2    0.0000
    109 H47        4.0711   -0.5539   -1.0938 H         2 RES2    0.0000
    110 H48        5.3525    0.3171   -0.8659 H         2 RES2    0.0000
    111 H49        4.6571    0.3005   -2.2635 H         2 RES2    0.0000
    112 H50        4.6754    4.7074   -2.3243 H         2 RES2    0.0000
    113 H51        3.2573    8.8823   -2.7040 H         2 RES2    0.0000
    114 H52        3.2387    8.4620   -1.2001 H         2 RES2    0.0000
    115 H53        2.0269    8.1003   -2.1268 H         2 RES2    0.0000
    116 H54        3.5239    3.1245   -3.3877 H         2 RES2    0.0000
    117 H55        2.9646    4.5116   -3.8738 H         2 RES2    0.0000
    118 H56       -0.3926    1.2537   -2.7800 H         2 RES2    0.0000
    119 H57       -0.6342    2.7706   -2.5066 H         2 RES2    0.0000
    120 H58        0.0660    1.8784   -1.4280 H         2 RES2    0.0000
@<TRIPOS>BOND
     1    1    2 1
     2    2   63 1
     3    3    1 2
     4    4    3 1
     5    5    3 1
     6    6    5 1
     7    7    6 1
     8    8    7 1
     9    9    8 2
    10   10    8 2
    11   11    1 1
    12   12    6 1
    13   13   12 1
    14   14   13 1
    15   15   14 2
    16   16   14 1
    17   17   12 1
    18   18   17 1
    19   19   18 1
    20   20   19 2
    21   21   19 1
    22   22   17 1
    23   23   22 1
    24   24   23 1
    25   25   24 2
    26   26   24 1
    27   27   22 1
    28   28   27 1
    29   29   28 1
    30   30   29 2
    31   31   29 1
    32   32   33 1
    33   33   92 1
    34   34   32 2
    35   35   34 1
    36   36   34 1
    37   37   36 1
    38   38   37 1
    39   39   38 1
    40   40   39 2
    41   41   39 2
    42   42   32 1
    43   43   37 1
    44   44   43 1
    45   45   44 1
    46   46   45 2
    47   47   45 1
    48   48   43 1
    49   49   48 1
    50   50   49 1
    51   51   50 2
    52   52   50 1
    53   53   48 1
    54   54   53 1
    55   55   54 1
    56   56   55 2
    57   57   55 1
    58   58   53 1
    59   59   58 1
    60   60   59 1
    61   61   60 2
    62   62   60 1
    63   64    2 1
    64   65    2 1
    65   66    4 1
    66   67    4 1
    67   68    4 1
    68   69    5 1
    69   70    5 1
    70   71    6 1
    71   72    7 1
    72   73   11 1
    73   74   11 1
    74   75   12 1
    75   76   16 1
    76   77   16 1
    77   78   16 1
    78   79   17 1
    79   80   21 1
    80   81   21 1
    81   82   21 1
    82   83   22 1
    83   84   26 1
    84   85   26 1
    85   86   26 1
    86   87   27 1
    87   88   27 1
    88   89   31 1
    89   90   31 1
    90   91   31 1
    91   93   33 1
    92   94   33 1
    93   95   35 1
    94   96   35 1
    95   97   35 1
    96   98   36 1
    97   99   36 1
    98  100   37 1
    99  101   38 1
   100  102   42 1
   101  103   42 1
   102  104   43 1
   103  105   47 1
   104  106   47 1
   105  107   47 1
   106  108   48 1
   107  109   52 1
   108  110   52 1
   109  111   52 1
   110  112   53 1
   111  113   57 1
   112  114   57 1
   113  115   57 1
   114  116   58 1
   115  117   58 1
   116  118   62 1
   117  119   62 1
   118  120   62 1
   119    7   11 1
   120   38   42 1
@<TRIPOS>SUBSTRUCTURE
     1 RES1 1
     2 RES2 32

@<TRIPOS>CRYSIN
   7.6460   10.0850   15.4900  78.7300  88.3100  80.7000   1 1

