# MOL2 file generated by ConQuest
# Please check atom types

@<TRIPOS>MOLECULE
JAPKIU
    44    44     2
SMALL
NO_CHARGES
****
Generated from CSD

@<TRIPOS>ATOM
      1 C1         7.9245    3.5664    4.1845 C.ar      1 RES1    0.0000
      2 N1         8.7496    3.7900    5.2051 N.3       1 RES1    0.0000
      3 N2        10.0383    4.3039    4.9503 N.3       1 RES1    0.0000
      4 C2         6.8155    2.6604    4.2299 C.ar      1 RES1    0.0000
      5 N3         6.4643    1.9710    5.4585 N.pl3     1 RES1    0.0000
      6 O1         6.9585    2.3574    6.5205 O.2       1 RES1    0.0000
      7 O2         5.6786    1.0316    5.4007 O.2       1 RES1    0.0000
      8 C3         6.0569    2.3583    3.1253 C.ar      1 RES1    0.0000
      9 C4         6.3490    2.9487    1.9256 C.ar      1 RES1    0.0000
     10 N4         5.5315    2.6486    0.7672 N.pl3     1 RES1    0.0000
     11 O3         5.9113    3.0771   -0.3306 O.2       1 RES1    0.0000
     12 O4         4.5165    1.9808    0.9173 O.2       1 RES1    0.0000
     13 C5         7.3800    3.8714    1.8126 C.ar      1 RES1    0.0000
     14 C6         8.1096    4.1921    2.9214 C.ar      1 RES1    0.0000
     15 N5         9.0019    5.3531    2.7713 N.pl3     1 RES1    0.0000
     16 O5         8.8281    6.2974    3.5233 O.2       1 RES1    0.0000
     17 O6         9.8060    5.3453    1.8512 O.2       1 RES1    0.0000
     18 C7         6.7011    3.5086   11.4143 C.ar      2 RES2    0.0000
     19 N6         7.4147    3.8175   12.4997 N.3       2 RES2    0.0000
     20 N7         8.0844    5.0579   12.5878 N.3       2 RES2    0.0000
     21 C8         5.7981    2.4044   11.3427 C.ar      2 RES2    0.0000
     22 N8         5.6843    1.4523   12.4294 N.pl3     2 RES2    0.0000
     23 O7         6.3829    1.6209   13.4349 O.2       2 RES2    0.0000
     24 O8         4.8903    0.5276   12.3289 O.2       2 RES2    0.0000
     25 C9         4.9852    2.1799   10.2477 C.ar      2 RES2    0.0000
     26 C10        5.0314    3.0399    9.1843 C.ar      2 RES2    0.0000
     27 N9         4.1393    2.8369    8.0507 N.pl3     2 RES2    0.0000
     28 O9         4.1313    3.6880    7.1734 O.2       2 RES2    0.0000
     29 O10        3.4392    1.8308    8.0411 O.2       2 RES2    0.0000
     30 C11        5.9209    4.0920    9.1526 C.ar      2 RES2    0.0000
     31 C12        6.7486    4.2872   10.2187 C.ar      2 RES2    0.0000
     32 N10        7.8408    5.2403    9.9777 N.pl3     2 RES2    0.0000
     33 O11        8.9797    4.8020   10.0410 O.2       2 RES2    0.0000
     34 O12        7.5518    6.3729    9.6347 O.2       2 RES2    0.0000
     35 H1         8.5732    3.3762    5.9268 H         1 RES1    0.0000
     36 H2        10.1132    5.0315    5.5357 H         1 RES1    0.0000
     37 H3        10.6071    3.6478    5.2877 H         1 RES1    0.0000
     38 H4         5.3434    1.7357    3.1886 H         1 RES1    0.0000
     39 H5         7.5545    4.3382    0.9834 H         1 RES1    0.0000
     40 H6         7.4945    3.1968   13.1319 H         2 RES2    0.0000
     41 H7         7.9392    5.3786   13.3743 H         2 RES2    0.0000
     42 H8         8.9805    4.8834   12.4831 H         2 RES2    0.0000
     43 H9         4.4082    1.4807   10.2201 H         2 RES2    0.0000
     44 H10        6.0272    4.6706    8.4020 H         2 RES2    0.0000
@<TRIPOS>BOND
     1    1    2 1
     2    2    3 1
     3    3   36 1
     4    4    1 ar
     5    5    4 1
     6    6    5 2
     7    7    5 2
     8    8    4 ar
     9    9    8 ar
    10   10    9 1
    11   11   10 2
    12   12   10 2
    13   13    9 ar
    14   14    1 ar
    15   15   14 1
    16   16   15 2
    17   17   15 2
    18   18   19 1
    19   19   20 1
    20   20   41 1
    21   21   18 ar
    22   22   21 1
    23   23   22 2
    24   24   22 2
    25   25   21 ar
    26   26   25 ar
    27   27   26 1
    28   28   27 2
    29   29   27 2
    30   30   26 ar
    31   31   18 ar
    32   32   31 1
    33   33   32 2
    34   34   32 2
    35   35    2 1
    36   37    3 1
    37   38    8 1
    38   39   13 1
    39   40   19 1
    40   42   20 1
    41   43   25 1
    42   44   30 1
    43   13   14 ar
    44   30   31 ar
@<TRIPOS>SUBSTRUCTURE
     1 RES1 1
     2 RES2 18

@<TRIPOS>CRYSIN
  13.4720    9.8060   14.0020  90.0000 100.3600  90.0000 231 1

