# MOL2 file generated by ConQuest
# Please check atom types

@<TRIPOS>MOLECULE
JAPSEB
    90    92     2
SMALL
NO_CHARGES
****
Generated from CSD

@<TRIPOS>ATOM
      1 O1         1.7760   11.5111   11.9214 O.3       1 RES1    0.0000
      2 O2         4.3259    8.6618   11.4006 O.3       1 RES1    0.0000
      3 H1         4.6501    7.9991   10.9983 H         1 RES1    0.0000
      4 O3         1.2304    7.4540    9.0904 O.2       1 RES1    0.0000
      5 O4         2.9631    6.8031   12.7795 O.2       1 RES1    0.0000
      6 O5         1.0089    7.8352   12.2104 O.3       1 RES1    0.0000
      7 N1         2.9250    8.5844   11.3766 N.am      1 RES1    0.0000
      8 N2         3.6708    8.1585    6.5719 N.2       1 RES1    0.0000
      9 N3         2.5304    6.2673    6.8303 N.3       1 RES1    0.0000
     10 C1         2.2461   12.7731   12.1959 C.2       1 RES1    0.0000
     11 H2         1.8481   13.3800   12.8084 H         1 RES1    0.0000
     12 C2         3.3475   13.0210   11.4734 C.2       1 RES1    0.0000
     13 H3         3.8719   13.8122   11.4910 H         1 RES1    0.0000
     14 C3         3.5792   11.8596   10.6705 C.2       1 RES1    0.0000
     15 H4         4.2792   11.7373   10.0409 H         1 RES1    0.0000
     16 C4         2.6178   10.9779   10.9773 C.2       1 RES1    0.0000
     17 C5         2.2826    9.5929   10.5339 C.3       1 RES1    0.0000
     18 H5         1.2932    9.4766   10.6179 H         1 RES1    0.0000
     19 C6         2.6585    9.3773    9.0626 C.3       1 RES1    0.0000
     20 H6         2.2741   10.1073    8.5168 H         1 RES1    0.0000
     21 H7         3.6437    9.4115    8.9687 H         1 RES1    0.0000
     22 C7         2.1528    8.0445    8.5466 C.2       1 RES1    0.0000
     23 C8         2.7807    7.5071    7.3261 C.2       1 RES1    0.0000
     24 C9         3.9721    7.3033    5.5502 C.2       1 RES1    0.0000
     25 H8         4.5728    7.4939    4.8405 H         1 RES1    0.0000
     26 C10        3.2813    6.1356    5.7006 C.2       1 RES1    0.0000
     27 H9         3.3178    5.3777    5.1290 H         1 RES1    0.0000
     28 C11        1.6530    5.2297    7.3669 C.3       1 RES1    0.0000
     29 H10        1.8091    4.3896    6.8880 H         1 RES1    0.0000
     30 H11        0.7179    5.5017    7.2530 H         1 RES1    0.0000
     31 H12        1.8422    5.1029    8.3202 H         1 RES1    0.0000
     32 C12        2.3513    7.6621   12.1818 C.2       1 RES1    0.0000
     33 C13        0.1315    6.7218   12.6465 C.3       1 RES1    0.0000
     34 C14        0.4014    5.4826   11.8216 C.3       1 RES1    0.0000
     35 H13        0.3488    5.7050   10.8681 H         1 RES1    0.0000
     36 H14       -0.2664    4.7963   12.0322 H         1 RES1    0.0000
     37 H15        1.2966    5.1410   12.0271 H         1 RES1    0.0000
     38 C15       -1.2567    7.2731   12.3598 C.3       1 RES1    0.0000
     39 H16       -1.3891    8.1024   12.8645 H         1 RES1    0.0000
     40 H17       -1.9321    6.6153   12.6296 H         1 RES1    0.0000
     41 H18       -1.3441    7.4558   11.4017 H         1 RES1    0.0000
     42 C16        0.2961    6.4740   14.1372 C.3       1 RES1    0.0000
     43 H19        1.1727    6.0704   14.3070 H         1 RES1    0.0000
     44 H20       -0.4082    5.8671   14.4474 H         1 RES1    0.0000
     45 H21        0.2300    7.3255   14.6184 H         1 RES1    0.0000
     46 O6         8.5551   11.5336    7.6087 O.3       2 RES2    0.0000
     47 O7         5.2322   10.3340    6.9495 O.3       2 RES2    0.0000
     48 H22        4.6017    9.7832    6.8752 H         2 RES2    0.0000
     49 O8         7.0837    6.7297    6.8961 O.2       2 RES2    0.0000
     50 O9         5.7650    9.9441    4.3677 O.2       2 RES2    0.0000
     51 O10        7.8788    9.2697    4.9176 O.3       2 RES2    0.0000
     52 N4         4.9784    6.4841    9.7828 N.2       2 RES2    0.0000
     53 N5         5.3908    4.8619    8.3156 N.3       2 RES2    0.0000
     54 N6         6.4252    9.7371    6.5270 N.am      2 RES2    0.0000
     55 C17        8.7630   12.6286    8.4136 C.2       2 RES2    0.0000
     56 H23        9.2619   13.3975    8.1619 H         2 RES2    0.0000
     57 C18        8.1664   12.4634    9.6010 C.2       2 RES2    0.0000
     58 H24        8.1673   13.0702   10.3294 H         2 RES2    0.0000
     59 C19        7.5232   11.1749    9.5479 C.2       2 RES2    0.0000
     60 H25        7.0184   10.7650   10.2400 H         2 RES2    0.0000
     61 C20        7.7761   10.6638    8.3235 C.2       2 RES2    0.0000
     62 C21        7.3722    9.4281    7.6066 C.3       2 RES2    0.0000
     63 H26        8.1902    9.0206    7.1994 H         2 RES2    0.0000
     64 C22        6.7621    8.4161    8.5663 C.3       2 RES2    0.0000
     65 H27        7.3629    8.3073    9.3465 H         2 RES2    0.0000
     66 H28        5.8974    8.7680    8.8972 H         2 RES2    0.0000
     67 C23        6.5304    7.0635    7.9309 C.2       2 RES2    0.0000
     68 C24        5.6412    6.1562    8.6641 C.2       2 RES2    0.0000
     69 C25        4.3013    5.3592   10.1463 C.2       2 RES2    0.0000
     70 H29        3.7396    5.2856   10.9089 H         2 RES2    0.0000
     71 C26        4.5465    4.3499    9.2556 C.2       2 RES2    0.0000
     72 H30        4.1969    3.4665    9.2852 H         2 RES2    0.0000
     73 C27        5.9135    4.1033    7.1793 C.3       2 RES2    0.0000
     74 H31        5.6895    4.5675    6.3467 H         2 RES2    0.0000
     75 H32        5.5130    3.2092    7.1713 H         2 RES2    0.0000
     76 H33        6.8868    4.0242    7.2582 H         2 RES2    0.0000
     77 C28        6.6246    9.6807    5.1831 C.2       2 RES2    0.0000
     78 C29        8.3115    9.0669    3.5150 C.3       2 RES2    0.0000
     79 C30        8.3735   10.4060    2.8088 C.3       2 RES2    0.0000
     80 H34        7.4740   10.7920    2.7649 H         2 RES2    0.0000
     81 H35        8.7205   10.2805    1.9020 H         2 RES2    0.0000
     82 H36        8.9649   11.0097    3.3036 H         2 RES2    0.0000
     83 C31        9.6989    8.4694    3.7059 C.3       2 RES2    0.0000
     84 H37       10.2590    9.0969    4.2073 H         2 RES2    0.0000
     85 H38       10.1045    8.2978    2.8313 H         2 RES2    0.0000
     86 H39        9.6268    7.6273    4.2022 H         2 RES2    0.0000
     87 C32        7.4095    8.0674    2.7986 C.3       2 RES2    0.0000
     88 H40        7.3442    7.2476    3.3291 H         2 RES2    0.0000
     89 H41        7.7880    7.8577    1.9198 H         2 RES2    0.0000
     90 H42        6.5169    8.4551    2.6857 H         2 RES2    0.0000
@<TRIPOS>BOND
     1    1   10 1
     2    2    3 1
     3    4   22 2
     4    5   32 2
     5    6   32 1
     6    7    2 1
     7    8   23 2
     8    9   23 1
     9   10   11 1
    10   12   10 2
    11   13   12 1
    12   14   12 1
    13   15   14 1
    14   16    1 1
    15   17    7 1
    16   18   17 1
    17   19   17 1
    18   20   19 1
    19   21   19 1
    20   22   19 1
    21   23   22 1
    22   24    8 1
    23   25   24 1
    24   26    9 1
    25   27   26 1
    26   28    9 1
    27   29   28 1
    28   30   28 1
    29   31   28 1
    30   32    7 1
    31   33    6 1
    32   34   33 1
    33   35   34 1
    34   36   34 1
    35   37   34 1
    36   38   33 1
    37   39   38 1
    38   40   38 1
    39   41   38 1
    40   42   33 1
    41   43   42 1
    42   44   42 1
    43   45   42 1
    44   46   55 1
    45   47   48 1
    46   49   67 2
    47   50   77 2
    48   51   77 1
    49   52   68 2
    50   53   68 1
    51   54   47 1
    52   55   56 1
    53   57   55 2
    54   58   57 1
    55   59   57 1
    56   60   59 1
    57   61   46 1
    58   62   54 1
    59   63   62 1
    60   64   62 1
    61   65   64 1
    62   66   64 1
    63   67   64 1
    64   68   67 1
    65   69   52 1
    66   70   69 1
    67   71   53 1
    68   72   71 1
    69   73   53 1
    70   74   73 1
    71   75   73 1
    72   76   73 1
    73   77   54 1
    74   78   51 1
    75   79   78 1
    76   80   79 1
    77   81   79 1
    78   82   79 1
    79   83   78 1
    80   84   83 1
    81   85   83 1
    82   86   83 1
    83   87   78 1
    84   88   87 1
    85   89   87 1
    86   90   87 1
    87   14   16 2
    88   16   17 1
    89   24   26 2
    90   59   61 2
    91   61   62 1
    92   69   71 2
@<TRIPOS>SUBSTRUCTURE
     1 RES1 1
     2 RES2 46

@<TRIPOS>CRYSIN
   8.4855   15.8870   25.5299  90.0000  90.0000  90.0000  19 1

