# MOL2 file generated by ConQuest
# Please check atom types

@<TRIPOS>MOLECULE
JAPWON
    43    45     1
SMALL
NO_CHARGES
****
Generated from CSD

@<TRIPOS>ATOM
      1 O1         1.9832    0.7416   10.0731 O.3       1 RES1    0.0000
      2 O2         0.7099   -1.1068    9.4920 O.3       1 RES1    0.0000
      3 O3         0.7078    0.7270    8.2261 O.3       1 RES1    0.0000
      4 O4         0.5841   -4.0302    9.1722 O.3       1 RES1    0.0000
      5 O5         1.9189    1.0341   13.0330 O.3       1 RES1    0.0000
      6 C1         1.5177   -0.0545    9.0441 C.3       1 RES1    0.0000
      7 C2         1.4977    1.9148   12.0871 C.2       1 RES1    0.0000
      8 O6         4.2672    1.1514    8.2271 O.2       1 RES1    0.0000
      9 O7         0.0613    1.7067    5.5057 O.3       1 RES1    0.0000
     10 C3        -0.0346    0.0179    7.2005 C.3       1 RES1    0.0000
     11 H1         0.5734   -0.5241    6.6736 H         1 RES1    0.0000
     12 H2        -0.6835   -0.5720    7.6153 H         1 RES1    0.0000
     13 N1         3.4820    0.4805    7.6059 N.pl3     1 RES1    0.0000
     14 C4         0.9305    1.3741   10.8678 C.3       1 RES1    0.0000
     15 H3         0.5166    2.0861   10.3556 H         1 RES1    0.0000
     16 H4         0.2478    0.7201   11.0857 H         1 RES1    0.0000
     17 C5         2.7576   -0.5948    8.3192 C.3       1 RES1    0.0000
     18 H5         3.3515   -1.0080    8.9645 H         1 RES1    0.0000
     19 H6         2.4863   -1.2744    7.6824 H         1 RES1    0.0000
     20 C6         1.6474   -3.3297    9.6600 C.2       1 RES1    0.0000
     21 C7        -0.7167    0.9646    6.3374 C.2       1 RES1    0.0000
     22 C8         1.3103   -2.0857   10.3744 C.3       1 RES1    0.0000
     23 H7         0.6933   -2.2868   11.0962 H         1 RES1    0.0000
     24 H8         2.1154   -1.7119   10.7651 H         1 RES1    0.0000
     25 O8         3.2481    0.6172    6.4432 O.2       1 RES1    0.0000
     26 C9         2.4269   -5.1186    8.6461 C.2       1 RES1    0.0000
     27 H9         3.0096   -5.7556    8.3035 H         1 RES1    0.0000
     28 C10        2.7723   -3.9651    9.3573 C.2       1 RES1    0.0000
     29 H10        3.6336   -3.6933    9.5783 H         1 RES1    0.0000
     30 C11        1.1036   -5.1248    8.5570 C.2       1 RES1    0.0000
     31 H11        0.6025   -5.7838    8.1328 H         1 RES1    0.0000
     32 C12        1.6386    3.1677   12.5407 C.2       1 RES1    0.0000
     33 H12        1.4156    3.9459   12.0829 H         1 RES1    0.0000
     34 C13        2.1848    3.0927   13.8343 C.2       1 RES1    0.0000
     35 H13        2.4028    3.8041   14.3916 H         1 RES1    0.0000
     36 C14       -2.0061    1.2603    6.1132 C.2       1 RES1    0.0000
     37 H14       -2.7575    0.9082    6.5333 H         1 RES1    0.0000
     38 C15       -0.7250    2.4638    4.7672 C.2       1 RES1    0.0000
     39 H15       -0.4200    3.0628    4.1251 H         1 RES1    0.0000
     40 C16       -1.9488    2.2770    5.0385 C.2       1 RES1    0.0000
     41 H16       -2.6746    2.6996    4.6383 H         1 RES1    0.0000
     42 C17        2.3259    1.8107   14.0972 C.2       1 RES1    0.0000
     43 H17        2.6567    1.4726   14.8975 H         1 RES1    0.0000
@<TRIPOS>BOND
     1    1    6 1
     2    2    6 1
     3    3    6 1
     4    4   20 1
     5    5    7 1
     6    6   17 1
     7    7   14 1
     8    8   13 2
     9    9   21 1
    10   10    3 1
    11   11   10 1
    12   12   10 1
    13   13   17 1
    14   14    1 1
    15   15   14 1
    16   16   14 1
    17   17   18 1
    18   19   17 1
    19   20   22 1
    20   21   10 1
    21   22    2 1
    22   23   22 1
    23   24   22 1
    24   25   13 2
    25   26   27 1
    26   28   20 2
    27   29   28 1
    28   30    4 1
    29   31   30 1
    30   32    7 2
    31   33   32 1
    32   34   32 1
    33   35   34 1
    34   36   21 2
    35   37   36 1
    36   38    9 1
    37   39   38 1
    38   40   36 1
    39   41   40 1
    40   42    5 1
    41   43   42 1
    42   26   28 1
    43   26   30 2
    44   34   42 2
    45   38   40 2
@<TRIPOS>SUBSTRUCTURE
     1 RES1 1

@<TRIPOS>CRYSIN
   9.1690    9.7020   10.5230  92.4430  93.6160 112.0890   2 1

