# MOL2 file generated by ConQuest
# Please check atom types

@<TRIPOS>MOLECULE
JAPXOQ
    37    39     1
SMALL
NO_CHARGES
****
Generated from CSD

@<TRIPOS>ATOM
      1 C1         4.2643   -1.1277   11.6517 C.ar      1 RES1    0.0000
      2 C2         2.9860   -1.6520   11.7909 C.ar      1 RES1    0.0000
      3 H1         2.2624   -1.0832   11.9223 H         1 RES1    0.0000
      4 C3         2.7876   -3.0127   11.7359 C.ar      1 RES1    0.0000
      5 H2         1.9275   -3.3539   11.8211 H         1 RES1    0.0000
      6 C4         3.8433   -3.8722   11.5575 C.ar      1 RES1    0.0000
      7 H3         3.6998   -4.7911   11.5175 H         1 RES1    0.0000
      8 C5         5.1133   -3.3622   11.4376 C.ar      1 RES1    0.0000
      9 H4         5.8336   -3.9394   11.3271 H         1 RES1    0.0000
     10 C6         5.3298   -1.9973   11.4800 C.ar      1 RES1    0.0000
     11 H5         6.1932   -1.6621   11.3937 H         1 RES1    0.0000
     12 N1         4.4893    0.2433   11.6994 N.3       1 RES1    0.0000
     13 N2         3.4444    1.1228   11.7886 N.2       1 RES1    0.0000
     14 C7         3.9141    2.3286   11.7118 C.2       1 RES1    0.0000
     15 C8         5.4064    2.3721   11.5748 C.3       1 RES1    0.0000
     16 H6         5.8202    2.7850   12.3484 H         1 RES1    0.0000
     17 H7         5.6734    2.8528   10.7759 H         1 RES1    0.0000
     18 C9         5.7604    0.8988   11.4776 C.3       1 RES1    0.0000
     19 H8         6.1189    0.6814   10.6041 H         1 RES1    0.0000
     20 H9         6.4061    0.6483   12.1566 H         1 RES1    0.0000
     21 C10        3.0479    3.4682   11.7733 C.2       1 RES1    0.0000
     22 H10        2.1393    3.3126   11.8970 H         1 RES1    0.0000
     23 C11        3.4501    4.7344   11.6656 C.2       1 RES1    0.0000
     24 H11        4.3637    4.8672   11.5575 H         1 RES1    0.0000
     25 C12        2.6283    5.9325   11.6978 C.ar      1 RES1    0.0000
     26 C13        3.1864    7.1517   11.3367 C.ar      1 RES1    0.0000
     27 H12        4.0831    7.1808   11.0914 H         1 RES1    0.0000
     28 C14        2.4572    8.3182   11.3288 C.ar      1 RES1    0.0000
     29 H13        2.8501    9.1224   11.0741 H         1 RES1    0.0000
     30 C15        1.1424    8.2714   11.7044 C.ar      1 RES1    0.0000
     31 C16        0.5508    7.0856   12.0967 C.ar      1 RES1    0.0000
     32 H14       -0.3397    7.0717   12.3643 H         1 RES1    0.0000
     33 C17        1.2913    5.9258   12.0887 C.ar      1 RES1    0.0000
     34 H15        0.8929    5.1252   12.3470 H         1 RES1    0.0000
     35 N3         0.3622    9.5036   11.7083 N.pl3     1 RES1    0.0000
     36 O1         0.9354   10.5561   11.4559 O.2       1 RES1    0.0000
     37 O2        -0.8333    9.4424   11.9521 O.2       1 RES1    0.0000
@<TRIPOS>BOND
     1    1    2 ar
     2    2    3 1
     3    4    2 ar
     4    5    4 1
     5    6    4 ar
     6    7    6 1
     7    8    6 ar
     8    9    8 1
     9   10    1 ar
    10   11   10 1
    11   12    1 1
    12   13   12 1
    13   14   13 2
    14   15   14 1
    15   16   15 1
    16   17   15 1
    17   18   12 1
    18   19   18 1
    19   20   18 1
    20   21   14 1
    21   22   21 1
    22   23   21 2
    23   24   23 1
    24   25   23 1
    25   26   25 ar
    26   27   26 1
    27   28   26 ar
    28   29   28 1
    29   30   28 ar
    30   31   30 ar
    31   32   31 1
    32   33   25 ar
    33   34   33 1
    34   35   30 1
    35   36   35 2
    36   37   35 2
    37    8   10 ar
    38   15   18 1
    39   31   33 ar
@<TRIPOS>SUBSTRUCTURE
     1 RES1 1

@<TRIPOS>CRYSIN
   6.4715   16.5381   13.3805  90.0000  95.6700  90.0000  14 1

