# MOL2 file generated by ConQuest
# Please check atom types

@<TRIPOS>MOLECULE
JAQZIN
    19    22     1
SMALL
NO_CHARGES
****
Generated from CSD

@<TRIPOS>ATOM
      1 O1         5.4147    3.5440    1.1197 O.3       1 RES1    0.0000
      2 O2         8.9640   -0.5636    0.1854 O.3       1 RES1    0.0000
      3 O3        10.1047    1.2685    5.2333 O.3       1 RES1    0.0000
      4 N1         7.0982    2.3928    3.9268 N.pl3     1 RES1    0.0000
      5 N2         5.7038    3.6024    2.4809 N.2       1 RES1    0.0000
      6 N3         6.1762    2.6003    0.4858 N.2       1 RES1    0.0000
      7 N4         7.9204    0.3247    0.0203 N.2       1 RES1    0.0000
      8 N5         9.5538   -0.4157    1.4208 N.2       1 RES1    0.0000
      9 N6        10.2363    0.6975    3.9993 N.2       1 RES1    0.0000
     10 N7         8.9184    1.9899    5.3310 N.2       1 RES1    0.0000
     11 N8         6.4550    3.0537    5.0112 N.3       1 RES1    0.0000
     12 H1         7.0875    3.6198    5.3704 H         1 RES1    0.0000
     13 H2         6.2467    2.4423    5.5676 H         1 RES1    0.0000
     14 C1         6.6194    2.6916    2.6678 C.2       1 RES1    0.0000
     15 C2         6.9161    2.0703    1.4146 C.2       1 RES1    0.0000
     16 C3         7.8762    1.0095    1.1281 C.2       1 RES1    0.0000
     17 C4         8.8953    0.5525    1.9952 C.2       1 RES1    0.0000
     18 C5         9.1641    1.0313    3.3367 C.2       1 RES1    0.0000
     19 C6         8.3448    1.8436    4.1669 C.2       1 RES1    0.0000
@<TRIPOS>BOND
     1    1    5 1
     2    2    7 1
     3    3    9 1
     4    4   11 1
     5    5   14 2
     6    6    1 1
     7    7   16 2
     8    8    2 1
     9    9   18 2
    10   10    3 1
    11   11   12 1
    12   13   11 1
    13   14    4 1
    14   15    6 2
    15   16   15 1
    16   17    8 2
    17   18   17 1
    18   19    4 1
    19   10   19 2
    20   14   15 1
    21   16   17 1
    22   18   19 1
@<TRIPOS>SUBSTRUCTURE
     1 RES1 1

@<TRIPOS>CRYSIN
  12.7017    8.7225   15.5260  90.0000  90.0000  90.0000  61 1

