# MOL2 file generated by ConQuest
# Please check atom types

@<TRIPOS>MOLECULE
JARLOD
    60    60     1
SMALL
NO_CHARGES
****
Generated from CSD

@<TRIPOS>ATOM
      1 C1         5.3471   23.7753    2.4123 C.ar      1 RES1    0.0000
      2 C2         5.1650   22.3680    2.1610 C.ar      1 RES1    0.0000
      3 C3         3.8715   21.7609    2.3490 C.ar      1 RES1    0.0000
      4 C4         2.7616   22.6126    2.1303 C.ar      1 RES1    0.0000
      5 C5         3.0662   23.9125    1.5203 C.ar      1 RES1    0.0000
      6 C6         4.2162   24.5861    2.1702 C.ar      1 RES1    0.0000
      7 C7         6.9547   25.6330    2.5032 C.3       1 RES1    0.0000
      8 C8         8.3124   25.6974    1.8555 C.3       1 RES1    0.0000
      9 C9         7.4774   23.4170    3.5730 C.3       1 RES1    0.0000
     10 C10        7.7993   23.9919    4.9166 C.3       1 RES1    0.0000
     11 C11        4.8006   19.7637    3.4024 C.3       1 RES1    0.0000
     12 C12        4.2471   19.0858    4.6356 C.3       1 RES1    0.0000
     13 C13        2.5910   19.6736    2.2304 C.3       1 RES1    0.0000
     14 C14        3.0208   18.4316    1.4866 C.3       1 RES1    0.0000
     15 C15        1.2962   23.6272   -0.1001 C.3       1 RES1    0.0000
     16 C16        1.2303   23.6723   -1.6082 C.3       1 RES1    0.0000
     17 C17        2.7657   25.6716   -0.1308 C.3       1 RES1    0.0000
     18 C18        1.6382   26.6841   -0.0644 C.3       1 RES1    0.0000
     19 N1         6.5329   24.2536    2.8118 N.3       1 RES1    0.0000
     20 N2         6.1183   21.6901    1.3650 N.pl3     1 RES1    0.0000
     21 N3         3.7465   20.4716    2.6667 N.3       1 RES1    0.0000
     22 N4         1.5785   22.5546    2.8823 N.pl3     1 RES1    0.0000
     23 N5         2.4139   24.3845    0.5037 N.3       1 RES1    0.0000
     24 N6         3.8929   25.7059    2.9518 N.pl3     1 RES1    0.0000
     25 O1         7.1726   22.2607    1.0442 O.2       1 RES1    0.0000
     26 O2         5.8577   20.5510    0.9349 O.2       1 RES1    0.0000
     27 O3         1.3809   21.6386    3.6925 O.2       1 RES1    0.0000
     28 O4         0.7708   23.4964    2.7576 O.2       1 RES1    0.0000
     29 O5         2.8121   26.2787    2.7331 O.2       1 RES1    0.0000
     30 O6         4.6478   26.0685    3.8724 O.2       1 RES1    0.0000
     31 H1         6.3124   26.0256    1.9065 H         1 RES1    0.0000
     32 H2         6.9808   26.1371    3.3196 H         1 RES1    0.0000
     33 H3         8.5337   26.6112    1.6664 H         1 RES1    0.0000
     34 H4         8.2999   25.1954    1.0371 H         1 RES1    0.0000
     35 H5         8.9673   25.3241    2.4501 H         1 RES1    0.0000
     36 H6         7.0880   22.5482    3.6956 H         1 RES1    0.0000
     37 H7         8.2909   23.3355    3.0703 H         1 RES1    0.0000
     38 H8         8.4155   23.4127    5.3723 H         1 RES1    0.0000
     39 H9         6.9937   24.0713    5.4315 H         1 RES1    0.0000
     40 H10        8.1954   24.8586    4.8072 H         1 RES1    0.0000
     41 H11        5.1911   19.1009    2.8281 H         1 RES1    0.0000
     42 H12        5.4745   20.3944    3.6670 H         1 RES1    0.0000
     43 H13        4.9583   18.6375    5.0995 H         1 RES1    0.0000
     44 H14        3.5796   18.4466    4.3771 H         1 RES1    0.0000
     45 H15        3.8538   19.7444    5.2129 H         1 RES1    0.0000
     46 H16        2.0823   19.4141    3.0018 H         1 RES1    0.0000
     47 H17        2.0704   20.2099    1.5489 H         1 RES1    0.0000
     48 H18        2.2446   17.9360    1.2148 H         1 RES1    0.0000
     49 H19        3.5635   17.8867    2.0619 H         1 RES1    0.0000
     50 H20        3.5286   18.6825    0.7111 H         1 RES1    0.0000
     51 H21        1.3813   22.7091    0.1665 H         1 RES1    0.0000
     52 H22        0.4753   23.9876    0.2432 H         1 RES1    0.0000
     53 H23        0.4770   23.1596   -1.9106 H         1 RES1    0.0000
     54 H24        2.0372   23.3033   -1.9750 H         1 RES1    0.0000
     55 H25        1.1340   24.5818   -1.8974 H         1 RES1    0.0000
     56 H26        3.5328   26.0363    0.3178 H         1 RES1    0.0000
     57 H27        2.9806   25.5129   -1.0524 H         1 RES1    0.0000
     58 H28        1.9212   27.5058   -0.4720 H         1 RES1    0.0000
     59 H29        1.4073   26.8472    0.8531 H         1 RES1    0.0000
     60 H30        0.8728   26.3431   -0.5313 H         1 RES1    0.0000
@<TRIPOS>BOND
     1    1    2 ar
     2    2    3 ar
     3    3    4 ar
     4    4    5 ar
     5    5    6 ar
     6    6    1 ar
     7    7    8 1
     8    8   33 1
     9    9   10 1
    10   10   38 1
    11   11   12 1
    12   12   43 1
    13   13   14 1
    14   14   48 1
    15   15   16 1
    16   16   53 1
    17   17   18 1
    18   18   58 1
    19   19    1 1
    20   20    2 1
    21   21    3 1
    22   22    4 1
    23   23    5 1
    24   24    6 1
    25   25   20 2
    26   26   20 2
    27   27   22 2
    28   28   22 2
    29   29   24 2
    30   30   24 2
    31   31    7 1
    32   32    7 1
    33   34    8 1
    34   35    8 1
    35   36    9 1
    36   37    9 1
    37   39   10 1
    38   40   10 1
    39   41   11 1
    40   42   11 1
    41   44   12 1
    42   45   12 1
    43   46   13 1
    44   47   13 1
    45   49   14 1
    46   50   14 1
    47   51   15 1
    48   52   15 1
    49   54   16 1
    50   55   16 1
    51   56   17 1
    52   57   17 1
    53   59   18 1
    54   60   18 1
    55    7   19 1
    56    9   19 1
    57   11   21 1
    58   13   21 1
    59   15   23 1
    60   17   23 1
@<TRIPOS>SUBSTRUCTURE
     1 RES1 1

@<TRIPOS>CRYSIN
  10.0050   21.4520   10.5440  90.0000 104.3000  90.0000  14 1

