# MOL2 file generated by ConQuest
# Please check atom types

@<TRIPOS>MOLECULE
JARTUU
    45    47     1
SMALL
NO_CHARGES
****
Generated from CSD

@<TRIPOS>ATOM
      1 O1         5.4413    2.2117    7.4130 O.3       1 RES1    0.0000
      2 O2         4.1146   -0.2519    8.0532 O.3       1 RES1    0.0000
      3 O3         3.5208    2.5166   11.8527 O.3       1 RES1    0.0000
      4 O4         1.3958    2.6927   11.0593 O.2       1 RES1    0.0000
      5 N1         3.1767    3.4324    9.8705 N.am      1 RES1    0.0000
      6 N2         5.1481   -1.1986    8.0624 N.2       1 RES1    0.0000
      7 C1         4.3885    2.1353    8.3374 C.3       1 RES1    0.0000
      8 C2         2.9803    2.4567    7.7665 C.3       1 RES1    0.0000
      9 C3         2.5007    3.6547    8.5586 C.3       1 RES1    0.0000
     10 C4         3.2818    4.9123    8.1161 C.3       1 RES1    0.0000
     11 C5         4.7019    4.6161    8.6175 C.3       1 RES1    0.0000
     12 C6         4.5446    3.2979    9.3664 C.3       1 RES1    0.0000
     13 C7         4.4337    0.7769    9.0391 C.3       1 RES1    0.0000
     14 C8         5.7635    0.3840    9.6191 C.3       1 RES1    0.0000
     15 C9         6.0418   -0.8860    8.8794 C.2       1 RES1    0.0000
     16 C10        7.2746   -1.7086    9.0535 C.3       1 RES1    0.0000
     17 H1         6.9977   -2.7687    8.9160 H         1 RES1    0.0000
     18 H2         7.6305   -1.6500    9.9635 H         1 RES1    0.0000
     19 H3         7.8388   -1.2329    8.5756 H         1 RES1    0.0000
     20 C11        2.5927    2.8397   10.9336 C.2       1 RES1    0.0000
     21 C12        3.1354    1.9106   13.1384 C.3       1 RES1    0.0000
     22 C13        4.4595    1.7435   13.8205 C.3       1 RES1    0.0000
     23 C14        2.2050    2.8232   13.8873 C.3       1 RES1    0.0000
     24 C15        2.4815    0.5512   12.8543 C.3       1 RES1    0.0000
     25 H4         4.9200    5.2090    9.2041 H         1 RES1    0.0000
     26 H5         5.0996    3.0492    9.9242 H         1 RES1    0.0000
     27 H6         2.4990    1.6811    7.9341 H         1 RES1    0.0000
     28 H7         5.4395    4.5355    7.8425 H         1 RES1    0.0000
     29 H8         5.8918    0.2242   10.5395 H         1 RES1    0.0000
     30 H9         6.4875    1.3190    9.5576 H         1 RES1    0.0000
     31 H10        3.0646    2.7144    6.8343 H         1 RES1    0.0000
     32 H11        3.7542    0.8871    9.8063 H         1 RES1    0.0000
     33 H12        5.2723    1.6933    6.8343 H         1 RES1    0.0000
     34 H13        2.8146    5.7728    8.6804 H         1 RES1    0.0000
     35 H14        3.1801    4.8213    7.0700 H         1 RES1    0.0000
     36 H15        1.4241    3.6078    8.6149 H         1 RES1    0.0000
     37 H16        4.9958    1.2041   13.3937 H         1 RES1    0.0000
     38 H17        1.6432    0.6282   12.2023 H         1 RES1    0.0000
     39 H18        4.9540    2.5959   14.0745 H         1 RES1    0.0000
     40 H19        2.4617    0.0057   13.7865 H         1 RES1    0.0000
     41 H20        3.1149    0.0440   12.2154 H         1 RES1    0.0000
     42 H21        4.2905    1.3233   14.7553 H         1 RES1    0.0000
     43 H22        2.5699    3.6099   13.8519 H         1 RES1    0.0000
     44 H23        1.4035    3.0622   13.3806 H         1 RES1    0.0000
     45 H24        2.2151    2.6551   14.9386 H         1 RES1    0.0000
@<TRIPOS>BOND
     1    1    7 1
     2    2    6 1
     3    3   20 1
     4    4   20 2
     5    5    9 1
     6    6   15 2
     7    7    8 1
     8    8    9 1
     9    9   10 1
    10   10   11 1
    11   11   12 1
    12   12    5 1
    13   13    2 1
    14   14   13 1
    15   15   14 1
    16   16   15 1
    17   17   16 1
    18   18   16 1
    19   19   16 1
    20   20    5 1
    21   21    3 1
    22   22   21 1
    23   23   21 1
    24   24   21 1
    25   25   11 1
    26   26   12 1
    27   27    8 1
    28   28   11 1
    29   29   14 1
    30   30   14 1
    31   31    8 1
    32   32   13 1
    33   33    1 1
    34   34   10 1
    35   35   10 1
    36   36    9 1
    37   37   22 1
    38   38   24 1
    39   39   22 1
    40   40   24 1
    41   41   24 1
    42   42   22 1
    43   43   23 1
    44   44   23 1
    45   45   23 1
    46    7   12 1
    47    7   13 1
@<TRIPOS>SUBSTRUCTURE
     1 RES1 1

@<TRIPOS>CRYSIN
   6.1900    9.7270   13.2610  92.9400  98.5800  91.2700   2 1

