# MOL2 file generated by ConQuest
# Please check atom types

@<TRIPOS>MOLECULE
JASGUG
    58    60     2
SMALL
NO_CHARGES
****
Generated from CSD

@<TRIPOS>ATOM
      1 O1        -3.3700   14.7292    5.3378 O.2       1 RES1    0.0000
      2 O2        -2.4014   12.7676    5.1104 O.3       1 RES1    0.0000
      3 O3        -1.9913   15.0109    9.1523 O.3       1 RES1    0.0000
      4 O4        -0.6141   10.9243   11.0414 O.2       2 RES2    0.0000
      5 O5         0.5566   12.7437   10.6497 O.3       2 RES2    0.0000
      6 O6         0.7798   10.7887   14.8404 O.3       2 RES2    0.0000
      7 N1        -2.4721   14.9711    7.8513 N.2       1 RES1    0.0000
      8 N2         0.2824   10.8007   13.5448 N.2       2 RES2    0.0000
      9 C1        -1.6883   11.6034    5.7115 C.3       1 RES1    0.0000
     10 C2        -2.7173   13.8414    5.8421 C.2       1 RES1    0.0000
     11 C3        -2.2192   13.8800    7.2491 C.2       1 RES1    0.0000
     12 C4        -1.5102   12.6839    7.7804 C.3       1 RES1    0.0000
     13 C5        -2.5639   11.5609    7.9875 C.3       1 RES1    0.0000
     14 C6        -2.6890   10.8844    6.6041 C.3       1 RES1    0.0000
     15 C7        -0.6047   12.1137    6.6604 C.3       1 RES1    0.0000
     16 C8        -1.2481   10.8100    4.4969 C.3       1 RES1    0.0000
     17 C9         1.4745   13.8029   11.1179 C.3       2 RES2    0.0000
     18 C10        0.1265   11.7788   11.4601 C.2       2 RES2    0.0000
     19 C11        0.6224   11.8267   12.8728 C.2       2 RES2    0.0000
     20 C12        1.4951   12.9670   13.2882 C.3       2 RES2    0.0000
     21 C13        2.9110   12.6879   12.7636 C.3       2 RES2    0.0000
     22 C14        2.8654   13.1676   11.3104 C.3       2 RES2    0.0000
     23 C15        1.0462   14.2282   12.5430 C.3       2 RES2    0.0000
     24 C16        1.4090   14.8488   10.0317 C.3       2 RES2    0.0000
     25 C17        0.2359   10.9509    7.2131 C.3       1 RES1    0.0000
     26 C18        0.3295   13.1583    6.0604 C.3       1 RES1    0.0000
     27 C19        1.8548   15.4469   13.0157 C.3       2 RES2    0.0000
     28 C20       -0.4339   14.5445   12.6938 C.3       2 RES2    0.0000
     29 H1        -2.3665   15.7511    9.5360 H         1 RES1    0.0000
     30 H2         0.3953    9.8444   15.0413 H         2 RES2    0.0000
     31 H3        -1.0566   12.9210    8.6876 H         1 RES1    0.0000
     32 H4        -3.4765   11.9695    8.2792 H         1 RES1    0.0000
     33 H5        -2.2394   10.8855    8.7019 H         1 RES1    0.0000
     34 H6        -3.6534   10.9925    6.2350 H         1 RES1    0.0000
     35 H7        -2.4514    9.8768    6.6764 H         1 RES1    0.0000
     36 H8        -2.0700   10.6083    3.8957 H         1 RES1    0.0000
     37 H9        -0.8097    9.9217    4.8038 H         1 RES1    0.0000
     38 H10       -0.5525   11.3686    3.9526 H         1 RES1    0.0000
     39 H11        1.5163   13.0479   14.3248 H         2 RES2    0.0000
     40 H12        3.1293   11.6750   12.8075 H         2 RES2    0.0000
     41 H13        3.6221   13.2220   13.3059 H         2 RES2    0.0000
     42 H14        2.9916   12.3721   10.6597 H         2 RES2    0.0000
     43 H15        3.6119   13.8782   11.1405 H         2 RES2    0.0000
     44 H16        1.7985   14.4614    9.1509 H         2 RES2    0.0000
     45 H17        1.9505   15.6874   10.3162 H         2 RES2    0.0000
     46 H18        0.4113   15.1210    9.8753 H         2 RES2    0.0000
     47 H19       -0.3843   10.2872    7.7120 H         1 RES1    0.0000
     48 H20        0.9475   11.3287    7.8724 H         1 RES1    0.0000
     49 H21        0.7096   10.4711    6.4260 H         1 RES1    0.0000
     50 H22       -0.2108   13.9968    5.7788 H         1 RES1    0.0000
     51 H23        0.8113   12.7559    5.2314 H         1 RES1    0.0000
     52 H24        1.0456   13.4314    6.7718 H         1 RES1    0.0000
     53 H25        2.8725   15.2700   12.8785 H         2 RES2    0.0000
     54 H26        1.6706   15.6184   14.0266 H         2 RES2    0.0000
     55 H27        1.5773   16.2894   12.4692 H         2 RES2    0.0000
     56 H28       -0.9971   13.7370   12.3618 H         2 RES2    0.0000
     57 H29       -0.6697   15.3859   12.1202 H         2 RES2    0.0000
     58 H30       -0.6498   14.7373   13.6897 H         2 RES2    0.0000
@<TRIPOS>BOND
     1    1   10 2
     2    2    9 1
     3    3    7 1
     4    4   18 2
     5    5   17 1
     6    6    8 1
     7    7   11 2
     8    8   19 2
     9    9   14 1
    10   10    2 1
    11   11   10 1
    12   12   11 1
    13   13   12 1
    14   14   13 1
    15   15    9 1
    16   16    9 1
    17   17   22 1
    18   18    5 1
    19   19   18 1
    20   20   19 1
    21   21   20 1
    22   22   21 1
    23   23   17 1
    24   24   17 1
    25   25   15 1
    26   26   15 1
    27   27   23 1
    28   28   23 1
    29   29    3 1
    30   30    6 1
    31   31   12 1
    32   32   13 1
    33   33   13 1
    34   34   14 1
    35   35   14 1
    36   36   16 1
    37   37   16 1
    38   38   16 1
    39   39   20 1
    40   40   21 1
    41   41   21 1
    42   42   22 1
    43   43   22 1
    44   44   24 1
    45   45   24 1
    46   46   24 1
    47   47   25 1
    48   48   25 1
    49   49   25 1
    50   50   26 1
    51   51   26 1
    52   52   26 1
    53   53   27 1
    54   54   27 1
    55   55   27 1
    56   56   28 1
    57   57   28 1
    58   58   28 1
    59   12   15 1
    60   20   23 1
@<TRIPOS>SUBSTRUCTURE
     1 RES1 1
     2 RES2 4

@<TRIPOS>CRYSIN
   6.9631   13.2899   11.3540  90.0000  97.5189  90.0000   4 1

