# MOL2 file generated by ConQuest
# Please check atom types

@<TRIPOS>MOLECULE
JASHIV
    74    74     2
SMALL
NO_CHARGES
****
Generated from CSD

@<TRIPOS>ATOM
      1 O1         7.4498    9.1978    8.1383 O.2       1 RES1    0.0000
      2 O2         5.8310   11.1493    9.1746 O.3       1 RES1    0.0000
      3 O3         8.3872   11.2642    4.1810 O.3       1 RES1    0.0000
      4 O4         5.1579   12.5817    2.3935 O.2       2 RES2    0.0000
      5 O5         2.9016   10.9253    2.3739 O.3       2 RES2    0.0000
      6 O6         6.9875   10.4600   -1.1396 O.3       2 RES2    0.0000
      7 N1         8.6058   10.2608    5.1153 N.2       1 RES1    0.0000
      8 N2         6.9539   11.5303   -0.2717 N.2       2 RES2    0.0000
      9 C1         5.4433   12.0785    8.1592 C.3       1 RES1    0.0000
     10 C2         8.0341    9.1876    7.0712 C.2       1 RES1    0.0000
     11 C3         7.7264   10.2360    6.0545 C.2       1 RES1    0.0000
     12 C4         6.5280   11.1493    6.1480 C.3       1 RES1    0.0000
     13 C5         5.1926   10.4105    6.4221 C.3       1 RES1    0.0000
     14 C6         4.3978   11.4387    7.2654 C.3       1 RES1    0.0000
     15 C7         6.6262   12.3301    7.1868 C.3       1 RES1    0.0000
     16 C8         4.9054   13.2869    8.9078 C.3       1 RES1    0.0000
     17 C9         3.2053    9.6500    1.7764 C.3       2 RES2    0.0000
     18 C10        6.1100   12.4799    1.6449 C.2       2 RES2    0.0000
     19 C11        6.2250   11.2947    0.7659 C.2       2 RES2    0.0000
     20 C12        5.5227   10.0005    1.0511 C.3       2 RES2    0.0000
     21 C13        5.4802    9.5875    2.5411 C.3       2 RES2    0.0000
     22 C14        4.1206    8.8996    2.7009 C.3       2 RES2    0.0000
     23 C15        4.0578    9.8580    0.4930 C.3       2 RES2    0.0000
     24 C16        1.8542    8.9782    1.5662 C.3       2 RES2    0.0000
     25 C17        6.4262   13.6665    6.4246 C.3       1 RES1    0.0000
     26 C18        7.9759   12.4391    7.9047 C.3       1 RES1    0.0000
     27 C19        9.0654    8.1391    6.8032 C.3       1 RES1    0.0000
     28 C20        9.1554    7.1008    7.8752 C.3       1 RES1    0.0000
     29 C21        4.0198    8.6059   -0.3946 C.3       2 RES2    0.0000
     30 C22        3.6014   11.0940   -0.3233 C.3       2 RES2    0.0000
     31 C23        7.1841   13.5429    1.6080 C.3       2 RES2    0.0000
     32 C24        6.9199   14.7208    2.5005 C.3       2 RES2    0.0000
     33 H1         6.3945   10.4216    8.7362 H         1 RES1    0.0000
     34 H2         9.3624   11.1488    3.6684 H         1 RES1    0.0000
     35 H3         6.4394   11.6831    5.2499 H         1 RES1    0.0000
     36 H4         5.3540    9.5486    6.9577 H         1 RES1    0.0000
     37 H5         4.6987   10.2043    5.5348 H         1 RES1    0.0000
     38 H6         3.6629   10.9743    7.8336 H         1 RES1    0.0000
     39 H7         3.9422   12.1621    6.6522 H         1 RES1    0.0000
     40 H8         4.0327   13.0502    9.4115 H         1 RES1    0.0000
     41 H9         4.7035   14.0739    8.2340 H         1 RES1    0.0000
     42 H10        5.6161   13.6356    9.5976 H         1 RES1    0.0000
     43 H11        3.6531   11.1488    2.1258 H         2 RES2    0.0000
     44 H12        7.5110   10.6640   -1.9032 H         2 RES2    0.0000
     45 H13        6.0981    9.2590    0.6439 H         2 RES2    0.0000
     46 H14        5.5521   10.4385    3.1595 H         2 RES2    0.0000
     47 H15        6.2553    8.9453    2.7594 H         2 RES2    0.0000
     48 H16        4.1744    7.9194    2.4227 H         2 RES2    0.0000
     49 H17        3.7839    8.9897    3.6821 H         2 RES2    0.0000
     50 H18        1.3404    8.9607    2.4711 H         2 RES2    0.0000
     51 H19        2.0085    8.0210    1.2241 H         2 RES2    0.0000
     52 H20        1.3047    9.5255    0.8698 H         2 RES2    0.0000
     53 H21        5.5436   13.6531    5.8909 H         1 RES1    0.0000
     54 H22        7.2286   13.8331    5.7779 H         1 RES1    0.0000
     55 H23        6.3945   14.4674    7.1145 H         1 RES1    0.0000
     56 H24        8.1814   11.5605    8.3898 H         1 RES1    0.0000
     57 H25        7.9325   13.2267    8.6046 H         1 RES1    0.0000
     58 H26        8.7225   12.6587    7.2126 H         1 RES1    0.0000
     59 H27        8.8439    7.6925    5.9016 H         1 RES1    0.0000
     60 H28        9.9984    8.6212    6.7314 H         1 RES1    0.0000
     61 H29        9.8472    6.3938    7.6012 H         1 RES1    0.0000
     62 H30        8.2137    6.6634    7.9797 H         1 RES1    0.0000
     63 H31        9.4262    7.5538    8.7679 H         1 RES1    0.0000
     64 H32        4.1472    7.7801    0.2064 H         2 RES2    0.0000
     65 H33        4.7865    8.6716   -1.0899 H         2 RES2    0.0000
     66 H34        3.1048    8.5722   -0.8753 H         2 RES2    0.0000
     67 H35        3.7509   11.9725    0.2446 H         2 RES2    0.0000
     68 H36        2.5995   11.0210   -0.5637 H         2 RES2    0.0000
     69 H37        4.1674   11.1775   -1.1971 H         2 RES2    0.0000
     70 H38        7.2792   13.9079    0.6347 H         2 RES2    0.0000
     71 H39        8.0844   13.1254    1.9089 H         2 RES2    0.0000
     72 H40        7.7106   15.4143    2.4362 H         2 RES2    0.0000
     73 H41        6.8263   14.4161    3.4880 H         2 RES2    0.0000
     74 H42        6.0404   15.2079    2.2075 H         2 RES2    0.0000
@<TRIPOS>BOND
     1    1   10 2
     2    2    9 1
     3    3    7 1
     4    4   18 2
     5    5   17 1
     6    6    8 1
     7    7   11 2
     8    8   19 2
     9    9   14 1
    10   10   11 1
    11   11   12 1
    12   12   13 1
    13   13   14 1
    14   14   38 1
    15   15    9 1
    16   16    9 1
    17   17   22 1
    18   18   19 1
    19   19   20 1
    20   20   21 1
    21   21   22 1
    22   22   48 1
    23   23   17 1
    24   24   17 1
    25   25   15 1
    26   26   15 1
    27   27   10 1
    28   28   27 1
    29   29   23 1
    30   30   23 1
    31   31   18 1
    32   32   31 1
    33   33    2 1
    34   34    3 1
    35   35   12 1
    36   36   13 1
    37   37   13 1
    38   39   14 1
    39   40   16 1
    40   41   16 1
    41   42   16 1
    42   43    5 1
    43   44    6 1
    44   45   20 1
    45   46   21 1
    46   47   21 1
    47   49   22 1
    48   50   24 1
    49   51   24 1
    50   52   24 1
    51   53   25 1
    52   54   25 1
    53   55   25 1
    54   56   26 1
    55   57   26 1
    56   58   26 1
    57   59   27 1
    58   60   27 1
    59   61   28 1
    60   62   28 1
    61   63   28 1
    62   64   29 1
    63   65   29 1
    64   66   29 1
    65   67   30 1
    66   68   30 1
    67   69   30 1
    68   70   31 1
    69   71   31 1
    70   72   32 1
    71   73   32 1
    72   74   32 1
    73   12   15 1
    74   20   23 1
@<TRIPOS>SUBSTRUCTURE
     1 RES1 1
     2 RES2 4

@<TRIPOS>CRYSIN
   7.3810   14.5419   12.6052  90.0000 102.7691  90.0000   4 1

