# MOL2 file generated by ConQuest
# Please check atom types

@<TRIPOS>MOLECULE
JATKOE
    90    92     2
SMALL
NO_CHARGES
****
Generated from CSD

@<TRIPOS>ATOM
      1 O1        -2.9968    2.3573    8.0458 O.3       1 RES1    0.0000
      2 O2         0.7298    3.1850    9.3940 O.3       1 RES1    0.0000
      3 O3         1.0810    3.0639   12.2717 O.3       1 RES1    0.0000
      4 O4        -2.5310    2.9489   11.8631 O.3       1 RES1    0.0000
      5 O5        -1.2923    4.7989   13.7677 O.3       1 RES1    0.0000
      6 O6         2.2714    1.6047    9.6493 O.2       1 RES1    0.0000
      7 O7         1.6977    5.1775   11.8429 O.2       1 RES1    0.0000
      8 O8         0.4951    4.8617   15.1131 O.2       1 RES1    0.0000
      9 N1        -2.9107    0.8307   10.8658 N.pl3     1 RES1    0.0000
     10 N2        -1.6615    2.5198    8.4464 N.2       1 RES1    0.0000
     11 N3        -1.8517    0.0169   11.0956 N.2       1 RES1    0.0000
     12 C1        -2.6945    2.2408   10.6480 C.3       1 RES1    0.0000
     13 C2        -1.5365    2.4447    9.7058 C.2       1 RES1    0.0000
     14 C3        -0.1619    2.5106   10.3120 C.3       1 RES1    0.0000
     15 C4        -0.1807    3.2738   11.6158 C.3       1 RES1    0.0000
     16 C5        -1.2752    2.7205   12.5324 C.3       1 RES1    0.0000
     17 C6        -1.3269    3.3704   13.8833 C.3       1 RES1    0.0000
     18 C7        -2.3820   -1.1786   11.3080 C.2       1 RES1    0.0000
     19 C8        -3.7795   -1.1419   11.2233 C.2       1 RES1    0.0000
     20 C9        -4.0782    0.1502   10.9289 C.2       1 RES1    0.0000
     21 C10        1.9425    2.6439    9.1883 C.2       1 RES1    0.0000
     22 C11        2.7826    3.5574    8.3617 C.3       1 RES1    0.0000
     23 C12        1.9665    4.1092   12.2730 C.2       1 RES1    0.0000
     24 C13        3.2522    3.6662   12.8725 C.3       1 RES1    0.0000
     25 C14       -0.3242    5.4380   14.4518 C.2       1 RES1    0.0000
     26 C15       -0.4013    6.9109   14.2556 C.3       1 RES1    0.0000
     27 O9         5.0669    9.1088    7.1332 O.3       2 RES2    0.0000
     28 O10        1.8327   11.1075    8.4974 O.3       2 RES2    0.0000
     29 O11       -0.1535    9.4108    9.7367 O.3       2 RES2    0.0000
     30 O12        2.3419    7.0060    8.6292 O.3       2 RES2    0.0000
     31 O13       -0.2237    6.6381    7.6480 O.3       2 RES2    0.0000
     32 O14        3.1835   12.0915    9.9585 O.2       2 RES2    0.0000
     33 O15       -1.1886   10.4362    8.0324 O.2       2 RES2    0.0000
     34 O16       -2.2298    5.7568    7.9773 O.2       2 RES2    0.0000
     35 N4         4.1299    7.5439   10.1198 N.pl3     2 RES2    0.0000
     36 N5         4.0152    9.8752    7.6359 N.2       2 RES2    0.0000
     37 N6         3.7657    8.3042   11.1776 N.2       2 RES2    0.0000
     38 C16        3.5503    7.7309    8.7958 C.3       2 RES2    0.0000
     39 C17        3.3350    9.1793    8.4692 C.2       2 RES2    0.0000
     40 C18        2.1231    9.8384    9.1050 C.3       2 RES2    0.0000
     41 C19        0.9231    8.9448    8.8953 C.3       2 RES2    0.0000
     42 C20        1.2075    7.5256    9.3335 C.3       2 RES2    0.0000
     43 C21        0.0689    6.5875    9.0566 C.3       2 RES2    0.0000
     44 C22        4.4587    7.7938   12.1830 C.2       2 RES2    0.0000
     45 C23        5.2578    6.7500   11.8147 C.2       2 RES2    0.0000
     46 C24        5.0221    6.5952   10.4625 C.2       2 RES2    0.0000
     47 C25        2.4220   12.1773    9.0378 C.2       2 RES2    0.0000
     48 C26        2.0327   13.4311    8.3429 C.3       2 RES2    0.0000
     49 C27       -1.1584   10.1066    9.1816 C.2       2 RES2    0.0000
     50 C28       -2.1993   10.4438   10.1776 C.3       2 RES2    0.0000
     51 C29       -1.4157    6.1844    7.2192 C.2       2 RES2    0.0000
     52 C30       -1.5473    6.2458    5.7837 C.3       2 RES2    0.0000
     53 H1        -3.4747    2.5749   10.2286 H         1 RES1    0.0000
     54 H2        -3.0352    2.4217    7.1372 H         1 RES1    0.0000
     55 H3         0.1225    1.5940   10.4706 H         1 RES1    0.0000
     56 H4        -0.3340    4.1843   11.4249 H         1 RES1    0.0000
     57 H5        -1.0979    1.7779   12.7152 H         1 RES1    0.0000
     58 H6        -1.8781   -1.9772   11.5055 H         1 RES1    0.0000
     59 H7        -4.3841   -1.8852   11.3443 H         1 RES1    0.0000
     60 H8        -4.9698    0.5364   10.8066 H         1 RES1    0.0000
     61 H9         3.5655    3.1114    8.1318 H         1 RES1    0.0000
     62 H10        2.3955    3.7245    7.4732 H         1 RES1    0.0000
     63 H11        3.0106    4.3835    8.8442 H         1 RES1    0.0000
     64 H12        3.3140    3.7398   13.8712 H         1 RES1    0.0000
     65 H13        3.4192    2.7435   12.6480 H         1 RES1    0.0000
     66 H14        3.9811    4.1843   12.5136 H         1 RES1    0.0000
     67 H15       -0.5754    3.0654   14.3954 H         1 RES1    0.0000
     68 H16       -2.1202    3.0961   14.3282 H         1 RES1    0.0000
     69 H17       -1.2779    7.2343   13.8577 H         1 RES1    0.0000
     70 H18       -0.2548    7.3723   15.0674 H         1 RES1    0.0000
     71 H19        0.2835    7.1884   13.6292 H         1 RES1    0.0000
     72 H20        4.1970    7.3876    8.1856 H         2 RES2    0.0000
     73 H21        5.4475    9.7173    6.4114 H         2 RES2    0.0000
     74 H22        2.3229    9.9626   10.0001 H         2 RES2    0.0000
     75 H23        0.7127    8.9663    7.9571 H         2 RES2    0.0000
     76 H24        1.3740    7.5562   10.2555 H         2 RES2    0.0000
     77 H25        4.3549    8.1080   13.0378 H         2 RES2    0.0000
     78 H26        5.7981    6.2381   12.3927 H         2 RES2    0.0000
     79 H27        5.5655    5.8549   10.1346 H         2 RES2    0.0000
     80 H28        2.2181   14.1775    8.8173 H         2 RES2    0.0000
     81 H29        2.4814   13.5031    7.4867 H         2 RES2    0.0000
     82 H30        1.0791   13.4265    8.1453 H         2 RES2    0.0000
     83 H31       -1.8581   10.7749   10.9276 H         2 RES2    0.0000
     84 H32       -2.8603   10.9895    9.7985 H         2 RES2    0.0000
     85 H33       -2.6567    9.6407   10.4706 H         2 RES2    0.0000
     86 H34       -0.7063    6.8358    9.5432 H         2 RES2    0.0000
     87 H35        0.2965    5.6863    9.2878 H         2 RES2    0.0000
     88 H36       -2.2134    5.6710    5.3227 H         2 RES2    0.0000
     89 H37       -1.8061    7.1577    5.5243 H         2 RES2    0.0000
     90 H38       -0.7055    6.0695    5.3630 H         2 RES2    0.0000
@<TRIPOS>BOND
     1    1   10 1
     2    2   14 1
     3    3   15 1
     4    4   12 1
     5    5   17 1
     6    6   21 2
     7    7   23 2
     8    8   25 2
     9    9   11 1
    10   10   13 2
    11   11   18 2
    12   12    9 1
    13   13   12 1
    14   14   13 1
    15   15   14 1
    16   16    4 1
    17   17   16 1
    18   18   19 1
    19   19   20 2
    20   20    9 1
    21   21    2 1
    22   22   21 1
    23   23    3 1
    24   24   23 1
    25   25    5 1
    26   26   25 1
    27   27   36 1
    28   28   40 1
    29   29   41 1
    30   30   38 1
    31   31   43 1
    32   32   47 2
    33   33   49 2
    34   34   51 2
    35   35   37 1
    36   36   39 2
    37   37   44 2
    38   38   35 1
    39   39   38 1
    40   40   39 1
    41   41   40 1
    42   42   30 1
    43   43   42 1
    44   44   45 1
    45   45   46 2
    46   46   35 1
    47   47   28 1
    48   48   47 1
    49   49   29 1
    50   50   49 1
    51   51   31 1
    52   52   51 1
    53   53   12 1
    54   54    1 1
    55   55   14 1
    56   56   15 1
    57   57   16 1
    58   58   18 1
    59   59   19 1
    60   60   20 1
    61   61   22 1
    62   62   22 1
    63   63   22 1
    64   64   24 1
    65   65   24 1
    66   66   24 1
    67   67   17 1
    68   68   17 1
    69   69   26 1
    70   70   26 1
    71   71   26 1
    72   72   38 1
    73   73   27 1
    74   74   40 1
    75   75   41 1
    76   76   42 1
    77   77   44 1
    78   78   45 1
    79   79   46 1
    80   80   48 1
    81   81   48 1
    82   82   48 1
    83   83   50 1
    84   84   50 1
    85   85   50 1
    86   86   43 1
    87   87   43 1
    88   88   52 1
    89   89   52 1
    90   90   52 1
    91   15   16 1
    92   41   42 1
@<TRIPOS>SUBSTRUCTURE
     1 RES1 1
     2 RES2 27

@<TRIPOS>CRYSIN
   8.9940   15.3270   14.0300  90.0000 106.6600  90.0000   4 1

