# MOL2 file generated by ConQuest
# Please check atom types

@<TRIPOS>MOLECULE
JATKIY
    42    43     1
SMALL
NO_CHARGES
****
Generated from CSD

@<TRIPOS>ATOM
      1 O1         1.5163    0.9874    9.5599 O.3       1 RES1    0.0000
      2 O2         1.7644    5.9168    6.3328 O.3       1 RES1    0.0000
      3 O3        -0.1935    4.4250    9.0175 O.3       1 RES1    0.0000
      4 O4         2.0652   -0.9529    8.5573 O.2       1 RES1    0.0000
      5 O5         4.5656    3.2971    6.2976 O.2       1 RES1    0.0000
      6 O6        -0.1333    6.6184    5.4066 O.2       1 RES1    0.0000
      7 N1         1.4617    3.8536   10.6174 N.pl3     1 RES1    0.0000
      8 N2         1.9430    1.6444    8.3654 N.2       1 RES1    0.0000
      9 N3         2.3615    3.0310    6.0861 N.am      1 RES1    0.0000
     10 N4         2.7669    4.0918   10.4881 N.2       1 RES1    0.0000
     11 C1         0.6471    3.4060    9.4973 C.3       1 RES1    0.0000
     12 C2         1.5311    2.8523    8.4105 C.2       1 RES1    0.0000
     13 C3         2.0347    3.7680    7.3041 C.3       1 RES1    0.0000
     14 C4         1.0238    4.8884    7.0358 C.3       1 RES1    0.0000
     15 C5         0.5221    5.4580    8.3321 C.3       1 RES1    0.0000
     16 C6         3.1446    4.4669   11.7100 C.2       1 RES1    0.0000
     17 C7         2.0819    4.4743   12.5697 C.2       1 RES1    0.0000
     18 C8         1.0173    4.0965   11.8608 C.2       1 RES1    0.0000
     19 C9         1.6838   -0.3741    9.5051 C.2       1 RES1    0.0000
     20 C10        1.2673   -0.9408   10.8367 C.3       1 RES1    0.0000
     21 C11        3.6139    2.8095    5.7238 C.2       1 RES1    0.0000
     22 C12        3.7528    1.9068    4.5234 C.3       1 RES1    0.0000
     23 C13        1.0359    6.7804    5.6083 C.2       1 RES1    0.0000
     24 C14        1.8644    7.9203    5.1266 C.3       1 RES1    0.0000
     25 H1         0.0370    2.7080    9.8106 H         1 RES1    0.0000
     26 H2         2.8604    4.1877    7.5978 H         1 RES1    0.0000
     27 H3         0.2685    4.5413    6.5404 H         1 RES1    0.0000
     28 H4         4.0916    4.6716   11.9450 H         1 RES1    0.0000
     29 H5         2.1476    4.7368   13.4920 H         1 RES1    0.0000
     30 H6         0.0741    4.0481   12.1800 H         1 RES1    0.0000
     31 H7         1.4904   -0.2140   11.4555 H         1 RES1    0.0000
     32 H8         1.6107   -1.7030   11.0638 H         1 RES1    0.0000
     33 H9         0.4166   -1.2935   10.6918 H         1 RES1    0.0000
     34 H10        2.9715    1.7030    3.9751 H         1 RES1    0.0000
     35 H11        4.2397    2.3265    3.8968 H         1 RES1    0.0000
     36 H12        4.2767    1.1539    4.8368 H         1 RES1    0.0000
     37 H13        1.6940    2.6987    5.6788 H         1 RES1    0.0000
     38 H14        2.6382    7.6681    4.6409 H         1 RES1    0.0000
     39 H15        1.3330    8.6732    4.8759 H         1 RES1    0.0000
     40 H16        2.4161    8.2358    5.8942 H         1 RES1    0.0000
     41 H17        0.7406    6.2071    8.1853 H         1 RES1    0.0000
     42 H18        1.2404    5.7604    8.8902 H         1 RES1    0.0000
@<TRIPOS>BOND
     1    1    8 1
     2    2   14 1
     3    3   11 1
     4    4   19 2
     5    5   21 2
     6    6   23 2
     7    7   10 1
     8    8   12 2
     9    9   13 1
    10   10   16 2
    11   11    7 1
    12   12   11 1
    13   13   12 1
    14   14   13 1
    15   15    3 1
    16   16   17 1
    17   17   18 2
    18   18    7 1
    19   19    1 1
    20   20   19 1
    21   21    9 1
    22   22   21 1
    23   23    2 1
    24   24   23 1
    25   25   11 1
    26   26   13 1
    27   27   14 1
    28   28   16 1
    29   29   17 1
    30   30   18 1
    31   31   20 1
    32   32   20 1
    33   33   20 1
    34   34   22 1
    35   35   22 1
    36   36   22 1
    37   37    9 1
    38   38   24 1
    39   39   24 1
    40   40   24 1
    41   41   15 1
    42   42   15 1
    43   14   15 1
@<TRIPOS>SUBSTRUCTURE
     1 RES1 1

@<TRIPOS>CRYSIN
   9.2570    9.3060   19.5820  90.0000  90.0000  90.0000  19 1

