# MOL2 file generated by ConQuest
# Please check atom types

@<TRIPOS>MOLECULE
JATZEM
    34    36     1
SMALL
NO_CHARGES
****
Generated from CSD

@<TRIPOS>ATOM
      1 O1        10.9431    2.8247    1.4498 O.3       1 RES1    0.0000
      2 N1         6.5641   -0.4594   -2.1679 N.pl3     1 RES1    0.0000
      3 C1         9.6723    2.8467    3.4767 C.2       1 RES1    0.0000
      4 O2         8.1216    4.6403    1.2552 O.2       1 RES1    0.0000
      5 C2         8.4744    3.0832    2.9604 C.2       1 RES1    0.0000
      6 O3         6.7356   -1.6337   -1.9058 O.2       1 RES1    0.0000
      7 C3         7.3815    3.0695    3.9930 C.3       1 RES1    0.0000
      8 H1         6.6674    2.4274    3.7518 H         1 RES1    0.0000
      9 H2         6.9829    3.9694    4.1057 H         1 RES1    0.0000
     10 O4         6.0284   -0.0713   -3.1884 O.2       1 RES1    0.0000
     11 C4         8.1106    2.6336    5.2453 C.3       1 RES1    0.0000
     12 H3         7.8884    3.2378    5.9978 H         1 RES1    0.0000
     13 H4         7.8433    1.7125    5.4930 H         1 RES1    0.0000
     14 C5         9.5941    2.6837    4.9576 C.3       1 RES1    0.0000
     15 H5        10.0190    3.4494    5.4204 H         1 RES1    0.0000
     16 H6        10.0394    1.8475    5.2457 H         1 RES1    0.0000
     17 C6        10.9717    2.7762    2.7862 C.2       1 RES1    0.0000
     18 C7        12.2496    2.7239    1.0795 C.2       1 RES1    0.0000
     19 H7        12.5527    2.7352    0.1792 H         1 RES1    0.0000
     20 C8        13.0374    2.6086    2.1192 C.2       1 RES1    0.0000
     21 H8        13.9826    2.5184    2.1143 H         1 RES1    0.0000
     22 C9        12.1908    2.6450    3.2534 C.2       1 RES1    0.0000
     23 H9        12.4521    2.5866    4.1649 H         1 RES1    0.0000
     24 C10        8.1435    3.4736    1.5672 C.2       1 RES1    0.0000
     25 C11        7.7642    2.4161    0.6030 C.ar      1 RES1    0.0000
     26 C12        7.9404    1.0795    0.8732 C.ar      1 RES1    0.0000
     27 H10        8.3295    0.8180    1.6997 H         1 RES1    0.0000
     28 C13        7.5638    0.1167   -0.0298 C.ar      1 RES1    0.0000
     29 H11        7.6908   -0.8074    0.1481 H         1 RES1    0.0000
     30 C14        6.9931    0.5511   -1.2043 C.ar      1 RES1    0.0000
     31 C15        6.8085    1.8664   -1.5099 C.ar      1 RES1    0.0000
     32 H12        6.4171    2.1219   -2.3364 H         1 RES1    0.0000
     33 C16        7.1976    2.8095   -0.6029 C.ar      1 RES1    0.0000
     34 H13        7.0825    3.7321   -0.7966 H         1 RES1    0.0000
@<TRIPOS>BOND
     1    1   17 1
     2    2    6 2
     3    3    5 2
     4    4   24 2
     5    5    7 1
     6    7    8 1
     7    9    7 1
     8   10    2 2
     9   11    7 1
    10   12   11 1
    11   13   11 1
    12   14    3 1
    13   15   14 1
    14   16   14 1
    15   17    3 1
    16   18    1 1
    17   19   18 1
    18   20   18 2
    19   21   20 1
    20   22   17 2
    21   23   22 1
    22   24    5 1
    23   25   24 1
    24   26   25 ar
    25   27   26 1
    26   28   26 ar
    27   29   28 1
    28   30    2 1
    29   31   30 ar
    30   32   31 1
    31   33   25 ar
    32   34   33 1
    33   11   14 1
    34   20   22 1
    35   28   30 ar
    36   31   33 ar
@<TRIPOS>SUBSTRUCTURE
     1 RES1 1

@<TRIPOS>CRYSIN
  11.4950    7.5810   15.5170  90.0000 107.4140  90.0000  14 1

