# MOL2 file generated by ConQuest
# Please check atom types

@<TRIPOS>MOLECULE
JAVCEO04
    35    36     1
SMALL
NO_CHARGES
****
Generated from CSD

@<TRIPOS>ATOM
      1 O1         7.8216   13.5852   18.1966 O.2       1 RES1    0.0000
      2 O2         8.7026   12.7741   19.9975 O.2       1 RES1    0.0000
      3 O3         6.7751    1.7696   13.6724 O.3       1 RES1    0.0000
      4 N1         8.1239   12.6347   18.9174 N.pl3     1 RES1    0.0000
      5 C1         7.8230   11.2867   18.4566 C.ar      1 RES1    0.0000
      6 C2         8.2010   10.1965   19.2384 C.ar      1 RES1    0.0000
      7 H1         8.6742   10.3435   20.2016 H         1 RES1    0.0000
      8 C3         7.9582    8.9265   18.7574 C.ar      1 RES1    0.0000
      9 H2         8.2293    8.0691   19.3596 H         1 RES1    0.0000
     10 C4         7.3651    8.7252   17.5018 C.ar      1 RES1    0.0000
     11 C5         6.9580    9.8523   16.7682 C.ar      1 RES1    0.0000
     12 H3         6.4666    9.7191   15.8135 H         1 RES1    0.0000
     13 C6         7.1768   11.1285   17.2500 C.ar      1 RES1    0.0000
     14 H4         6.8446   11.9921   16.6869 H         1 RES1    0.0000
     15 C7         7.2415    7.3580   16.9883 C.2       1 RES1    0.0000
     16 H5         7.5141    6.5566   17.6626 H         1 RES1    0.0000
     17 C8         6.8242    7.0035   15.7670 C.2       1 RES1    0.0000
     18 H6         6.4935    7.7997   15.1105 H         1 RES1    0.0000
     19 C9         6.7726    5.6419   15.2362 C.ar      1 RES1    0.0000
     20 C10        7.1005    4.5059   16.0005 C.ar      1 RES1    0.0000
     21 H7         7.3607    4.6386   17.0436 H         1 RES1    0.0000
     22 C11        7.1041    3.2248   15.4730 C.ar      1 RES1    0.0000
     23 C12        6.7537    3.0677   14.1193 C.ar      1 RES1    0.0000
     24 C13        6.4135    4.1590   13.3409 C.ar      1 RES1    0.0000
     25 H8         6.1395    4.0240   12.3014 H         1 RES1    0.0000
     26 C14        6.4252    5.4341   13.9050 C.ar      1 RES1    0.0000
     27 H9         6.1569    6.2844   13.2902 H         1 RES1    0.0000
     28 C15        7.4530    2.0263   16.3045 C.3       1 RES1    0.0000
     29 H10        7.7060    2.3445   17.3085 H         1 RES1    0.0000
     30 H11        8.3006    1.5153   15.8633 H         1 RES1    0.0000
     31 H12        6.6054    1.3540   16.3433 H         1 RES1    0.0000
     32 C16        6.5662    1.5647   12.2681 C.3       1 RES1    0.0000
     33 H13        5.5638    1.8773   12.0024 H         1 RES1    0.0000
     34 H14        6.6905    0.5149   12.0339 H         1 RES1    0.0000
     35 H15        7.2873    2.1467   11.7086 H         1 RES1    0.0000
@<TRIPOS>BOND
     1    1    4 2
     2    2    4 2
     3    3   23 1
     4    4    5 1
     5    5    6 ar
     6    6    7 1
     7    8    6 ar
     8    9    8 1
     9   10    8 ar
    10   11   10 ar
    11   12   11 1
    12   13    5 ar
    13   14   13 1
    14   15   10 1
    15   16   15 1
    16   17   15 2
    17   18   17 1
    18   19   17 1
    19   20   19 ar
    20   21   20 1
    21   22   20 ar
    22   23   22 ar
    23   24   23 ar
    24   25   24 1
    25   26   19 ar
    26   27   26 1
    27   28   22 1
    28   29   28 1
    29   30   28 1
    30   31   28 1
    31   32    3 1
    32   33   32 1
    33   34   32 1
    34   35   32 1
    35   11   13 ar
    36   24   26 ar
@<TRIPOS>SUBSTRUCTURE
     1 RES1 1

@<TRIPOS>CRYSIN
   7.2691   14.0308   26.2290  90.0000  90.0000  90.0000  61 1

