# MOL2 file generated by ConQuest
# Please check atom types

@<TRIPOS>MOLECULE
JAVCEO02
    35    36     1
SMALL
NO_CHARGES
****
Generated from CSD

@<TRIPOS>ATOM
      1 O1         0.6368    2.6392   -1.7499 O.2       1 RES1    0.0000
      2 O2        -0.5513    3.8304   -0.3802 O.2       1 RES1    0.0000
      3 O3         3.5770   -2.9968    9.5205 O.3       1 RES1    0.0000
      4 N1         0.2432    2.9126   -0.6174 N.pl3     1 RES1    0.0000
      5 C1         0.7232    2.1123    0.5082 C.ar      1 RES1    0.0000
      6 C2         0.4447    2.5368    1.7991 C.ar      1 RES1    0.0000
      7 H1        -0.1032    3.4550    1.9739 H         1 RES1    0.0000
      8 C3         0.8800    1.7649    2.8553 C.ar      1 RES1    0.0000
      9 H2         0.6747    2.0869    3.8694 H         1 RES1    0.0000
     10 C4         1.5857    0.5679    2.6398 C.ar      1 RES1    0.0000
     11 C5         1.8586    0.1839    1.3110 C.ar      1 RES1    0.0000
     12 H3         2.4091   -0.7296    1.1238 H         1 RES1    0.0000
     13 C6         1.4349    0.9551    0.2403 C.ar      1 RES1    0.0000
     14 H4         1.6544    0.6599   -0.7784 H         1 RES1    0.0000
     15 C7         2.0493   -0.2873    3.7352 C.2       1 RES1    0.0000
     16 H5         2.5724   -1.1977    3.4722 H         1 RES1    0.0000
     17 C8         1.8742   -0.0275    5.0392 C.2       1 RES1    0.0000
     18 H6         1.3309    0.8745    5.2907 H         1 RES1    0.0000
     19 C9         2.3517   -0.8533    6.1595 C.ar      1 RES1    0.0000
     20 C10        1.9700   -0.4983    7.4639 C.ar      1 RES1    0.0000
     21 H7         1.3417    0.3715    7.6059 H         1 RES1    0.0000
     22 C11        2.3712   -1.2249    8.5797 C.ar      1 RES1    0.0000
     23 C12        3.2012   -2.3414    8.3862 C.ar      1 RES1    0.0000
     24 C13        3.6051   -2.7067    7.0982 C.ar      1 RES1    0.0000
     25 H8         4.2483   -3.5663    6.9564 H         1 RES1    0.0000
     26 C14        3.1810   -1.9676    5.9984 C.ar      1 RES1    0.0000
     27 H9         3.4982   -2.2586    5.0051 H         1 RES1    0.0000
     28 C15        1.9344   -0.8350    9.9684 C.3       1 RES1    0.0000
     29 H10        1.2893    0.0335    9.9132 H         1 RES1    0.0000
     30 H11        2.8050   -0.6009   10.5680 H         1 RES1    0.0000
     31 H12        1.3940   -1.6577   10.4219 H         1 RES1    0.0000
     32 C16        4.4606   -4.1148    9.3845 C.3       1 RES1    0.0000
     33 H13        3.9819   -4.8833    8.7908 H         1 RES1    0.0000
     34 H14        4.6950   -4.5105   10.3648 H         1 RES1    0.0000
     35 H15        5.3728   -3.7970    8.8957 H         1 RES1    0.0000
@<TRIPOS>BOND
     1    1    4 2
     2    2    4 2
     3    3   23 1
     4    4    5 1
     5    5    6 ar
     6    6    7 1
     7    8    6 ar
     8    9    8 1
     9   10    8 ar
    10   11   10 ar
    11   12   11 1
    12   13    5 ar
    13   14   13 1
    14   15   10 1
    15   16   15 1
    16   17   15 2
    17   18   17 1
    18   19   17 1
    19   20   19 ar
    20   21   20 1
    21   22   20 ar
    22   23   22 ar
    23   24   23 ar
    24   25   24 1
    25   26   19 ar
    26   27   26 1
    27   28   22 1
    28   29   28 1
    29   30   28 1
    30   31   28 1
    31   32    3 1
    32   33   32 1
    33   34   32 1
    34   35   32 1
    35   11   13 ar
    36   24   26 ar
@<TRIPOS>SUBSTRUCTURE
     1 RES1 1

@<TRIPOS>CRYSIN
  15.4037   13.4121   13.2831  90.0000  90.0000  90.0000  41 1

