# MOL2 file generated by ConQuest
# Please check atom types

@<TRIPOS>MOLECULE
JAVCEO03
   105    72     3
SMALL
NO_CHARGES
****
Generated from CSD

@<TRIPOS>ATOM
      1 O1         9.8611    3.1641    8.2058 O.2       1 RES1    0.0000
      2 O2         8.5264    4.7510    8.7988 O.2       1 RES1    0.0000
      3 O3         2.8031    3.9964   -2.5824 O.3       1 RES1    0.0000
      4 N1         8.9211    3.9208    7.9838 N.pl3     1 RES1    0.0000
      5 C1         8.2294    3.8297    6.6922 C.ar      1 RES1    0.0000
      6 C2         7.1004    4.5961    6.4800 C.ar      1 RES1    0.0000
      7 H1         6.7131    5.2320    7.2664 H         1 RES1    0.0000
      8 C3         6.4724    4.5390    5.2483 C.ar      1 RES1    0.0000
      9 H2         5.5876    5.1379    5.0687 H         1 RES1    0.0000
     10 C4         6.9735    3.7059    4.2239 C.ar      1 RES1    0.0000
     11 C5         8.1139    2.9380    4.4869 C.ar      1 RES1    0.0000
     12 H3         8.5101    2.2917    3.7128 H         1 RES1    0.0000
     13 C6         8.7473    2.9884    5.7209 C.ar      1 RES1    0.0000
     14 H4         9.6239    2.3851    5.9196 H         1 RES1    0.0000
     15 C7         6.3843    3.6340    2.8817 C.2       1 RES1    0.0000
     16 H5         6.8635    2.9714    2.1719 H         1 RES1    0.0000
     17 C8         5.3152    4.3063    2.4520 C.2       1 RES1    0.0000
     18 H6         4.8322    4.9696    3.1577 H         1 RES1    0.0000
     19 C9         4.7381    4.2247    1.1043 C.ar      1 RES1    0.0000
     20 C10        3.4918    4.8258    0.8610 C.ar      1 RES1    0.0000
     21 H7         3.0137    5.3728    1.6638 H         1 RES1    0.0000
     22 C11        2.8494    4.7473   -0.3604 C.ar      1 RES1    0.0000
     23 C12        3.4932    4.0550   -1.3999 C.ar      1 RES1    0.0000
     24 C13        4.7444    3.4739   -1.2061 C.ar      1 RES1    0.0000
     25 H8         5.2399    2.9618   -2.0217 H         1 RES1    0.0000
     26 C14        5.3575    3.5547    0.0478 C.ar      1 RES1    0.0000
     27 H9         6.3247    3.0915    0.2017 H         1 RES1    0.0000
     28 C15        1.4610    5.2950   -0.5718 C.3       1 RES1    0.0000
     29 H10        1.1440    5.8257    0.3170 H         1 RES1    0.0000
     30 H11        0.7778    4.4782   -0.7690 H         1 RES1    0.0000
     31 H12        1.4663    5.9732   -1.4151 H         1 RES1    0.0000
     32 C16        3.2847    3.1085   -3.5942 C.3       1 RES1    0.0000
     33 H13        4.2770    3.4154   -3.9009 H         1 RES1    0.0000
     34 H14        2.6181    3.1389   -4.4469 H         1 RES1    0.0000
     35 H15        3.3236    2.1005   -3.2017 H         1 RES1    0.0000
     36 O4         9.1668    7.6623   11.8659 O.2       2 RES2    0.0000
     37 O5         7.3181    7.1820   12.8573 O.2       2 RES2    0.0000
     38 O6         1.7853    8.0025    1.3406 O.3       2 RES2    0.0000
     39 N2         7.9618    7.4429   11.8524 N.pl3     2 RES2    0.0000
     40 C17        7.3309    7.5326   10.5454 C.ar      2 RES2    0.0000
     41 C18        5.9898    7.1524   10.4135 C.ar      2 RES2    0.0000
     42 H16        5.4374    6.7699   11.2628 H         2 RES2    0.0000
     43 C19        5.3835    7.2747    9.1759 C.ar      2 RES2    0.0000
     44 H17        4.3433    6.9975    9.0530 H         2 RES2    0.0000
     45 C20        6.1148    7.7579    8.0748 C.ar      2 RES2    0.0000
     46 C21        7.4512    8.1085    8.2553 C.ar      2 RES2    0.0000
     47 H18        8.0259    8.4739    7.4120 H         2 RES2    0.0000
     48 C22        8.0510    7.9973    9.4807 C.ar      2 RES2    0.0000
     49 H19        9.0892    8.2768    9.6066 H         2 RES2    0.0000
     50 C23        5.5120    7.8810    6.7249 C.2       2 RES2    0.0000
     51 H20        6.1062    8.3916    5.9772 H         2 RES2    0.0000
     52 C24        4.3314    7.4348    6.3336 C.2       2 RES2    0.0000
     53 H21        3.7386    6.9145    7.0753 H         2 RES2    0.0000
     54 C25        3.7406    7.5741    4.9929 C.ar      2 RES2    0.0000
     55 C26        2.3974    7.2287    4.8109 C.ar      2 RES2    0.0000
     56 H22        1.8455    6.8122    5.6435 H         2 RES2    0.0000
     57 C27        1.7556    7.4007    3.6067 C.ar      2 RES2    0.0000
     58 C28        2.4585    7.8884    2.5146 C.ar      2 RES2    0.0000
     59 C29        3.8326    8.2078    2.6481 C.ar      2 RES2    0.0000
     60 H23        4.3968    8.5606    1.7942 H         2 RES2    0.0000
     61 C30        4.4577    8.0640    3.8963 C.ar      2 RES2    0.0000
     62 H24        5.4997    8.3331    4.0116 H         2 RES2    0.0000
     63 C31        0.2965    7.1309    3.4368 C.3       2 RES2    0.0000
     64 H25       -0.2039    8.0374    3.1183 H         2 RES2    0.0000
     65 H26       -0.1214    6.7988    4.3786 H         2 RES2    0.0000
     66 H27        0.1576    6.3601    2.6875 H         2 RES2    0.0000
     67 C32        2.4726    8.5310    0.1775 C.3       2 RES2    0.0000
     68 H28        2.9784    9.4500    0.4444 H         2 RES2    0.0000
     69 H29        1.7525    8.7296   -0.6067 H         2 RES2    0.0000
     70 H30        3.1982    7.8076   -0.1714 H         2 RES2    0.0000
     71 O7         9.1668    7.6623   11.8659 Du        3 SUP3    0.0000
     72 O8         7.3181    7.1820   12.8573 Du        3 SUP3    0.0000
     73 O9         1.7853    8.0025    1.3406 Du        3 SUP3    0.0000
     74 N3         7.9618    7.4429   11.8524 Du        3 SUP3    0.0000
     75 C33        7.0589    7.4555   10.6425 Du        3 SUP3    0.0000
     76 C34        5.7951    7.1650   10.7547 Du        3 SUP3    0.0000
     77 H31        5.3682    6.9345   11.7239 Du        3 SUP3    0.0000
     78 C35        4.9934    7.1539    9.6021 Du        3 SUP3    0.0000
     79 H32        3.9513    6.8670    9.6779 Du        3 SUP3    0.0000
     80 C36        5.5216    7.5074    8.3629 Du        3 SUP3    0.0000
     81 C37        6.8905    7.8543    8.2583 Du        3 SUP3    0.0000
     82 H33        7.3123    8.1522    7.3058 Du        3 SUP3    0.0000
     83 C38        7.6841    7.8061    9.3958 Du        3 SUP3    0.0000
     84 H34        8.7436    8.0255    9.3457 Du        3 SUP3    0.0000
     85 C39        4.6217    7.4770    7.1936 Du        3 SUP3    0.0000
     86 H35        3.5942    7.1850    7.3710 Du        3 SUP3    0.0000
     87 C40        4.9614    7.7787    5.9378 Du        3 SUP3    0.0000
     88 H36        5.9912    8.0848    5.7952 Du        3 SUP3    0.0000
     89 C41        4.1265    7.7535    4.7062 Du        3 SUP3    0.0000
     90 C42        2.7769    7.4081    4.7169 Du        3 SUP3    0.0000
     91 H37        2.3146    7.0701    5.6360 Du        3 SUP3    0.0000
     92 C43        2.0116    7.4956    3.5414 Du        3 SUP3    0.0000
     93 C44        2.6550    7.9447    2.3766 Du        3 SUP3    0.0000
     94 C45        3.9812    8.3027    2.3645 Du        3 SUP3    0.0000
     95 H38        4.4516    8.6562    1.4560 Du        3 SUP3    0.0000
     96 C46        4.6826    8.2034    3.5141 Du        3 SUP3    0.0000
     97 H39        5.7271    8.4865    3.5066 Du        3 SUP3    0.0000
     98 C47        0.5170    7.1598    3.5521 Du        3 SUP3    0.0000
     99 H40        0.2907    6.5520    4.4196 Du        3 SUP3    0.0000
    100 H41        0.2636    6.6128    2.6527 Du        3 SUP3    0.0000
    101 H42       -0.0589    8.0759    3.5930 Du        3 SUP3    0.0000
    102 C48        2.2713    8.6733    0.2032 Du        3 SUP3    0.0000
    103 H43        2.4446    9.7146    0.4444 Du        3 SUP3    0.0000
    104 H44        1.5442    8.6036   -0.5961 Du        3 SUP3    0.0000
    105 H45        3.2012    8.2175   -0.1153 Du        3 SUP3    0.0000
@<TRIPOS>BOND
     1    1    4 2
     2    2    4 2
     3    3   23 1
     4    4    5 1
     5    5    6 ar
     6    6    7 1
     7    8    6 ar
     8    9    8 1
     9   10    8 ar
    10   11   10 ar
    11   12   11 1
    12   13    5 ar
    13   14   13 1
    14   15   10 1
    15   16   15 1
    16   17   15 2
    17   18   17 1
    18   19   17 1
    19   20   19 ar
    20   21   20 1
    21   22   20 ar
    22   23   22 ar
    23   24   23 ar
    24   25   24 1
    25   26   19 ar
    26   27   26 1
    27   28   22 1
    28   29   28 1
    29   30   28 1
    30   31   28 1
    31   32    3 1
    32   33   32 1
    33   34   32 1
    34   35   32 1
    35   36   39 2
    36   37   39 2
    37   38   58 1
    38   39   40 1
    39   40   41 ar
    40   41   42 1
    41   43   41 ar
    42   44   43 1
    43   45   43 ar
    44   46   45 ar
    45   47   46 1
    46   48   40 ar
    47   49   48 1
    48   50   45 1
    49   51   50 1
    50   52   50 2
    51   53   52 1
    52   54   52 1
    53   55   54 ar
    54   56   55 1
    55   57   55 ar
    56   58   57 ar
    57   59   58 ar
    58   60   59 1
    59   61   54 ar
    60   62   61 1
    61   63   57 1
    62   64   63 1
    63   65   63 1
    64   66   63 1
    65   67   38 1
    66   68   67 1
    67   69   67 1
    68   70   67 1
    69   11   13 ar
    70   24   26 ar
    71   46   48 ar
    72   59   61 ar
@<TRIPOS>SUBSTRUCTURE
     1 RES1 1
     2 RES2 36
     3 SUP3 71

@<TRIPOS>CRYSIN
  11.8890    7.4118   15.6083  90.0000 103.6610  90.0000   4 1

