# MOL2 file generated by ConQuest
# Please check atom types

@<TRIPOS>MOLECULE
JAVCEO01
    35    36     1
SMALL
NO_CHARGES
****
Generated from CSD

@<TRIPOS>ATOM
      1 O1         7.2261   -2.6145   -8.4904 O.2       1 RES1    0.0000
      2 O2         8.4310   -3.7878   -7.1348 O.2       1 RES1    0.0000
      3 O3         4.2352    2.9540    2.7567 O.3       1 RES1    0.0000
      4 N1         7.6198   -2.8974   -7.3779 N.pl3     1 RES1    0.0000
      5 C1         7.1426   -2.1134   -6.2279 C.ar      1 RES1    0.0000
      6 C2         7.4293   -2.5216   -4.9457 C.ar      1 RES1    0.0000
      7 C3         6.9851   -1.7834   -3.8879 C.ar      1 RES1    0.0000
      8 C4         6.2575   -0.6183   -4.0843 C.ar      1 RES1    0.0000
      9 C5         5.9614   -0.2492   -5.4239 C.ar      1 RES1    0.0000
     10 C6         6.4008   -0.9941   -6.4696 C.ar      1 RES1    0.0000
     11 C7         5.7708    0.2142   -2.9851 C.2       1 RES1    0.0000
     12 C8         5.9645    0.0081   -1.7016 C.2       1 RES1    0.0000
     13 C9         5.4637    0.8298   -0.5756 C.ar      1 RES1    0.0000
     14 C10        5.8448    0.4984    0.7065 C.ar      1 RES1    0.0000
     15 C11        5.4684    1.2110    1.8137 C.ar      1 RES1    0.0000
     16 C12        4.6116    2.3061    1.6334 C.ar      1 RES1    0.0000
     17 C13        4.1974    2.6590    0.3446 C.ar      1 RES1    0.0000
     18 C14        4.6273    1.8993   -0.7332 C.ar      1 RES1    0.0000
     19 C15        5.9409    0.8244    3.1988 C.3       1 RES1    0.0000
     20 C16        3.3485    4.0477    2.6285 C.3       1 RES1    0.0000
     21 H1         7.8435   -3.3540   -4.9150 H         1 RES1    0.0000
     22 H2         7.2450   -2.1013   -2.8715 H         1 RES1    0.0000
     23 H3         5.3235    0.4310   -5.6362 H         1 RES1    0.0000
     24 H4         6.2370   -0.7274   -7.2790 H         1 RES1    0.0000
     25 H5         5.4023    1.0911   -3.2455 H         1 RES1    0.0000
     26 H6         6.5520   -0.7813   -1.4959 H         1 RES1    0.0000
     27 H7         6.4103   -0.2559    0.8014 H         1 RES1    0.0000
     28 H8         3.4177    3.3675    0.2404 H         1 RES1    0.0000
     29 H9         4.2368    2.1417   -1.5493 H         1 RES1    0.0000
     30 H10        5.1975    0.6466    3.7130 H         1 RES1    0.0000
     31 H11        6.3315   -0.2425    3.2188 H         1 RES1    0.0000
     32 H12        6.3945    1.4952    3.6195 H         1 RES1    0.0000
     33 H13        2.4885    3.8255    2.1102 H         1 RES1    0.0000
     34 H14        3.6698    4.7145    1.9500 H         1 RES1    0.0000
     35 H15        3.2603    4.3239    3.4592 H         1 RES1    0.0000
@<TRIPOS>BOND
     1    1    4 2
     2    2    4 2
     3    3   16 1
     4    4    5 1
     5    5    6 ar
     6    6    7 ar
     7    7    8 ar
     8    8    9 ar
     9    9   10 ar
    10   10    5 ar
    11   11    8 1
    12   12   11 2
    13   13   12 1
    14   14   13 ar
    15   15   14 ar
    16   16   15 ar
    17   17   16 ar
    18   18   13 ar
    19   19   15 1
    20   20    3 1
    21   21    6 1
    22   22    7 1
    23   23    9 1
    24   24   10 1
    25   25   11 1
    26   26   12 1
    27   27   14 1
    28   28   17 1
    29   29   18 1
    30   30   19 1
    31   31   19 1
    32   32   19 1
    33   33   20 1
    34   34   20 1
    35   35   20 1
    36   17   18 ar
@<TRIPOS>SUBSTRUCTURE
     1 RES1 1

@<TRIPOS>CRYSIN
  15.7500   13.4700   13.3560  90.0000  90.0000  90.0000  41 1

