# MOL2 file generated by ConQuest
# Please check atom types

@<TRIPOS>MOLECULE
JAWBUE
    82    88     2
SMALL
NO_CHARGES
****
Generated from CSD

@<TRIPOS>ATOM
      1 N1        -7.4747   12.4416    1.4631 N.pl3     1 RES1    0.0000
      2 O1        -3.3662    7.9282    0.6810 O.3       1 RES1    0.0000
      3 O2        -2.7835    9.6333    1.9454 O.2       1 RES1    0.0000
      4 O3        -3.1073   10.1958   -2.7329 O.3       1 RES1    0.0000
      5 O4        -1.0295   11.1393   -2.3391 O.3       1 RES1    0.0000
      6 O5        -8.2075   12.9767    2.2533 O.2       1 RES1    0.0000
      7 O6        -7.8757   11.7307    0.5798 O.2       1 RES1    0.0000
      8 C1        -3.0721    9.2675    0.8309 C.2       1 RES1    0.0000
      9 C2        -3.1061   10.1132   -0.3432 C.2       1 RES1    0.0000
     10 C3        -3.2779    9.5442   -1.5633 C.2       1 RES1    0.0000
     11 C4        -4.1145    7.6087   -2.8928 C.ar      1 RES1    0.0000
     12 C5        -4.6007    6.3232   -2.9226 C.ar      1 RES1    0.0000
     13 C6        -4.6435    5.5714   -1.7575 C.ar      1 RES1    0.0000
     14 C7        -4.2090    6.0998   -0.5563 C.ar      1 RES1    0.0000
     15 C8        -3.7597    7.4080   -0.5329 C.ar      1 RES1    0.0000
     16 C9        -3.6944    8.1766   -1.6844 C.ar      1 RES1    0.0000
     17 C10       -2.8425   11.5865   -0.1734 C.3       1 RES1    0.0000
     18 C11       -2.9459   12.2778   -1.5381 C.3       1 RES1    0.0000
     19 C12       -2.3599   11.4428   -2.6598 C.3       1 RES1    0.0000
     20 C13       -2.5151   12.0711   -4.0190 C.3       1 RES1    0.0000
     21 C14       -3.8180   12.2546    0.7848 C.ar      1 RES1    0.0000
     22 C15       -5.1829   12.0497    0.6728 C.ar      1 RES1    0.0000
     23 C16       -6.0271   12.6741    1.5742 C.ar      1 RES1    0.0000
     24 C17       -5.5765   13.5030    2.5703 C.ar      1 RES1    0.0000
     25 C18       -4.2341   13.7478    2.6363 C.ar      1 RES1    0.0000
     26 C19       -3.3580   13.1308    1.7539 C.ar      1 RES1    0.0000
     27 N2        -4.3314    3.7138    3.2287 N.pl3     2 RES2    0.0000
     28 O7         0.7387    1.5092    4.8381 O.3       2 RES2    0.0000
     29 O8         0.6995    3.6633    4.4254 O.2       2 RES2    0.0000
     30 O9        -1.0309    2.0427    8.5031 O.3       2 RES2    0.0000
     31 O10        0.1262    3.8503    9.3710 O.3       2 RES2    0.0000
     32 O11       -4.6132    2.6499    3.7598 O.2       2 RES2    0.0000
     33 O12       -4.8350    4.0841    2.1802 O.2       2 RES2    0.0000
     34 C20        0.3728    2.7800    5.1931 C.2       2 RES2    0.0000
     35 C21       -0.3539    2.9837    6.4195 C.2       2 RES2    0.0000
     36 C22       -0.5043    1.9442    7.2775 C.2       2 RES2    0.0000
     37 C23       -0.2859   -0.5207    7.7083 C.ar      2 RES2    0.0000
     38 C24        0.0979   -1.7659    7.2549 C.ar      2 RES2    0.0000
     39 C25        0.6579   -1.9057    5.9969 C.ar      2 RES2    0.0000
     40 C26        0.8686   -0.8177    5.1922 C.ar      2 RES2    0.0000
     41 C27        0.4823    0.4366    5.6528 C.ar      2 RES2    0.0000
     42 C28       -0.0991    0.6060    6.8964 C.ar      2 RES2    0.0000
     43 C29       -0.8727    4.3682    6.7212 C.3       2 RES2    0.0000
     44 C30       -1.7387    4.3090    7.9955 C.3       2 RES2    0.0000
     45 C31       -1.1496    3.4037    9.0531 C.3       2 RES2    0.0000
     46 C32       -2.0382    3.2353   10.2633 C.3       2 RES2    0.0000
     47 C33       -1.7015    4.9149    5.5742 C.ar      2 RES2    0.0000
     48 C34       -2.6411    4.0970    4.9483 C.ar      2 RES2    0.0000
     49 C35       -3.3704    4.5956    3.8925 C.ar      2 RES2    0.0000
     50 C36       -3.2432    5.8972    3.4374 C.ar      2 RES2    0.0000
     51 C37       -2.3362    6.7176    4.0858 C.ar      2 RES2    0.0000
     52 C38       -1.5762    6.2275    5.1326 C.ar      2 RES2    0.0000
     53 H1        -0.5287   11.0147   -3.1339 H         1 RES1    0.0000
     54 H2        -4.0295    8.1625   -3.7029 H         1 RES1    0.0000
     55 H3        -4.9364    5.9475   -3.7842 H         1 RES1    0.0000
     56 H4        -5.0427    4.6734   -1.7973 H         1 RES1    0.0000
     57 H5        -4.1794    5.6406    0.2890 H         1 RES1    0.0000
     58 H6        -1.9297   11.7430    0.1897 H         1 RES1    0.0000
     59 H7        -2.4739   13.1970   -1.5444 H         1 RES1    0.0000
     60 H8        -3.8984   12.4150   -1.7340 H         1 RES1    0.0000
     61 H9        -2.2432   11.4589   -4.6873 H         1 RES1    0.0000
     62 H10       -1.9376   12.9715   -4.0551 H         1 RES1    0.0000
     63 H11       -3.4320   12.2986   -4.1996 H         1 RES1    0.0000
     64 H12       -5.6133   11.4645    0.0181 H         1 RES1    0.0000
     65 H13       -6.1979   13.8979    3.1520 H         1 RES1    0.0000
     66 H14       -3.8717   14.3210    3.4229 H         1 RES1    0.0000
     67 H15       -2.3428   13.4179    1.7882 H         1 RES1    0.0000
     68 H16        0.4498    3.3417    9.9707 H         2 RES2    0.0000
     69 H17       -0.7375   -0.4129    8.5528 H         2 RES2    0.0000
     70 H18       -0.2225   -2.6287    7.7851 H         2 RES2    0.0000
     71 H19        0.9475   -2.8295    5.6988 H         2 RES2    0.0000
     72 H20        1.2658   -0.8277    4.3712 H         2 RES2    0.0000
     73 H21       -0.0976    4.9584    6.9271 H         2 RES2    0.0000
     74 H22       -2.6391    3.9114    7.7580 H         2 RES2    0.0000
     75 H23       -1.8488    5.2149    8.4354 H         2 RES2    0.0000
     76 H24       -2.8795    2.8225    9.9617 H         2 RES2    0.0000
     77 H25       -2.0821    4.1076   10.6661 H         2 RES2    0.0000
     78 H26       -1.6577    2.6167   10.8738 H         2 RES2    0.0000
     79 H27       -2.7559    3.2140    5.2111 H         2 RES2    0.0000
     80 H28       -3.7693    6.2408    2.7094 H         2 RES2    0.0000
     81 H29       -2.2137    7.6150    3.7932 H         2 RES2    0.0000
     82 H30       -0.9116    6.7552    5.6175 H         2 RES2    0.0000
@<TRIPOS>BOND
     1    1    6 2
     2    2    8 1
     3    3    8 2
     4    4   10 1
     5    5   19 1
     6    7    1 2
     7    8    9 1
     8    9   10 2
     9   10   16 1
    10   11   12 ar
    11   12   13 ar
    12   13   14 ar
    13   14   15 ar
    14   15    2 1
    15   16   11 ar
    16   17    9 1
    17   18   17 1
    18   19    4 1
    19   20   19 1
    20   21   17 1
    21   22   21 ar
    22   23    1 1
    23   24   23 ar
    24   25   24 ar
    25   26   21 ar
    26   27   32 2
    27   28   34 1
    28   29   34 2
    29   30   36 1
    30   31   45 1
    31   33   27 2
    32   34   35 1
    33   35   36 2
    34   36   42 1
    35   37   38 ar
    36   38   39 ar
    37   39   40 ar
    38   40   41 ar
    39   41   28 1
    40   42   37 ar
    41   43   35 1
    42   44   43 1
    43   45   30 1
    44   46   45 1
    45   47   43 1
    46   48   47 ar
    47   49   27 1
    48   50   49 ar
    49   51   50 ar
    50   52   47 ar
    51   53    5 1
    52   54   11 1
    53   55   12 1
    54   56   13 1
    55   57   14 1
    56   58   17 1
    57   59   18 1
    58   60   18 1
    59   61   20 1
    60   62   20 1
    61   63   20 1
    62   64   22 1
    63   65   24 1
    64   66   25 1
    65   67   26 1
    66   68   31 1
    67   69   37 1
    68   70   38 1
    69   71   39 1
    70   72   40 1
    71   73   43 1
    72   74   44 1
    73   75   44 1
    74   76   46 1
    75   77   46 1
    76   78   46 1
    77   79   48 1
    78   80   50 1
    79   81   51 1
    80   82   52 1
    81   15   16 ar
    82   18   19 1
    83   22   23 ar
    84   25   26 ar
    85   41   42 ar
    86   44   45 1
    87   48   49 ar
    88   51   52 ar
@<TRIPOS>SUBSTRUCTURE
     1 RES1 1
     2 RES2 27

@<TRIPOS>CRYSIN
  12.4680   14.5310    9.2180  99.0000  98.0300  84.3500   2 1

