# MOL2 file generated by ConQuest
# Please check atom types

@<TRIPOS>MOLECULE
JAWCAM
    46    47     1
SMALL
NO_CHARGES
****
Generated from CSD

@<TRIPOS>ATOM
      1 O1         3.7775   16.3021    7.6537 O.3       1 RES1    0.0000
      2 O2         2.5930   20.6596    7.6399 O.2       1 RES1    0.0000
      3 O3         3.2985   19.7881    5.7297 O.3       1 RES1    0.0000
      4 O4         5.5202   18.1266   12.3869 O.2       1 RES1    0.0000
      5 O5         7.3922   18.1364   11.2016 O.3       1 RES1    0.0000
      6 O6         6.6428   20.3311    9.2501 O.2       1 RES1    0.0000
      7 O7         7.7667   19.1682    7.6625 O.3       1 RES1    0.0000
      8 N1         3.6075   17.4319    6.8668 N.2       1 RES1    0.0000
      9 N2         6.2025   18.1570    8.8389 N.am      1 RES1    0.0000
     10 C1         3.5068   16.6302    9.0612 C.3       1 RES1    0.0000
     11 C2         5.3479   17.9435   10.0065 C.3       1 RES1    0.0000
     12 C3         4.7559   16.5033    9.9003 C.3       1 RES1    0.0000
     13 C4         4.0928   18.8201    9.9868 C.3       1 RES1    0.0000
     14 C5         3.1244   18.1110    9.0760 C.3       1 RES1    0.0000
     15 C6         3.2507   18.4105    7.6006 C.2       1 RES1    0.0000
     16 C7         3.0198   19.7339    7.0074 C.2       1 RES1    0.0000
     17 C8         6.0920   18.0958   11.3226 C.2       1 RES1    0.0000
     18 C9         6.8799   19.3075    8.6442 C.2       1 RES1    0.0000
     19 C10        8.6418   20.2856    7.2356 C.3       1 RES1    0.0000
     20 C11        9.4506   19.6696    6.1231 C.3       1 RES1    0.0000
     21 H1         8.8800   19.4970    5.3706 H         1 RES1    0.0000
     22 H2         9.8364   18.8455    6.4271 H         1 RES1    0.0000
     23 H3        10.1501   20.2738    5.8625 H         1 RES1    0.0000
     24 C12        7.8200   21.4347    6.7586 C.3       1 RES1    0.0000
     25 H4         7.3326   21.8087    7.4963 H         1 RES1    0.0000
     26 H5         7.2024   21.1301    6.0897 H         1 RES1    0.0000
     27 H6         8.3944   22.1048    6.3818 H         1 RES1    0.0000
     28 C13        9.5277   20.6799    8.3766 C.3       1 RES1    0.0000
     29 H7         9.9291   19.8930    8.7563 H         1 RES1    0.0000
     30 H8         9.0074   21.1284    9.0465 H         1 RES1    0.0000
     31 H9        10.2166   21.2688    8.0599 H         1 RES1    0.0000
     32 C14        8.1646   18.4427   12.4459 C.3       1 RES1    0.0000
     33 H10        8.8137   19.1281   12.2256 H         1 RES1    0.0000
     34 H11        7.5472   18.8302   13.0853 H         1 RES1    0.0000
     35 C15        8.7491   17.5559   13.0037 C.3       1 RES1    0.0000
     36 H12        9.3839   17.1633   12.3968 H         1 RES1    0.0000
     37 H13        8.1223   16.8875   13.2860 H         1 RES1    0.0000
     38 H14        9.2126   17.9079   13.7650 H         1 RES1    0.0000
     39 H15        4.3676   16.2292   10.7905 H         1 RES1    0.0000
     40 H16        5.5408   15.9076    9.5511 H         1 RES1    0.0000
     41 H17        2.8726   15.9922    9.3249 H         1 RES1    0.0000
     42 H18        2.1399   18.2599    9.3150 H         1 RES1    0.0000
     43 H19        3.7635   18.8167   10.8987 H         1 RES1    0.0000
     44 H20        4.3695   19.7491    9.6888 H         1 RES1    0.0000
     45 H21        6.4319   17.4645    8.4002 H         1 RES1    0.0000
     46 H22        3.1906   20.6122    5.1838 H         1 RES1    0.0000
@<TRIPOS>BOND
     1    1    8 1
     2    2   16 2
     3    3   16 1
     4    4   17 2
     5    5   17 1
     6    6   18 2
     7    7   18 1
     8    8   15 2
     9    9   11 1
    10   10    1 1
    11   11   12 1
    12   12   10 1
    13   13   11 1
    14   14   10 1
    15   15   14 1
    16   16   15 1
    17   17   11 1
    18   18    9 1
    19   19    7 1
    20   20   19 1
    21   21   20 1
    22   22   20 1
    23   23   20 1
    24   24   19 1
    25   25   24 1
    26   26   24 1
    27   27   24 1
    28   28   19 1
    29   29   28 1
    30   30   28 1
    31   31   28 1
    32   32    5 1
    33   33   32 1
    34   34   32 1
    35   35   32 1
    36   36   35 1
    37   37   35 1
    38   38   35 1
    39   39   12 1
    40   40   12 1
    41   41   10 1
    42   42   14 1
    43   43   13 1
    44   44   13 1
    45   45    9 1
    46   46    3 1
    47   13   14 1
@<TRIPOS>SUBSTRUCTURE
     1 RES1 1

@<TRIPOS>CRYSIN
  10.5140   16.9230   10.3760  90.0000 108.5600  90.0000   9 1

