# MOL2 file generated by ConQuest
# Please check atom types

@<TRIPOS>MOLECULE
JAWKIC
    35    37     1
SMALL
NO_CHARGES
****
Generated from CSD

@<TRIPOS>ATOM
      1 O1        -1.8571    4.6076    8.6963 O.2       1 RES1    0.0000
      2 N1         2.7169    2.7720    4.8315 N.3       1 RES1    0.0000
      3 C1        -0.3163    3.4667    6.7726 C.ar      1 RES1    0.0000
      4 H1        -1.2352    3.3353    6.7215 H         1 RES1    0.0000
      5 N2        -0.6511    4.6550    8.8791 N.pl3     1 RES1    0.0000
      6 O2        -0.1482    5.1270    9.8814 O.2       1 RES1    0.0000
      7 C2         1.3834    2.5828    2.7473 C.ar      1 RES1    0.0000
      8 C3         0.5015    3.0050    5.7799 C.ar      1 RES1    0.0000
      9 H2         0.1368    2.5590    5.0493 H         1 RES1    0.0000
     10 N3         4.0726    2.7997    5.0486 N.2       1 RES1    0.0000
     11 C4         2.4078    3.8769    6.9580 C.ar      1 RES1    0.0000
     12 H3         3.3253    4.0164    7.0195 H         1 RES1    0.0000
     13 C5         1.8864    3.1998    5.8545 C.ar      1 RES1    0.0000
     14 C6         1.5914    4.3364    7.9467 C.ar      1 RES1    0.0000
     15 H4         1.9476    4.7859    8.6795 H         1 RES1    0.0000
     16 C7         2.3843    1.9179    3.6657 C.3       1 RES1    0.0000
     17 C8         0.2322    4.1300    7.8517 C.ar      1 RES1    0.0000
     18 N4         4.7066    2.2949    4.1051 N.2       1 RES1    0.0000
     19 C9         0.5478    1.8234    1.9568 C.ar      1 RES1    0.0000
     20 H5         0.5777    0.8953    2.0170 H         1 RES1    0.0000
     21 C10        1.9996    0.5269    4.1450 C.3       1 RES1    0.0000
     22 H6         2.6408    0.2233    4.7929 H         1 RES1    0.0000
     23 H7         1.9882   -0.0771    3.3980 H         1 RES1    0.0000
     24 H8         1.1284    0.5564    4.5468 H         1 RES1    0.0000
     25 C11        1.2965    3.9564    2.6392 C.ar      1 RES1    0.0000
     26 H9         1.8607    4.4946    3.1450 H         1 RES1    0.0000
     27 C12       -0.4217    3.7682    0.9969 C.ar      1 RES1    0.0000
     28 H10       -1.0244    4.1626    0.4089 H         1 RES1    0.0000
     29 C13        0.3776    4.5387    1.7842 C.ar      1 RES1    0.0000
     30 H11        0.3056    5.4647    1.7466 H         1 RES1    0.0000
     31 C14       -0.3305    2.4184    1.0785 C.ar      1 RES1    0.0000
     32 H12       -0.8670    1.8881    0.5354 H         1 RES1    0.0000
     33 C15        3.7991    1.8994    3.0429 C.3       1 RES1    0.0000
     34 H13        4.0185    1.0120    2.7205 H         1 RES1    0.0000
     35 H14        3.8525    2.5216    2.3011 H         1 RES1    0.0000
@<TRIPOS>BOND
     1    1    5 2
     2    2   10 1
     3    3    4 1
     4    5    6 2
     5    7   16 1
     6    8    3 ar
     7    9    8 1
     8   10   18 2
     9   11   12 1
    10   13    2 1
    11   14   11 ar
    12   15   14 1
    13   16    2 1
    14   17    3 ar
    15   18   33 1
    16   19    7 ar
    17   20   19 1
    18   21   16 1
    19   22   21 1
    20   23   21 1
    21   24   21 1
    22   25    7 ar
    23   26   25 1
    24   27   28 1
    25   29   25 ar
    26   30   29 1
    27   31   19 ar
    28   32   31 1
    29   33   16 1
    30   34   33 1
    31   35   33 1
    32    5   17 1
    33    8   13 ar
    34   11   13 ar
    35   14   17 ar
    36   27   29 ar
    37   27   31 ar
@<TRIPOS>SUBSTRUCTURE
     1 RES1 1

@<TRIPOS>CRYSIN
   7.1237   11.3329   17.3278  90.0000  90.0000  90.0000  19 1

