# MOL2 file generated by ConQuest
# Please check atom types

@<TRIPOS>MOLECULE
JAXNEE
    37    39     1
SMALL
NO_CHARGES
****
Generated from CSD

@<TRIPOS>ATOM
      1 O1         4.6874    2.6814    1.1791 O.3       1 RES1    0.0000
      2 H1         4.9278    2.6786    0.3945 H         1 RES1    0.0000
      3 N1         2.8085    2.6507    3.2408 N.pl3     1 RES1    0.0000
      4 O2         2.6155    5.7079    7.8444 O.3       1 RES1    0.0000
      5 O3         7.1059    5.4501    1.5005 O.2       1 RES1    0.0000
      6 O4         3.9114    3.6851    9.3532 O.3       1 RES1    0.0000
      7 O5         3.3278    1.6390    3.6389 O.2       1 RES1    0.0000
      8 C1         3.9672    3.8699    1.4467 C.3       1 RES1    0.0000
      9 H2         3.1313    3.8710    0.9344 H         1 RES1    0.0000
     10 O6         5.3287    2.0981    8.4484 O.3       1 RES1    0.0000
     11 C2         3.6535    3.8699    2.9447 C.3       1 RES1    0.0000
     12 H3         3.1262    4.6694    3.1499 H         1 RES1    0.0000
     13 C3         4.9155    3.8847    3.8154 C.3       1 RES1    0.0000
     14 H4         5.4349    3.0795    3.6082 H         1 RES1    0.0000
     15 C4         4.6071    3.8716    5.3077 C.ar      1 RES1    0.0000
     16 C5         3.7467    4.8137    5.8468 C.ar      1 RES1    0.0000
     17 H5         3.3614    5.4484    5.2877 H         1 RES1    0.0000
     18 C6         6.0027    5.2409    1.9551 C.2       1 RES1    0.0000
     19 C7         4.7759    5.0989    1.1032 C.3       1 RES1    0.0000
     20 H6         5.0410    5.0532    0.1713 H         1 RES1    0.0000
     21 H7         4.2199    5.8858    1.2153 H         1 RES1    0.0000
     22 C8         3.4425    4.8342    7.2182 C.ar      1 RES1    0.0000
     23 C9         4.8895    2.9398    7.4598 C.ar      1 RES1    0.0000
     24 C10        5.2043    2.9039    6.1142 C.ar      1 RES1    0.0000
     25 H8         5.7847    2.2663    5.7639 H         1 RES1    0.0000
     26 O7         1.6314    2.7157    2.9778 O.2       1 RES1    0.0000
     27 C11        4.0421    3.8665    7.9978 C.ar      1 RES1    0.0000
     28 C12        5.7669    5.1074    3.4352 C.3       1 RES1    0.0000
     29 H9         5.3245    5.9087    3.7556 H         1 RES1    0.0000
     30 H10        6.6243    5.0441    3.8851 H         1 RES1    0.0000
     31 C13        4.5460    2.4294    9.6056 C.3       1 RES1    0.0000
     32 H11        3.8790    1.7433    9.7666 H         1 RES1    0.0000
     33 H12        5.1162    2.4933   10.3882 H         1 RES1    0.0000
     34 C14        1.8855    6.6101    7.0359 C.3       1 RES1    0.0000
     35 H13        2.4941    7.1245    6.5011 H         1 RES1    0.0000
     36 H14        1.3745    7.1992    7.5949 H         1 RES1    0.0000
     37 H15        1.2927    6.1185    6.4632 H         1 RES1    0.0000
@<TRIPOS>BOND
     1    1    2 1
     2    3    7 2
     3    4   22 1
     4    5   18 2
     5    6   27 1
     6    8    1 1
     7    9    8 1
     8   10   23 1
     9   11    3 1
    10   12   11 1
    11   13   11 1
    12   14   13 1
    13   15   13 1
    14   16   15 ar
    15   17   16 1
    16   18   19 1
    17   19    8 1
    18   20   19 1
    19   21   19 1
    20   22   16 ar
    21   23   24 ar
    22   24   15 ar
    23   25   24 1
    24   26    3 2
    25   27   22 ar
    26   28   13 1
    27   29   28 1
    28   30   28 1
    29   31    6 1
    30   32   31 1
    31   33   31 1
    32   34    4 1
    33   35   34 1
    34   36   34 1
    35   37   34 1
    36    8   11 1
    37   10   31 1
    38   18   28 1
    39   23   27 ar
@<TRIPOS>SUBSTRUCTURE
     1 RES1 1

@<TRIPOS>CRYSIN
   6.2115    5.7028   19.9440  90.0000  92.5859  90.0000   4 1

