# MOL2 file generated by ConQuest
# Please check atom types

@<TRIPOS>MOLECULE
JAXNAA
    35    36     1
SMALL
NO_CHARGES
****
Generated from CSD

@<TRIPOS>ATOM
      1 H1         1.2174   -1.9674   -4.2151 H         1 RES1    0.0000
      2 H2         0.7971   -2.3784    0.4313 H         1 RES1    0.0000
      3 H3         1.5614   -3.8943   -0.2663 H         1 RES1    0.0000
      4 H4        -1.9162   -4.5681   -4.6576 H         1 RES1    0.0000
      5 H5         0.5077   -2.6479   -6.3639 H         1 RES1    0.0000
      6 H6        -1.1792   -4.8915   -6.7502 H         1 RES1    0.0000
      7 H7        -0.2238   -4.2649   -7.8752 H         1 RES1    0.0000
      8 H8        -2.3694   -2.6411   -6.5664 H         1 RES1    0.0000
      9 H9        -1.4358   -1.3138   -6.0789 H         1 RES1    0.0000
     10 C1        -0.3882   -3.2347   -4.6700 C.ar      1 RES1    0.0000
     11 C2         0.5328   -2.5670   -3.8690 C.ar      1 RES1    0.0000
     12 C3         0.4357   -2.7779   -2.5118 C.ar      1 RES1    0.0000
     13 C4         0.8877   -2.9976   -0.3345 C.3       1 RES1    0.0000
     14 C5        -0.4963   -3.5952   -1.9470 C.ar      1 RES1    0.0000
     15 C6        -1.4173   -4.2716   -2.7196 C.ar      1 RES1    0.0000
     16 C7        -1.3376   -4.0789   -4.0925 C.ar      1 RES1    0.0000
     17 C8        -0.3865   -4.3727   -6.9309 C.3       1 RES1    0.0000
     18 N1         0.7212   -5.2863   -6.5199 N.pl3     1 RES1    0.0000
     19 C9        -1.4779   -2.1527   -6.6710 C.3       1 RES1    0.0000
     20 C10       -1.3092   -1.6386   -8.0818 C.2       1 RES1    0.0000
     21 C11       -2.3705   -0.7337   -8.5993 C.3       1 RES1    0.0000
     22 H10       -2.3858    0.0606   -8.0814 H         1 RES1    0.0000
     23 H11       -3.2101   -1.1656   -8.5390 H         1 RES1    0.0000
     24 H12       -2.1892   -0.5188   -9.5065 H         1 RES1    0.0000
     25 C12       -3.1435   -5.8967   -2.8538 C.3       1 RES1    0.0000
     26 H13       -3.7397   -5.3227   -3.4013 H         1 RES1    0.0000
     27 H14       -3.6960   -6.4748   -2.2576 H         1 RES1    0.0000
     28 H15       -2.5932   -6.4681   -3.4501 H         1 RES1    0.0000
     29 C13       -0.3379   -3.0568   -6.1696 C.3       1 RES1    0.0000
     30 O1         1.2305   -2.2328   -1.5169 O.3       1 RES1    0.0000
     31 O2        -0.3772   -3.6134   -0.5756 O.3       1 RES1    0.0000
     32 O3         1.8524   -4.8403   -6.5473 O.2       1 RES1    0.0000
     33 O4         0.4640   -6.4223   -6.2199 O.2       1 RES1    0.0000
     34 O5        -0.3521   -1.9472   -8.7595 O.2       1 RES1    0.0000
     35 O6        -2.2984   -5.0862   -2.0730 O.3       1 RES1    0.0000
@<TRIPOS>BOND
     1    1   11 1
     2    2   13 1
     3    3   13 1
     4    4   16 1
     5    5   29 1
     6    6   17 1
     7    7   17 1
     8    8   19 1
     9    9   19 1
    10   10   11 ar
    11   11   12 ar
    12   12   14 ar
    13   13   30 1
    14   14   15 ar
    15   15   16 ar
    16   16   10 ar
    17   17   18 1
    18   18   32 2
    19   19   20 1
    20   20   21 1
    21   21   22 1
    22   23   21 1
    23   24   21 1
    24   25   26 1
    25   27   25 1
    26   28   25 1
    27   29   10 1
    28   30   12 1
    29   31   13 1
    30   33   18 2
    31   34   20 2
    32   35   15 1
    33   14   31 1
    34   17   29 1
    35   19   29 1
    36   25   35 1
@<TRIPOS>SUBSTRUCTURE
     1 RES1 1

@<TRIPOS>CRYSIN
   5.4594    6.7376   37.5009  90.0000  90.0000  90.0000  19 1

