# MOL2 file generated by ConQuest
# Please check atom types

@<TRIPOS>MOLECULE
JAXTOS
    41    42     1
SMALL
NO_CHARGES
****
Generated from CSD

@<TRIPOS>ATOM
      1 N1         5.1428    9.5461    3.1127 N.2       1 RES1    0.0000
      2 O1         6.1762    9.2067    2.5085 O.2       1 RES1    0.0000
      3 N2         4.7425    8.6971    4.0319 N.3       1 RES1    0.0000
      4 C1         3.6064    9.1554    4.8235 C.3       1 RES1    0.0000
      5 H1         3.4811   10.1055    4.6737 H         1 RES1    0.0000
      6 H2         3.8065    9.0277    5.7641 H         1 RES1    0.0000
      7 C2         2.3216    8.4342    4.4949 C.3       1 RES1    0.0000
      8 H3         1.5770    8.8684    4.9408 H         1 RES1    0.0000
      9 H4         2.1622    8.4650    3.5380 H         1 RES1    0.0000
     10 O2         2.4193    7.0863    4.9235 O.3       1 RES1    0.0000
     11 C3         1.2899    6.3316    4.5137 C.3       1 RES1    0.0000
     12 H5         1.2567    6.2867    3.5457 H         1 RES1    0.0000
     13 H6         0.4764    6.7563    4.8278 H         1 RES1    0.0000
     14 C4         1.3986    4.9545    5.0845 C.3       1 RES1    0.0000
     15 H7         1.5189    4.9979    6.0457 H         1 RES1    0.0000
     16 H8         0.5935    4.4477    4.8963 H         1 RES1    0.0000
     17 O3         2.5357    4.3291    4.4683 O.3       1 RES1    0.0000
     18 C5         2.8951    3.1005    4.9408 C.ar      1 RES1    0.0000
     19 C6         4.0787    2.5676    4.3965 C.ar      1 RES1    0.0000
     20 O4         4.6979    3.3616    3.4658 O.3       1 RES1    0.0000
     21 C7         6.1006    3.1885    3.2736 C.3       1 RES1    0.0000
     22 H9         6.2691    2.4390    2.6822 H         1 RES1    0.0000
     23 H10        6.5381    3.0161    4.1217 H         1 RES1    0.0000
     24 C8         6.6252    4.4648    2.6634 C.3       1 RES1    0.0000
     25 H11        7.5515    4.3380    2.4049 H         1 RES1    0.0000
     26 H12        6.1172    4.6690    1.8623 H         1 RES1    0.0000
     27 O5         6.5362    5.5631    3.5653 O.3       1 RES1    0.0000
     28 C9         5.3719    6.3765    3.4062 C.3       1 RES1    0.0000
     29 H13        4.5709    5.8688    3.6108 H         1 RES1    0.0000
     30 H14        5.3080    6.7067    2.4965 H         1 RES1    0.0000
     31 C10        5.5404    7.5261    4.3828 C.3       1 RES1    0.0000
     32 H15        5.2872    7.2259    5.2694 H         1 RES1    0.0000
     33 H16        6.4766    7.7803    4.4119 H         1 RES1    0.0000
     34 C11        2.2054    2.3860    5.8959 C.ar      1 RES1    0.0000
     35 H17        1.4243    2.7348    6.2605 H         1 RES1    0.0000
     36 C12        2.6735    1.1475    6.3135 C.ar      1 RES1    0.0000
     37 H18        2.2128    0.6765    6.9708 H         1 RES1    0.0000
     38 C13        3.8139    0.6138    5.7632 C.ar      1 RES1    0.0000
     39 H19        4.1136   -0.2234    6.0362 H         1 RES1    0.0000
     40 C14        4.5219    1.3254    4.7961 C.ar      1 RES1    0.0000
     41 H20        5.2922    0.9619    4.4213 H         1 RES1    0.0000
@<TRIPOS>BOND
     1    1    2 2
     2    3    1 1
     3    4    3 1
     4    5    4 1
     5    6    4 1
     6    7    4 1
     7    8    7 1
     8    9    7 1
     9   10    7 1
    10   11   10 1
    11   12   11 1
    12   13   11 1
    13   14   11 1
    14   15   14 1
    15   16   14 1
    16   17   14 1
    17   18   17 1
    18   19   18 ar
    19   20   19 1
    20   21   20 1
    21   22   21 1
    22   23   21 1
    23   24   21 1
    24   25   24 1
    25   26   24 1
    26   27   24 1
    27   28   27 1
    28   29   28 1
    29   30   28 1
    30   31    3 1
    31   32   31 1
    32   33   31 1
    33   34   18 ar
    34   35   34 1
    35   36   34 ar
    36   37   36 1
    37   38   36 ar
    38   39   38 1
    39   40   19 ar
    40   41   40 1
    41   28   31 1
    42   38   40 ar
@<TRIPOS>SUBSTRUCTURE
     1 RES1 1

@<TRIPOS>CRYSIN
   8.3002   20.6868    8.5584  90.0000  90.0000  90.0000  29 1

