# MOL2 file generated by ConQuest
# Please check atom types

@<TRIPOS>MOLECULE
JAXTAE01
    32    33     1
SMALL
NO_CHARGES
****
Generated from CSD

@<TRIPOS>ATOM
      1 O1        -3.0780    2.1020    8.3893 O.2       1 RES1    0.0000
      2 O2        -4.4971    0.8520    7.3335 O.2       1 RES1    0.0000
      3 N1         1.1228    3.5234    6.2454 N.2       1 RES1    0.0000
      4 N2        -3.4521    1.4964    7.3847 N.pl3     1 RES1    0.0000
      5 C1        -0.5591    2.2254    5.1470 C.ar      1 RES1    0.0000
      6 C2        -1.3987    2.2009    6.2733 C.ar      1 RES1    0.0000
      7 C3        -2.6055    1.5454    6.1839 C.ar      1 RES1    0.0000
      8 C4        -3.0385    0.9013    5.0395 C.ar      1 RES1    0.0000
      9 C5        -2.1968    0.9227    3.9304 C.ar      1 RES1    0.0000
     10 C6        -0.9740    1.5755    3.9832 C.ar      1 RES1    0.0000
     11 C7         0.7424    2.8964    5.1968 C.2       1 RES1    0.0000
     12 H1        -1.1388    2.6284    7.0806 H         1 RES1    0.0000
     13 H2        -3.8791    0.4602    5.0111 H         1 RES1    0.0000
     14 H3        -2.4630    0.4854    3.1301 H         1 RES1    0.0000
     15 H4        -0.4120    1.5805    3.2176 H         1 RES1    0.0000
     16 H5         1.3129    2.8657    4.4383 H         1 RES1    0.0000
     17 O1B        6.5992    5.5298    3.9291 O.2       1 RES1    0.0000
     18 O2B        8.0184    6.7798    4.9849 O.2       1 RES1    0.0000
     19 N1B        2.3985    4.1084    6.0730 N.2       1 RES1    0.0000
     20 N2B        6.9733    6.1354    4.9338 N.pl3     1 RES1    0.0000
     21 C1B        4.0804    5.4064    7.1714 C.ar      1 RES1    0.0000
     22 C2B        4.9200    5.4309    6.0451 C.ar      1 RES1    0.0000
     23 C3B        6.1268    6.0864    6.1346 C.ar      1 RES1    0.0000
     24 C4B        6.5598    6.7305    7.2790 C.ar      1 RES1    0.0000
     25 C5B        5.7181    6.7091    8.3880 C.ar      1 RES1    0.0000
     26 C6B        4.4952    6.0563    8.3353 C.ar      1 RES1    0.0000
     27 C7B        2.7789    4.7354    7.1217 C.2       1 RES1    0.0000
     28 H1B        4.6600    5.0034    5.2378 H         1 RES1    0.0000
     29 H2B        7.4003    7.1716    7.3073 H         1 RES1    0.0000
     30 H3B        5.9842    7.1464    9.1883 H         1 RES1    0.0000
     31 H4B        3.9332    6.0513    9.1009 H         1 RES1    0.0000
     32 H5B        2.2084    4.7661    7.8801 H         1 RES1    0.0000
@<TRIPOS>BOND
     1    1    4 2
     2    2    4 2
     3    3   11 2
     4    4    7 1
     5    5    6 ar
     6    6    7 ar
     7    7    8 ar
     8    8    9 ar
     9    9   10 ar
    10   10    5 ar
    11   11    5 1
    12   12    6 1
    13   13    8 1
    14   14    9 1
    15   15   10 1
    16   16   11 1
    17   17   20 2
    18   18   20 2
    19   19    3 1
    20   20   23 1
    21   21   22 ar
    22   22   23 ar
    23   23   24 ar
    24   24   25 ar
    25   25   26 ar
    26   26   21 ar
    27   27   19 2
    28   28   22 1
    29   29   24 1
    30   30   25 1
    31   31   26 1
    32   32   27 1
    33   21   27 1
@<TRIPOS>SUBSTRUCTURE
     1 RES1 1

@<TRIPOS>CRYSIN
   7.0128    7.6318   12.8037  90.0000 105.8250  90.0000 231 1

