# MOL2 file generated by ConQuest
# Please check atom types

@<TRIPOS>MOLECULE
JAXTUY
    59    63     1
SMALL
NO_CHARGES
****
Generated from CSD

@<TRIPOS>ATOM
      1 C1         5.9894   -4.7694    4.8311 C.3       1 RES1    0.0000
      2 H1         6.1113   -5.1268    5.7137 H         1 RES1    0.0000
      3 H2         6.2967   -5.4069    4.1824 H         1 RES1    0.0000
      4 H3         5.0585   -4.5869    4.6849 H         1 RES1    0.0000
      5 C2         6.4286   -2.5230    5.5225 C.ar      1 RES1    0.0000
      6 C3         5.5482   -2.6292    6.5844 C.ar      1 RES1    0.0000
      7 H4         5.1063   -3.4319    6.7447 H         1 RES1    0.0000
      8 C4         5.3272   -1.5532    7.4020 C.ar      1 RES1    0.0000
      9 H5         4.7098   -1.6089    8.0951 H         1 RES1    0.0000
     10 C5         6.0269   -0.3860    7.1863 C.ar      1 RES1    0.0000
     11 C6         6.9128   -0.2239    6.1168 C.ar      1 RES1    0.0000
     12 C7         7.0786   -1.3093    5.2491 C.ar      1 RES1    0.0000
     13 C8         7.8863   -1.1533    3.9741 C.3       1 RES1    0.0000
     14 H6         8.7850   -0.8647    4.1997 H         1 RES1    0.0000
     15 H7         7.9528   -2.0142    3.5315 H         1 RES1    0.0000
     16 C9         7.6053    1.0840    5.7904 C.3       1 RES1    0.0000
     17 H8         7.4986    1.6982    6.5335 H         1 RES1    0.0000
     18 H9         8.5541    0.9233    5.6682 H         1 RES1    0.0000
     19 C10        6.1833   -0.5071    2.3129 C.2       1 RES1    0.0000
     20 C11        5.7589    2.1393    4.6142 C.2       1 RES1    0.0000
     21 C12        7.4216    1.2474    3.2554 C.3       1 RES1    0.0000
     22 C13        8.8429    1.6878    2.8704 C.2       1 RES1    0.0000
     23 C14       10.2978    1.9192    0.9985 C.3       1 RES1    0.0000
     24 H10       10.9966    1.2964    1.2519 H         1 RES1    0.0000
     25 H11       10.5402    2.8009    1.3212 H         1 RES1    0.0000
     26 C15       10.1442    1.9405   -0.4776 C.3       1 RES1    0.0000
     27 H12        9.7944    1.0971   -0.7754 H         1 RES1    0.0000
     28 H13       10.9987    2.0940   -0.8859 H         1 RES1    0.0000
     29 H14        9.5392    2.6433   -0.7267 H         1 RES1    0.0000
     30 C16        6.2718    1.8232    2.3520 C.3       1 RES1    0.0000
     31 C17        6.6707    2.8792    1.3067 C.2       1 RES1    0.0000
     32 C18        7.4861    5.1042    1.1035 C.3       1 RES1    0.0000
     33 H15        8.2100    5.6064    1.5075 H         1 RES1    0.0000
     34 H16        7.7715    4.8217    0.2198 H         1 RES1    0.0000
     35 C19        6.3050    5.9602    0.9844 C.3       1 RES1    0.0000
     36 H17        5.5641    5.4407    0.6628 H         1 RES1    0.0000
     37 H18        6.4874    6.6731    0.3671 H         1 RES1    0.0000
     38 H19        6.0880    6.3280    1.8443 H         1 RES1    0.0000
     39 C20        4.2892    0.7451    1.3920 C.3       1 RES1    0.0000
     40 H20        4.1678    1.3755    0.6649 H         1 RES1    0.0000
     41 H21        3.9708   -0.1219    1.0949 H         1 RES1    0.0000
     42 C21        3.9714    2.4513    2.9450 C.3       1 RES1    0.0000
     43 H22        3.4390    2.7401    3.7026 H         1 RES1    0.0000
     44 H23        3.8475    3.0928    2.2276 H         1 RES1    0.0000
     45 N1         5.7664    0.6959    8.1310 N.pl3     1 RES1    0.0000
     46 N2         7.2892   -0.1855    3.0532 N.am      1 RES1    0.0000
     47 N3         7.0555    1.6943    4.5738 N.am      1 RES1    0.0000
     48 N4         5.6998    0.6556    1.7241 N.am      1 RES1    0.0000
     49 N5         5.3559    2.4133    3.3193 N.am      1 RES1    0.0000
     50 O1         6.7356   -3.5608    4.6997 O.3       1 RES1    0.0000
     51 O2         6.7125    1.3099    8.5786 O.2       1 RES1    0.0000
     52 O3         4.6090    0.9024    8.4615 O.2       1 RES1    0.0000
     53 O4         5.7367   -1.6151    2.1516 O.2       1 RES1    0.0000
     54 O5         5.1026    2.2988    5.6134 O.2       1 RES1    0.0000
     55 O6         9.6442    2.1111    3.6368 O.2       1 RES1    0.0000
     56 O7         9.0232    1.5063    1.5765 O.3       1 RES1    0.0000
     57 O8         6.4867    2.7672    0.1383 O.2       1 RES1    0.0000
     58 O9         7.1936    3.9243    1.9219 O.3       1 RES1    0.0000
     59 O10        3.5303    1.1679    2.5164 O.3       1 RES1    0.0000
@<TRIPOS>BOND
     1    1    2 1
     2    3    1 1
     3    4    1 1
     4    5    6 ar
     5    6    7 1
     6    8    6 ar
     7    9    8 1
     8   10    8 ar
     9   11   10 ar
    10   12    5 ar
    11   13   12 1
    12   14   13 1
    13   15   13 1
    14   16   11 1
    15   17   16 1
    16   18   16 1
    17   19   46 1
    18   20   47 1
    19   21   22 1
    20   22   55 2
    21   23   24 1
    22   25   23 1
    23   26   23 1
    24   27   26 1
    25   28   26 1
    26   29   26 1
    27   30   21 1
    28   31   30 1
    29   32   33 1
    30   34   32 1
    31   35   32 1
    32   36   35 1
    33   37   35 1
    34   38   35 1
    35   39   40 1
    36   41   39 1
    37   42   43 1
    38   44   42 1
    39   45   10 1
    40   46   13 1
    41   47   16 1
    42   48   19 1
    43   49   20 1
    44   50    1 1
    45   51   45 2
    46   52   45 2
    47   53   19 2
    48   54   20 2
    49   56   22 1
    50   57   31 2
    51   58   31 1
    52   59   39 1
    53    5   50 1
    54   11   12 ar
    55   21   46 1
    56   21   47 1
    57   23   56 1
    58   30   48 1
    59   30   49 1
    60   32   58 1
    61   39   48 1
    62   42   49 1
    63   42   59 1
@<TRIPOS>SUBSTRUCTURE
     1 RES1 1

@<TRIPOS>CRYSIN
   9.7560   10.6080   11.7160 110.1230  98.7540  92.1190   2 1

