# MOL2 file generated by ConQuest
# Please check atom types

@<TRIPOS>MOLECULE
JAYCEU
   126   112     3
SMALL
NO_CHARGES
****
Generated from CSD

@<TRIPOS>ATOM
      1 C1        -3.5083    0.7841   18.0720 C.2       1 RES1    0.0000
      2 C2        -5.2465    5.2169   17.0181 C.3       1 RES1    0.0000
      3 H1        -4.6603    5.7500   17.5784 H         1 RES1    0.0000
      4 H2        -5.9947    5.7635   16.7346 H         1 RES1    0.0000
      5 O1        -0.7597   -2.4931   18.6330 O.2       1 RES1    0.0000
      6 C3        -4.4892    4.6500   15.8122 C.3       1 RES1    0.0000
      7 O2         0.9044   -3.5315   17.8409 O.2       1 RES1    0.0000
      8 C4        -3.7699    3.4328   16.4194 C.3       1 RES1    0.0000
      9 H3        -2.8224    3.6158   16.5228 H         1 RES1    0.0000
     10 H4        -3.8733    2.6568   15.8458 H         1 RES1    0.0000
     11 O3         2.2445   -3.0686   13.3306 O.2       1 RES1    0.0000
     12 O4         1.4063   -1.5467   12.0943 O.2       1 RES1    0.0000
     13 C5        -4.7821    1.7258   17.9936 C.3       1 RES1    0.0000
     14 H5        -5.4538    1.4161   17.3499 H         1 RES1    0.0000
     15 C6        -4.4411    3.1666   17.8402 C.3       1 RES1    0.0000
     16 H6        -3.8666    3.4771   18.5706 H         1 RES1    0.0000
     17 N1        -0.0076   -2.7394   17.7087 N.pl3     1 RES1    0.0000
     18 O5        -2.9185    5.0778   14.1561 O.3       1 RES1    0.0000
     19 C7        -5.0241    1.1936   19.4461 C.3       1 RES1    0.0000
     20 H7        -4.8841    1.8718   20.1249 H         1 RES1    0.0000
     21 H8        -5.8938    0.7791   19.5562 H         1 RES1    0.0000
     22 N2         1.4793   -2.1420   13.1507 N.pl3     1 RES1    0.0000
     23 O6        -3.2293    6.6859   15.6256 O.2       1 RES1    0.0000
     24 C8        -3.8713    0.1639   19.3761 C.3       1 RES1    0.0000
     25 H9        -3.2006    0.2719   20.0682 H         1 RES1    0.0000
     26 H10       -4.1654   -0.7580   19.3094 H         1 RES1    0.0000
     27 N3        -1.9130   -0.5727   17.3124 N.pl3     1 RES1    0.0000
     28 H11       -1.9254   -1.1027   18.0070 H         1 RES1    0.0000
     29 C9        -5.7174    4.0011   17.7435 C.2       1 RES1    0.0000
     30 O7        -6.1540    5.2745   14.2890 O.3       1 RES1    0.0000
     31 C10        0.6619   -2.4218   15.4255 C.ar      1 RES1    0.0000
     32 H12        1.2448   -3.1374   15.5322 H         1 RES1    0.0000
     33 C11        0.6038   -1.7436   14.2410 C.ar      1 RES1    0.0000
     34 C12       -0.2594   -0.6762   14.0687 C.ar      1 RES1    0.0000
     35 H13       -0.2834   -0.2258   13.2559 H         1 RES1    0.0000
     36 C13       -1.0714   -0.2861   15.0820 C.ar      1 RES1    0.0000
     37 H14       -1.6386    0.4395   14.9552 H         1 RES1    0.0000
     38 C14       -1.0753   -0.9565   16.3284 C.ar      1 RES1    0.0000
     39 C15       -1.8601    5.8500   13.5161 C.3       1 RES1    0.0000
     40 H15       -1.5950    5.4159   12.7023 H         1 RES1    0.0000
     41 H16       -1.1069    5.9101   14.1081 H         1 RES1    0.0000
     42 H17       -2.1838    6.7321   13.3193 H         1 RES1    0.0000
     43 C16       -3.5087    5.6100   15.2071 C.2       1 RES1    0.0000
     44 C17       -7.2167    5.0055   13.3260 C.3       1 RES1    0.0000
     45 H18       -7.5782    5.8373   13.0091 H         1 RES1    0.0000
     46 H19       -7.9115    4.4968   13.7495 H         1 RES1    0.0000
     47 H20       -6.8609    4.5085   12.5872 H         1 RES1    0.0000
     48 C18       -5.4874    4.2238   14.7334 C.2       1 RES1    0.0000
     49 C19       -6.9030    3.8017   18.3172 C.2       1 RES1    0.0000
     50 H21       -7.5493    4.4686   18.2905 H         1 RES1    0.0000
     51 H22       -7.0840    2.9955   18.7441 H         1 RES1    0.0000
     52 N4        -2.7021    0.5406   17.1171 N.2       1 RES1    0.0000
     53 O8        -5.6960    3.1055   14.3914 O.2       1 RES1    0.0000
     54 C20       -0.1590   -2.0270   16.4561 C.ar      1 RES1    0.0000
     55 H23       -3.0272    3.7143   16.9764 Du        3 SUP3    0.0000
     56 H24       -3.4333    2.8482   15.7223 Du        3 SUP3    0.0000
     57 C21       -4.1881    2.0925   18.4756 Du        3 SUP3    0.0000
     58 H25       -3.5877    2.7096   18.9442 Du        3 SUP3    0.0000
     59 C22       -4.8542    2.7092   17.2699 Du        3 SUP3    0.0000
     60 H26       -5.3819    2.0656   16.7529 Du        3 SUP3    0.0000
     61 H27       -5.1567    1.5784   20.3250 Du        3 SUP3    0.0000
     62 H28       -5.8594    0.8766   19.0693 Du        3 SUP3    0.0000
     63 C23       -1.0423    1.3641    9.2693 C.3       2 RES2    0.0000
     64 C24       -1.8898    1.9554    8.1213 C.3       2 RES2    0.0000
     65 H29       -2.6755    2.4032    8.4732 H         2 RES2    0.0000
     66 H30       -1.3709    2.5939    7.6094 H         2 RES2    0.0000
     67 N5         3.2747   -6.0730    6.8366 N.pl3     2 RES2    0.0000
     68 O9         4.1997   -6.8798    6.6355 O.2       2 RES2    0.0000
     69 O10        2.7933   -5.5423    5.8500 O.2       2 RES2    0.0000
     70 C25       -0.4430    0.0822    8.6500 C.3       2 RES2    0.0000
     71 H31        0.4143    0.2786    8.2397 H         2 RES2    0.0000
     72 H32       -0.3073   -0.5893    9.3387 H         2 RES2    0.0000
     73 C26       -2.2796    0.8093    7.2792 C.2       2 RES2    0.0000
     74 O11        5.9087   -6.3885   11.0240 O.2       2 RES2    0.0000
     75 O12        5.3754   -4.6758   12.1887 O.2       2 RES2    0.0000
     76 C27       -0.8498   -1.0880    6.4737 C.3       2 RES2    0.0000
     77 H33       -0.2385   -0.4627    6.0301 H         2 RES2    0.0000
     78 C28       -1.3726   -0.4075    7.6544 C.3       2 RES2    0.0000
     79 H34       -1.9525   -1.0520    8.1096 H         2 RES2    0.0000
     80 O13       -2.3730    2.1689   11.0195 O.3       2 RES2    0.0000
     81 C29       -1.5862   -1.8444    5.3731 C.3       2 RES2    0.0000
     82 H35       -1.6474   -1.3526    4.5393 H         2 RES2    0.0000
     83 H36       -2.4591   -2.1696    5.6449 H         2 RES2    0.0000
     84 N6         5.2471   -5.3802   11.2069 N.pl3     2 RES2    0.0000
     85 O14       -2.0999   -0.0222   10.9463 O.2       2 RES2    0.0000
     86 C30       -0.5041   -2.9307    5.3647 C.3       2 RES2    0.0000
     87 H37       -0.8505   -3.8368    5.3948 H         2 RES2    0.0000
     88 H38        0.1556   -2.8280    4.6627 H         2 RES2    0.0000
     89 N7         1.5467   -3.7872    7.3307 N.pl3     2 RES2    0.0000
     90 H39        1.4432   -4.1553    6.5721 H         2 RES2    0.0000
     91 O15        0.7165    1.8157   10.7026 O.3       2 RES2    0.0000
     92 C31        4.2810   -4.9905   10.1928 C.ar      2 RES2    0.0000
     93 C32        3.4751   -3.8796   10.4096 C.ar      2 RES2    0.0000
     94 H40        3.5495   -3.4007   11.2031 H         2 RES2    0.0000
     95 C33        2.5834   -3.4920    9.4704 C.ar      2 RES2    0.0000
     96 H41        2.0487   -2.7484    9.6322 H         2 RES2    0.0000
     97 C34        2.4418   -4.1932    8.2396 C.ar      2 RES2    0.0000
     98 C35       -3.1993    2.0524   12.1937 C.3       2 RES2    0.0000
     99 H42       -4.0110    2.5481   12.0653 H         2 RES2    0.0000
    100 H43       -2.7265    2.4031   12.9524 H         2 RES2    0.0000
    101 H44       -3.4089    1.1284   12.3471 H         2 RES2    0.0000
    102 C36        4.1945   -5.7152    9.0343 C.ar      2 RES2    0.0000
    103 H45        4.7258   -6.4679    8.9034 H         2 RES2    0.0000
    104 C37       -1.8888    1.0475   10.4977 C.2       2 RES2    0.0000
    105 C38        1.8082    2.6110   11.2348 C.3       2 RES2    0.0000
    106 H46        2.2510    2.1223   11.9318 H         2 RES2    0.0000
    107 H47        1.4615    3.4325   11.5916 H         2 RES2    0.0000
    108 H48        2.4329    2.8067   10.5327 H         2 RES2    0.0000
    109 C39        3.2991   -5.3044    8.0666 C.ar      2 RES2    0.0000
    110 C40        0.0332    2.3082    9.6989 C.2       2 RES2    0.0000
    111 C41       -3.3737    0.7287    6.5504 C.2       2 RES2    0.0000
    112 H49       -3.9792    1.4352    6.5404 H         2 RES2    0.0000
    113 H50       -3.5412   -0.0352    6.0468 H         2 RES2    0.0000
    114 N8         0.7685   -2.6819    7.5787 N.2       2 RES2    0.0000
    115 O16        0.2766    3.3929    9.2136 O.2       2 RES2    0.0000
    116 C42       -0.0722   -2.4033    6.6855 C.2       2 RES2    0.0000
    117 O17        3.5170   -7.2709    6.9406 Du        3 SUP3    0.0000
    118 O18        2.4476   -5.9153    5.9784 Du        3 SUP3    0.0000
    119 H51       -0.6802   -0.6921    9.1836 Du        3 SUP3    0.0000
    120 H52        0.5249    0.1462    8.6116 Du        3 SUP3    0.0000
    121 C43       -1.4010   -1.5424    6.8122 Du        3 SUP3    0.0000
    122 H53       -2.0793   -1.9464    7.3926 Du        3 SUP3    0.0000
    123 C44       -1.0468   -0.0498    7.1875 Du        3 SUP3    0.0000
    124 H54       -0.4223    0.3235    6.5304 Du        3 SUP3    0.0000
    125 H55       -1.3743   -1.0928    4.7978 Du        3 SUP3    0.0000
    126 H56       -2.4701   -2.1875    5.1680 Du        3 SUP3    0.0000
@<TRIPOS>BOND
     1    1   13 1
     2    2    3 1
     3    4    2 1
     4    5   17 2
     5    6    2 1
     6    7   17 2
     7    8    6 1
     8    9    8 1
     9   10    8 1
    10   11   22 2
    11   12   22 2
    12   13   14 1
    13   15    8 1
    14   16   15 1
    15   17   54 1
    16   18   39 1
    17   19   13 1
    18   20   19 1
    19   21   19 1
    20   22   33 1
    21   23   43 2
    22   24    1 1
    23   25   24 1
    24   26   24 1
    25   27   28 1
    26   29    2 1
    27   30   44 1
    28   31   32 1
    29   33   31 ar
    30   34   33 ar
    31   35   34 1
    32   36   34 ar
    33   37   36 1
    34   38   27 1
    35   39   40 1
    36   41   39 1
    37   42   39 1
    38   43    6 1
    39   44   45 1
    40   46   44 1
    41   47   44 1
    42   48    6 1
    43   49   29 2
    44   50   49 1
    45   51   49 1
    46   52    1 2
    47   53   48 2
    48   54   31 ar
    49   63   64 1
    50   64   65 1
    51   66   64 1
    52   67   68 2
    53   69   67 2
    54   70   63 1
    55   71   70 1
    56   72   70 1
    57   73   64 1
    58   74   84 2
    59   75   84 2
    60   76   77 1
    61   78   70 1
    62   79   78 1
    63   80   98 1
    64   81   76 1
    65   82   81 1
    66   83   81 1
    67   84   92 1
    68   85  104 2
    69   86   81 1
    70   87   86 1
    71   88   86 1
    72   89   90 1
    73   91  105 1
    74   92   93 ar
    75   93   94 1
    76   95   93 ar
    77   96   95 1
    78   97   89 1
    79   98   99 1
    80  100   98 1
    81  101   98 1
    82  102   92 ar
    83  103  102 1
    84  104   63 1
    85  105  106 1
    86  107  105 1
    87  108  105 1
    88  109   67 1
    89  110   63 1
    90  111   73 2
    91  112  111 1
    92  113  111 1
    93  114   89 1
    94  115  110 2
    95  116   76 1
    96   13   15 1
    97   15   29 1
    98   18   43 1
    99   19   24 1
   100   27   52 1
   101   30   48 1
   102   36   38 ar
   103   38   54 ar
   104   73   78 1
   105   76   78 1
   106   80  104 1
   107   86  116 1
   108   91  110 1
   109   95   97 ar
   110   97  109 ar
   111  102  109 ar
   112  114  116 2
@<TRIPOS>SUBSTRUCTURE
     1 RES1 1
     2 RES2 63
     3 SUP3 55

@<TRIPOS>CRYSIN
  10.5093   13.2957   17.9828 105.9920  97.8370 111.2200   2 1

