# MOL2 file generated by ConQuest
# Please check atom types

@<TRIPOS>MOLECULE
JAYDET
    76    78     2
SMALL
USER_CHARGES
****
Generated from CSD

@<TRIPOS>ATOM
      1 O1        -0.2339    7.4572   21.1445 O.2       1 RES1   -1.0000
      2 C1         1.9484    5.5941   23.3545 C.ar      1 RES1    0.0000
      3 H1         2.7839    5.1867   23.3508 H         1 RES1    0.0000
      4 C2         1.1664    5.5210   24.4630 C.ar      1 RES1    0.0000
      5 N1         2.1021    6.9782   20.0157 N.pl3     1 RES1    1.0000
      6 C3         1.5022    6.2797   22.2202 C.ar      1 RES1    0.0000
      7 C4         0.2033    6.8912   22.1907 C.ar      1 RES1    0.0000
      8 C5        -0.5508    6.7961   23.4041 C.ar      1 RES1    0.0000
      9 H2        -1.3896    7.1962   23.4458 H         1 RES1    0.0000
     10 N2         1.6592    4.7980   25.6058 N.pl3     1 RES1    0.0000
     11 C6         2.8161    6.9351   15.2686 C.ar      1 RES1    0.0000
     12 H3         2.0136    7.4044   15.2432 H         1 RES1    0.0000
     13 C7        -0.0819    6.1398   24.4976 C.ar      1 RES1    0.0000
     14 H4        -0.5957    6.1032   25.2703 H         1 RES1    0.0000
     15 C8         3.2160    6.3399   16.4452 C.ar      1 RES1    0.0000
     16 C9         2.3879    6.3732   21.1138 C.2       1 RES1    0.0000
     17 H5         3.2237    5.9723   21.1889 H         1 RES1    0.0000
     18 O2         3.9899    9.1495   19.7069 O.3       1 RES1    0.0000
     19 H6         4.5868    8.6730   20.0053 H         1 RES1    0.0000
     20 O3         0.9737    4.7582   26.6095 O.2       1 RES1    0.0000
     21 O4         2.7495    4.2361   25.5408 O.2       1 RES1    0.0000
     22 C10        3.0177    7.0653   18.8827 C.3       1 RES1    0.0000
     23 H7         3.8337    6.5643   19.0915 H         1 RES1    0.0000
     24 C11        3.5888    6.8457   14.1325 C.ar      1 RES1    0.0000
     25 H8         3.2980    7.2450   13.3451 H         1 RES1    0.0000
     26 C12        4.4153    5.6421   16.4504 C.ar      1 RES1    0.0000
     27 H9         4.6981    5.2209   17.2302 H         1 RES1    0.0000
     28 C13        2.3367    6.4236   17.6702 C.3       1 RES1    0.0000
     29 H10        2.0504    5.5283   17.9109 H         1 RES1    0.0000
     30 H11        1.5438    6.9368   17.4510 H         1 RES1    0.0000
     31 C14        5.1932    5.5665   15.3155 C.ar      1 RES1    0.0000
     32 H12        5.9993    5.1038   15.3382 H         1 RES1    0.0000
     33 C15        4.7836    6.1715   14.1518 C.ar      1 RES1    0.0000
     34 H13        5.3100    6.1244   13.3880 H         1 RES1    0.0000
     35 C16        3.3791    8.5087   18.6181 C.3       1 RES1    0.0000
     36 H14        3.9793    8.5453   17.8558 H         1 RES1    0.0000
     37 H15        2.5732    8.9942   18.3801 H         1 RES1    0.0000
     38 N3         5.6460    1.3353   26.0762 N.pl3     2 RES2    1.0000
     39 C17        5.4217    2.8333   22.7786 C.ar      2 RES2    0.0000
     40 H16        4.5870    3.2334   22.8693 H         2 RES2    0.0000
     41 C18        5.9594    2.1022   23.8383 C.ar      2 RES2    0.0000
     42 O5         7.7640    0.8100   24.6427 O.2       2 RES2   -1.0000
     43 N4         5.5474    3.7294   20.5248 N.pl3     2 RES2    0.0000
     44 C19        6.1168    2.9650   21.6060 C.ar      2 RES2    0.0000
     45 C20        7.2568    1.4849   23.6994 C.ar      2 RES2    0.0000
     46 C21        5.2293    1.9965   25.0545 C.2       2 RES2    0.0000
     47 H17        4.4076    2.4283   25.1140 H         2 RES2    0.0000
     48 C22        7.9219    1.6687   22.4563 C.ar      2 RES2    0.0000
     49 H18        8.7592    1.2833   22.3358 H         2 RES2    0.0000
     50 C23        4.9582    1.2385   27.3807 C.3       2 RES2    0.0000
     51 H19        5.4304    0.5758   27.9259 H         2 RES2    0.0000
     52 O6         4.4043    4.1531   20.6388 O.2       2 RES2    0.0000
     53 C24        4.3357    2.6015   29.4376 C.ar      2 RES2    0.0000
     54 C25        4.2490    1.9989   31.7524 C.ar      2 RES2    0.0000
     55 H20        4.6332    1.5728   32.4856 H         2 RES2    0.0000
     56 O7         6.2258    3.9238   19.5220 O.2       2 RES2    0.0000
     57 C26        3.1251    3.2553   29.6011 C.ar      2 RES2    0.0000
     58 H21        2.7379    3.6888   28.8734 H         2 RES2    0.0000
     59 C27        2.4900    3.2757   30.8147 C.ar      2 RES2    0.0000
     60 H22        1.6770    3.7180   30.9034 H         2 RES2    0.0000
     61 C28        7.3830    2.3835   21.4441 C.ar      2 RES2    0.0000
     62 H23        7.8488    2.4893   20.6462 H         2 RES2    0.0000
     63 C29        3.0442    2.6487   31.8935 C.ar      2 RES2    0.0000
     64 H24        2.6113    2.6600   32.7156 H         2 RES2    0.0000
     65 O8         3.4240   -0.4253   26.5009 O.3       2 RES2    0.0000
     66 H25        3.1057   -0.2757   25.7610 H         2 RES2    0.0000
     67 C30        4.8877    1.9769   30.5375 C.ar      2 RES2    0.0000
     68 H26        5.7022    1.5354   30.4557 H         2 RES2    0.0000
     69 C31        3.5242    0.7815   27.2206 C.3       2 RES2    0.0000
     70 H27        3.1292    0.6620   28.0976 H         2 RES2    0.0000
     71 H28        3.0206    1.4695   26.7576 H         2 RES2    0.0000
     72 C32        5.0349    2.5877   28.1010 C.3       2 RES2    0.0000
     73 H29        5.9678    2.8194   28.2325 H         2 RES2    0.0000
     74 H30        4.6395    3.2683   27.5334 H         2 RES2    0.0000
     75 H31        6.5200    0.9596   25.8928 H         2 RES2    0.0000
     76 H32        1.2998    7.4003   19.9808 H         1 RES1    0.0000
@<TRIPOS>BOND
     1    1    7 1
     2    2    3 1
     3    4    2 ar
     4    5   16 2
     5    6    2 ar
     6    7    6 ar
     7    8    7 ar
     8    9    8 1
     9   10    4 1
    10   11   12 1
    11   13    4 ar
    12   14   13 1
    13   15   11 ar
    14   16    6 1
    15   17   16 1
    16   18   19 1
    17   20   10 2
    18   21   10 2
    19   22    5 1
    20   23   22 1
    21   24   11 ar
    22   25   24 1
    23   26   15 ar
    24   27   26 1
    25   28   15 1
    26   29   28 1
    27   30   28 1
    28   31   26 ar
    29   32   31 1
    30   33   24 ar
    31   34   33 1
    32   35   18 1
    33   36   35 1
    34   37   35 1
    35   38   46 2
    36   39   40 1
    37   41   39 ar
    38   42   45 1
    39   43   44 1
    40   44   39 ar
    41   45   41 ar
    42   46   41 1
    43   47   46 1
    44   48   45 ar
    45   49   48 1
    46   50   38 1
    47   51   50 1
    48   52   43 2
    49   53   57 ar
    50   54   55 1
    51   56   43 2
    52   57   58 1
    53   59   57 ar
    54   60   59 1
    55   61   44 ar
    56   62   61 1
    57   63   54 ar
    58   64   63 1
    59   65   66 1
    60   67   53 ar
    61   68   67 1
    62   69   50 1
    63   70   69 1
    64   71   69 1
    65   72   50 1
    66   73   72 1
    67   74   72 1
    68   75   38 1
    69   76    5 1
    70    8   13 ar
    71   22   28 1
    72   22   35 1
    73   31   33 ar
    74   48   61 ar
    75   53   72 1
    76   54   67 ar
    77   59   63 ar
    78   65   69 1
@<TRIPOS>SUBSTRUCTURE
     1 RES1 1
     2 RES2 38

@<TRIPOS>CRYSIN
   5.8623    8.1322   30.6740  90.0000  91.4500  90.0000   4 1

