# MOL2 file generated by ConQuest
# Please check atom types

@<TRIPOS>MOLECULE
JAYGEW
    25    25     1
SMALL
NO_CHARGES
****
Generated from CSD

@<TRIPOS>ATOM
      1 O1         4.5232    0.3951    5.4470 O.2       1 RES1    0.0000
      2 O2        10.6787    3.1696    3.7661 O.2       1 RES1    0.0000
      3 O3        10.0651    5.2304    3.8050 O.2       1 RES1    0.0000
      4 O4         2.7008   -1.3563    5.6638 O.3       1 RES1    0.0000
      5 O5         0.6263   -1.3265    6.3241 O.2       1 RES1    0.0000
      6 N1         4.6516    2.6571    5.5715 N.am      1 RES1    0.0000
      7 N2         9.8531    4.0347    3.9723 N.pl3     1 RES1    0.0000
      8 C1         4.0031    1.4913    5.7096 C.2       1 RES1    0.0000
      9 C2         2.6238    1.6509    6.2148 C.2       1 RES1    0.0000
     10 C3         1.6843    0.7302    6.3994 C.2       1 RES1    0.0000
     11 C4         1.6529   -0.7261    6.1253 C.2       1 RES1    0.0000
     12 C5         5.9727    2.9148    5.1730 C.ar      1 RES1    0.0000
     13 C6         6.9031    1.9348    4.8393 C.ar      1 RES1    0.0000
     14 C7         8.1835    2.3013    4.4642 C.ar      1 RES1    0.0000
     15 C8         8.5171    3.6306    4.4220 C.ar      1 RES1    0.0000
     16 C9         7.6235    4.6118    4.7731 C.ar      1 RES1    0.0000
     17 C10        6.3474    4.2533    5.1391 C.ar      1 RES1    0.0000
     18 H1         4.1851    3.3555    5.7560 H         1 RES1    0.0000
     19 H2         2.3779    2.5208    6.4350 H         1 RES1    0.0000
     20 H3         0.8988    1.0620    6.7696 H         1 RES1    0.0000
     21 H4         6.6652    1.0363    4.8683 H         1 RES1    0.0000
     22 H5         8.8111    1.6527    4.2431 H         1 RES1    0.0000
     23 H6         7.8770    5.5065    4.7631 H         1 RES1    0.0000
     24 H7         5.7307    4.9106    5.3660 H         1 RES1    0.0000
     25 H8         3.3147   -0.8231    5.5573 H         1 RES1    0.0000
@<TRIPOS>BOND
     1    1    8 2
     2    2    7 2
     3    3    7 2
     4    4   11 1
     5    5   11 2
     6    6    8 1
     7    7   15 1
     8    8    9 1
     9    9   10 2
    10   10   11 1
    11   12    6 1
    12   13   12 ar
    13   14   13 ar
    14   15   14 ar
    15   16   15 ar
    16   17   12 ar
    17   18    6 1
    18   19    9 1
    19   20   10 1
    20   21   13 1
    21   22   14 1
    22   23   16 1
    23   24   17 1
    24   25    4 1
    25   16   17 ar
@<TRIPOS>SUBSTRUCTURE
     1 RES1 1

@<TRIPOS>CRYSIN
   9.6052   12.8416    9.0921  90.0000 114.3880  90.0000  14 1

