# MOL2 file generated by ConQuest
# Please check atom types

@<TRIPOS>MOLECULE
JAYKAW
   153   152     3
SMALL
NO_CHARGES
****
Generated from CSD

@<TRIPOS>ATOM
      1 C1        -1.5999   19.2402   16.0002 C.3       1 RES1    0.0000
      2 H1        -2.2198   19.9485   16.1905 H         1 RES1    0.0000
      3 H2        -0.7025   19.5774   16.0511 H         1 RES1    0.0000
      4 H3        -1.7133   18.5352   16.6421 H         1 RES1    0.0000
      5 C2        -1.8528   18.7121   14.6364 C.3       1 RES1    0.0000
      6 H4        -1.7454   19.4375   14.0018 H         1 RES1    0.0000
      7 H5        -2.7756   18.4169   14.5877 H         1 RES1    0.0000
      8 C3        -0.9766   17.5837   14.2119 C.3       1 RES1    0.0000
      9 H6        -1.0783   16.8605   14.8509 H         1 RES1    0.0000
     10 H7        -0.0541   17.8809   14.2547 H         1 RES1    0.0000
     11 C4        -1.2348   17.0383   12.8367 C.3       1 RES1    0.0000
     12 H8        -2.1510   16.7234   12.7991 H         1 RES1    0.0000
     13 H9        -1.1491   17.7642   12.1977 H         1 RES1    0.0000
     14 C5        -0.3324   15.9244   12.4124 C.3       1 RES1    0.0000
     15 H10       -0.4149   15.2022   13.0546 H         1 RES1    0.0000
     16 H11        0.5842   16.2411   12.4455 H         1 RES1    0.0000
     17 C6        -0.5964   15.3681   11.0290 C.3       1 RES1    0.0000
     18 H12       -1.5010   15.0198   10.9950 H         1 RES1    0.0000
     19 H13       -0.5326   16.0881   10.3833 H         1 RES1    0.0000
     20 C7         0.3654   14.2726   10.6416 C.3       1 RES1    0.0000
     21 H14        1.2637   14.6386   10.6207 H         1 RES1    0.0000
     22 H15        0.3432   13.5817   11.3227 H         1 RES1    0.0000
     23 C8         0.0671   13.6499    9.3109 C.3       1 RES1    0.0000
     24 H16       -0.8075   13.2289    9.3276 H         1 RES1    0.0000
     25 H17        0.0691   14.3278    8.6153 H         1 RES1    0.0000
     26 O1         1.0752   12.6794    9.0541 O.3       1 RES1    0.0000
     27 C9         0.9895   11.9206    7.9300 C.ar      1 RES1    0.0000
     28 C10        0.0220   12.0584    6.9550 C.ar      1 RES1    0.0000
     29 H18       -0.6292   12.7174    7.0332 H         1 RES1    0.0000
     30 C11        0.0259   11.2223    5.8720 C.ar      1 RES1    0.0000
     31 H19       -0.6236   11.3343    5.2161 H         1 RES1    0.0000
     32 C12        0.9643   10.2149    5.7233 C.ar      1 RES1    0.0000
     33 C13        1.9608   10.1118    6.6930 C.ar      1 RES1    0.0000
     34 H20        2.6258    9.4666    6.6099 H         1 RES1    0.0000
     35 C14        1.9624   10.9581    7.7692 C.ar      1 RES1    0.0000
     36 H21        2.6349   10.8824    8.4062 H         1 RES1    0.0000
     37 N1         0.7581    9.4413    4.5683 N.2       1 RES1    0.0000
     38 N2         1.4455    8.3985    4.3469 N.pl3     1 RES1    0.0000
     39 O2         2.3926    7.9497    5.0677 O.2       1 RES1    0.0000
     40 C15        1.1026    7.6462    3.1658 C.ar      1 RES1    0.0000
     41 C16       -0.0069    7.9962    2.3939 C.ar      1 RES1    0.0000
     42 H22       -0.5295    8.7285    2.6274 H         1 RES1    0.0000
     43 C17       -0.3145    7.2523    1.2969 C.ar      1 RES1    0.0000
     44 H23       -1.0489    7.4874    0.7769 H         1 RES1    0.0000
     45 C18        0.4517    6.1454    0.9377 C.ar      1 RES1    0.0000
     46 C19        1.5644    5.8144    1.7071 C.ar      1 RES1    0.0000
     47 H24        2.0937    5.0864    1.4737 H         1 RES1    0.0000
     48 C20        1.8756    6.5641    2.8104 C.ar      1 RES1    0.0000
     49 H25        2.6171    6.3394    3.3243 H         1 RES1    0.0000
     50 O3         0.0241    5.4701   -0.1505 O.3       1 RES1    0.0000
     51 C21        0.7546    4.3143   -0.5931 C.3       1 RES1    0.0000
     52 H26        0.7766    3.6426    0.1058 H         1 RES1    0.0000
     53 H27        1.6665    4.5583   -0.8130 H         1 RES1    0.0000
     54 C22        0.0504    3.7768   -1.8087 C.3       1 RES1    0.0000
     55 H28        0.0163    4.4724   -2.4855 H         1 RES1    0.0000
     56 H29       -0.8626    3.5529   -1.5692 H         1 RES1    0.0000
     57 C23        0.7172    2.5501   -2.3993 C.3       1 RES1    0.0000
     58 H30        1.6316    2.7723   -2.6352 H         1 RES1    0.0000
     59 H31        0.7479    1.8534   -1.7241 H         1 RES1    0.0000
     60 C24        0.0134    2.0155   -3.6214 C.3       1 RES1    0.0000
     61 H32       -0.0023    2.7103   -4.2973 H         1 RES1    0.0000
     62 H33       -0.9064    1.8165   -3.3862 H         1 RES1    0.0000
     63 C25        0.6348    0.7747   -4.2212 C.3       1 RES1    0.0000
     64 H34        1.5636    0.9608   -4.4290 H         1 RES1    0.0000
     65 H35        0.6175    0.0662   -3.5592 H         1 RES1    0.0000
     66 C26       -0.0536    0.2862   -5.4717 C.3       1 RES1    0.0000
     67 H36       -0.1086    1.0235   -6.0988 H         1 RES1    0.0000
     68 H37       -0.9608    0.0301   -5.2420 H         1 RES1    0.0000
     69 C27        0.6138   -0.8812   -6.1603 C.3       1 RES1    0.0000
     70 H38        1.5298   -0.6383   -6.3698 H         1 RES1    0.0000
     71 H39        0.6411   -1.6307   -5.5465 H         1 RES1    0.0000
     72 C28       -0.0739   -1.3169   -7.4286 C.3       1 RES1    0.0000
     73 H40        0.4022   -2.0555   -7.8126 H         1 RES1    0.0000
     74 H41       -0.0878   -0.5860   -8.0526 H         1 RES1    0.0000
     75 H42       -0.9732   -1.5850   -7.2293 H         1 RES1    0.0000
     76 C29        0.6058   11.2539   14.4282 C.3       2 RES2    0.0000
     77 H43       -0.0212   11.9583   14.6057 H         2 RES2    0.0000
     78 H44        1.5002   11.5957   14.4973 H         2 RES2    0.0000
     79 H45        0.4834   10.5478   15.0677 H         2 RES2    0.0000
     80 C30        0.3798   10.7187   13.0445 C.3       2 RES2    0.0000
     81 H46       -0.5374   10.4107   12.9797 H         2 RES2    0.0000
     82 H47        0.4886   11.4465   12.4119 H         2 RES2    0.0000
     83 C31        1.2828    9.6013   12.6406 C.3       2 RES2    0.0000
     84 H48        1.1846    8.8828   13.2843 H         2 RES2    0.0000
     85 H49        2.1988    9.9159   12.6932 H         2 RES2    0.0000
     86 C32        1.0579    9.0417   11.2750 C.3       2 RES2    0.0000
     87 H50        1.1296    9.7652   10.6336 H         2 RES2    0.0000
     88 H51        0.1497    8.7025   11.2298 H         2 RES2    0.0000
     89 C33        1.9946    7.9441   10.8576 C.3       2 RES2    0.0000
     90 H52        2.8980    8.2969   10.8504 H         2 RES2    0.0000
     91 H53        1.9626    7.2414   11.5266 H         2 RES2    0.0000
     92 C34        1.7112    7.3370    9.5176 C.3       2 RES2    0.0000
     93 H54        1.7517    8.0396    8.8502 H         2 RES2    0.0000
     94 H55        0.8034    6.9949    9.5238 H         2 RES2    0.0000
     95 C35        2.6299    6.2294    9.0951 C.3       2 RES2    0.0000
     96 H56        3.5355    6.5743    9.0386 H         2 RES2    0.0000
     97 H57        2.6194    5.5338    9.7716 H         2 RES2    0.0000
     98 C36        2.2562    5.6317    7.7773 C.3       2 RES2    0.0000
     99 H58        1.3573    5.2695    7.8229 H         2 RES2    0.0000
    100 H59        2.2762    6.3130    7.0874 H         2 RES2    0.0000
    101 O4         3.1821    4.5949    7.4613 O.3       2 RES2    0.0000
    102 C37        2.9837    3.8547    6.3461 C.ar      2 RES2    0.0000
    103 C38        1.9544    4.0370    5.4435 C.ar      2 RES2    0.0000
    104 H60        1.3371    4.7220    5.5697 H         2 RES2    0.0000
    105 C39        1.8454    3.1994    4.3564 C.ar      2 RES2    0.0000
    106 H61        1.1512    3.3232    3.7502 H         2 RES2    0.0000
    107 C40        2.7598    2.1686    4.1502 C.ar      2 RES2    0.0000
    108 C41        3.7898    2.0258    5.0641 C.ar      2 RES2    0.0000
    109 H62        4.4142    1.3485    4.9400 H         2 RES2    0.0000
    110 C42        3.9111    2.8396    6.1277 C.ar      2 RES2    0.0000
    111 H63        4.6182    2.7238    6.7209 H         2 RES2    0.0000
    112 C43        2.6348   -0.2203    1.4823 C.ar      2 RES2    0.0000
    113 C44        1.7455   -0.3380    0.4424 C.ar      2 RES2    0.0000
    114 H64        1.0595    0.2853    0.3588 H         2 RES2    0.0000
    115 C45        1.8444   -1.3485   -0.4757 C.ar      2 RES2    0.0000
    116 H65        1.2177   -1.4191   -1.1589 H         2 RES2    0.0000
    117 C46        2.8757   -2.2626   -0.3843 C.ar      2 RES2    0.0000
    118 C47        3.7837   -2.1387    0.6486 C.ar      2 RES2    0.0000
    119 H66        4.4847   -2.7470    0.7149 H         2 RES2    0.0000
    120 C48        3.6720   -1.1421    1.5708 C.ar      2 RES2    0.0000
    121 H67        4.2918   -1.0773    2.2609 H         2 RES2    0.0000
    122 O5         3.0914   -3.2941   -1.2314 O.3       2 RES2    0.0000
    123 C49        2.1610   -3.5486   -2.2787 C.3       2 RES2    0.0000
    124 H68        2.1136   -2.7889   -2.8804 H         2 RES2    0.0000
    125 H69        1.2766   -3.7087   -1.9125 H         2 RES2    0.0000
    126 C50        2.6484   -4.7621   -3.0107 C.3       2 RES2    0.0000
    127 H70        2.6979   -5.5015   -2.3848 H         2 RES2    0.0000
    128 H71        3.5468   -4.5893   -3.3320 H         2 RES2    0.0000
    129 C51        1.7936   -5.1795   -4.1789 C.3       2 RES2    0.0000
    130 H72        1.7188   -4.4377   -4.8006 H         2 RES2    0.0000
    131 H73        0.9025   -5.3939   -3.8611 H         2 RES2    0.0000
    132 C52        2.3651   -6.3805   -4.9046 C.3       2 RES2    0.0000
    133 H74        3.2788   -6.1747   -5.1568 H         2 RES2    0.0000
    134 H75        2.3971   -7.1228   -4.2793 H         2 RES2    0.0000
    135 C53        1.6388   -6.8350   -6.1283 C.3       2 RES2    0.0000
    136 H76        1.6004   -6.1018   -6.7622 H         2 RES2    0.0000
    137 H77        0.7278   -7.0642   -5.8872 H         2 RES2    0.0000
    138 C54        2.2951   -8.0490   -6.8089 C.3       2 RES2    0.0000
    139 H78        3.2192   -7.8284   -7.0073 H         2 RES2    0.0000
    140 H79        2.2991   -8.7894   -6.1814 H         2 RES2    0.0000
    141 C55        1.6385   -8.4968   -8.0630 C.3       2 RES2    0.0000
    142 H80        1.5740   -7.7441   -8.6695 H         2 RES2    0.0000
    143 H81        0.7374   -8.7905   -7.8591 H         2 RES2    0.0000
    144 C56        2.3758   -9.6198   -8.7523 C.3       2 RES2    0.0000
    145 H82        1.9028   -9.8710   -9.5496 H         2 RES2    0.0000
    146 H83        2.4336  -10.3751   -8.1610 H         2 RES2    0.0000
    147 H84        3.2601   -9.3274   -8.9844 H         2 RES2    0.0000
    148 N3         2.2806    0.9836    2.3164 N.pl3     2 RES2    0.0000
    149 N4         2.2185    1.5317    2.8287 Du        3 SUP3    0.0000
    150 N5         3.1050    1.0816    3.2993 N.2       2 RES2    0.0000
    151 N6         3.0042    0.5177    2.6837 Du        3 SUP3    0.0000
    152 O6         1.1258    1.6564    2.2016 O.2       2 RES2    0.0000
    153 O7         1.4211    1.9513    1.9499 Du        3 SUP3    0.0000
@<TRIPOS>BOND
     1    1    2 1
     2    3    1 1
     3    4    1 1
     4    5    1 1
     5    6    5 1
     6    7    5 1
     7    8    5 1
     8    9    8 1
     9   10    8 1
    10   11    8 1
    11   12   11 1
    12   13   11 1
    13   14   11 1
    14   15   14 1
    15   16   14 1
    16   17   14 1
    17   18   17 1
    18   19   17 1
    19   20   17 1
    20   21   20 1
    21   22   20 1
    22   23   20 1
    23   24   23 1
    24   25   23 1
    25   26   23 1
    26   27   26 1
    27   28   27 ar
    28   29   28 1
    29   30   28 ar
    30   31   30 1
    31   32   30 ar
    32   33   32 ar
    33   34   33 1
    34   35   27 ar
    35   36   35 1
    36   37   32 1
    37   38   37 2
    38   39   38 1
    39   40   38 1
    40   41   40 ar
    41   42   41 1
    42   43   41 ar
    43   44   43 1
    44   45   43 ar
    45   46   45 ar
    46   47   46 1
    47   48   40 ar
    48   49   48 1
    49   50   45 1
    50   51   50 1
    51   52   51 1
    52   53   51 1
    53   54   51 1
    54   55   54 1
    55   56   54 1
    56   57   54 1
    57   58   57 1
    58   59   57 1
    59   60   57 1
    60   61   60 1
    61   62   60 1
    62   63   60 1
    63   64   63 1
    64   65   63 1
    65   66   63 1
    66   67   66 1
    67   68   66 1
    68   69   66 1
    69   70   69 1
    70   71   69 1
    71   72   69 1
    72   73   72 1
    73   74   72 1
    74   75   72 1
    75   76   77 1
    76   78   76 1
    77   79   76 1
    78   80   76 1
    79   81   80 1
    80   82   80 1
    81   83   80 1
    82   84   83 1
    83   85   83 1
    84   86   83 1
    85   87   86 1
    86   88   86 1
    87   89   86 1
    88   90   89 1
    89   91   89 1
    90   92   89 1
    91   93   92 1
    92   94   92 1
    93   95   92 1
    94   96   95 1
    95   97   95 1
    96   98   95 1
    97   99   98 1
    98  100   98 1
    99  101   98 1
   100  102  101 1
   101  103  102 ar
   102  104  103 1
   103  105  103 ar
   104  106  105 1
   105  107  105 ar
   106  108  107 ar
   107  109  108 1
   108  110  102 ar
   109  111  110 1
   110  112  113 ar
   111  113  114 1
   112  115  113 ar
   113  116  115 1
   114  117  115 ar
   115  118  117 ar
   116  119  118 1
   117  120  112 ar
   118  121  120 1
   119  122  117 1
   120  123  122 1
   121  124  123 1
   122  125  123 1
   123  126  123 1
   124  127  126 1
   125  128  126 1
   126  129  126 1
   127  130  129 1
   128  131  129 1
   129  132  129 1
   130  133  132 1
   131  134  132 1
   132  135  132 1
   133  136  135 1
   134  137  135 1
   135  138  135 1
   136  139  138 1
   137  140  138 1
   138  141  138 1
   139  142  141 1
   140  143  141 1
   141  144  141 1
   142  145  144 1
   143  146  144 1
   144  147  144 1
   145  148  112 1
   146  150  107 1
   147  152  148 1
   148   33   35 ar
   149   46   48 ar
   150  108  110 ar
   151  118  120 ar
   152  148  150 2
@<TRIPOS>SUBSTRUCTURE
     1 RES1 1
     2 RES2 76
     3 SUP3 149

@<TRIPOS>CRYSIN
   7.9763   13.6660   26.2410  93.7060  98.3700 105.2940   2 1

