# MOL2 file generated by ConQuest
# Please check atom types

@<TRIPOS>MOLECULE
JAYNIH
    35    35     1
SMALL
NO_CHARGES
****
Generated from CSD

@<TRIPOS>ATOM
      1 O1         1.9016  -14.7509   -0.0015 O.3       1 RES1    0.0000
      2 H1         1.2667  -14.5126    0.4628 H         1 RES1    0.0000
      3 O2         4.2718  -15.1015   -1.2853 O.3       1 RES1    0.0000
      4 H2         3.9699  -15.6107   -0.7191 H         1 RES1    0.0000
      5 O3         0.1553   -7.7214   -1.6129 O.2       1 RES1    0.0000
      6 O4         1.6288   -6.9415   -3.1139 O.3       1 RES1    0.0000
      7 O5         1.0833   -6.9075   -6.4587 O.2       1 RES1    0.0000
      8 O6         1.9630   -5.0740   -5.8463 O.2       1 RES1    0.0000
      9 N1         1.1357   -5.9525   -5.7327 N.pl3     1 RES1    0.0000
     10 C1         2.3639  -11.4303   -1.5353 C.ar      1 RES1    0.0000
     11 C2         1.8019  -12.4735   -0.8201 C.ar      1 RES1    0.0000
     12 H3         0.9844  -12.3411   -0.3976 H         1 RES1    0.0000
     13 C3         2.4107  -13.6911   -0.7165 C.ar      1 RES1    0.0000
     14 C4         3.6343  -13.9043   -1.3498 C.ar      1 RES1    0.0000
     15 C5         4.2093  -12.8772   -2.0613 C.ar      1 RES1    0.0000
     16 H4         5.0254  -13.0172   -2.4854 H         1 RES1    0.0000
     17 C6         3.6012  -11.6520   -2.1565 C.ar      1 RES1    0.0000
     18 H5         4.0101  -10.9662   -2.6331 H         1 RES1    0.0000
     19 C7         1.6542  -10.1534   -1.6153 C.2       1 RES1    0.0000
     20 H6         0.8429  -10.1147   -1.1623 H         1 RES1    0.0000
     21 C8         2.0101   -9.0531   -2.2427 C.2       1 RES1    0.0000
     22 H7         2.8267   -9.0294   -2.6874 H         1 RES1    0.0000
     23 C9         1.1605   -7.8721   -2.2597 C.2       1 RES1    0.0000
     24 C10        0.8627   -5.7340   -3.3262 C.3       1 RES1    0.0000
     25 H8         1.4619   -4.9717   -3.3566 H         1 RES1    0.0000
     26 H9         0.2487   -5.6059   -2.5875 H         1 RES1    0.0000
     27 C11        0.0866   -5.8158   -4.6182 C.3       1 RES1    0.0000
     28 C12       -0.6334   -4.5023   -4.8739 C.3       1 RES1    0.0000
     29 H10       -1.0428   -4.5260   -5.7420 H         1 RES1    0.0000
     30 H11       -0.0030   -3.7799   -4.8361 H         1 RES1    0.0000
     31 H12       -1.3090   -4.3721   -4.2039 H         1 RES1    0.0000
     32 C13       -0.8574   -6.9893   -4.6820 C.3       1 RES1    0.0000
     33 H13       -0.3636   -7.8032   -4.5623 H         1 RES1    0.0000
     34 H14       -1.2933   -7.0033   -5.5378 H         1 RES1    0.0000
     35 H15       -1.5156   -6.9085   -3.9888 H         1 RES1    0.0000
@<TRIPOS>BOND
     1    1    2 1
     2    3    4 1
     3    5   23 2
     4    6   23 1
     5    7    9 2
     6    8    9 2
     7    9   27 1
     8   10   11 ar
     9   11   12 1
    10   13    1 1
    11   14    3 1
    12   15   14 ar
    13   16   15 1
    14   17   10 ar
    15   18   17 1
    16   19   10 1
    17   20   19 1
    18   21   19 2
    19   22   21 1
    20   23   21 1
    21   24    6 1
    22   25   24 1
    23   26   24 1
    24   27   24 1
    25   28   27 1
    26   29   28 1
    27   30   28 1
    28   31   28 1
    29   32   27 1
    30   33   32 1
    31   34   32 1
    32   35   32 1
    33   11   13 ar
    34   13   14 ar
    35   15   17 ar
@<TRIPOS>SUBSTRUCTURE
     1 RES1 1

@<TRIPOS>CRYSIN
   5.7390   10.7660   22.1120  90.0000 100.7300  90.0000  14 1

