# MOL2 file generated by ConQuest
# Please check atom types

@<TRIPOS>MOLECULE
JAYSAE
    61    64     1
SMALL
NO_CHARGES
****
Generated from CSD

@<TRIPOS>ATOM
      1 O1        10.4104   -4.1135   15.1181 O.3       1 RES1    0.0000
      2 O2         9.7890    2.3726   12.5303 O.3       1 RES1    0.0000
      3 O3        17.2396    6.5145    9.6587 O.2       1 RES1    0.0000
      4 N1         9.3650    1.7153   13.7124 N.2       1 RES1    0.0000
      5 N2        10.5352    0.3143   12.3889 N.2       1 RES1    0.0000
      6 N3        11.9573    3.0721   10.7362 N.3       1 RES1    0.0000
      7 N4        14.4833    4.4299   10.6846 N.3       1 RES1    0.0000
      8 N5        16.9327    4.2799    9.4798 N.am      1 RES1    0.0000
      9 C1        10.6179   -4.5696   13.8155 C.3       1 RES1    0.0000
     10 H1        10.8640   -5.4970   13.8363 H         1 RES1    0.0000
     11 H2        11.3225   -4.0612   13.4073 H         1 RES1    0.0000
     12 H3         9.8111   -4.4638   13.3069 H         1 RES1    0.0000
     13 C2        10.0536   -2.8091   15.2981 C.ar      1 RES1    0.0000
     14 C3         9.5913   -2.4815   16.5486 C.ar      1 RES1    0.0000
     15 H4         9.5631   -3.1275   17.2175 H         1 RES1    0.0000
     16 C4         9.1736   -1.2099   16.8133 C.ar      1 RES1    0.0000
     17 H5         8.8390   -1.0055   17.6569 H         1 RES1    0.0000
     18 C5         9.2366   -0.2249   15.8522 C.ar      1 RES1    0.0000
     19 H6         8.9555    0.6399   16.0491 H         1 RES1    0.0000
     20 C6         9.7183   -0.5331   14.5965 C.ar      1 RES1    0.0000
     21 C7        10.1204   -1.8303   14.3149 C.ar      1 RES1    0.0000
     22 H7        10.4346   -2.0460   13.4673 H         1 RES1    0.0000
     23 C8         9.8399    0.5043   13.5586 C.2       1 RES1    0.0000
     24 C9        10.4745    1.4708   11.8230 C.2       1 RES1    0.0000
     25 C10       11.1089    1.8950   10.5529 C.3       1 RES1    0.0000
     26 H8        11.6443    1.1658   10.2035 H         1 RES1    0.0000
     27 H9        10.4192    2.0963    9.9010 H         1 RES1    0.0000
     28 C11       12.9747    2.8707   11.7695 C.3       1 RES1    0.0000
     29 H10       13.5553    2.1343   11.5205 H         1 RES1    0.0000
     30 H11       12.5482    2.6479   12.6119 H         1 RES1    0.0000
     31 C12       13.7919    4.1361   11.9286 C.3       1 RES1    0.0000
     32 H12       13.2091    4.8756   12.1620 H         1 RES1    0.0000
     33 H13       14.4376    4.0211   12.6432 H         1 RES1    0.0000
     34 C13       13.4886    4.6384    9.6415 C.3       1 RES1    0.0000
     35 H14       13.9345    4.8315    8.8017 H         1 RES1    0.0000
     36 H15       12.9330    5.3995    9.8697 H         1 RES1    0.0000
     37 C14       12.6240    3.4100    9.4824 C.3       1 RES1    0.0000
     38 H16       11.9572    3.5712    8.7965 H         1 RES1    0.0000
     39 H17       13.1736    2.6633    9.1981 H         1 RES1    0.0000
     40 C15       15.3939    5.5659   10.8163 C.3       1 RES1    0.0000
     41 H18       15.6997    5.6131   11.7356 H         1 RES1    0.0000
     42 H19       14.9026    6.3803   10.6286 H         1 RES1    0.0000
     43 C16       16.5889    5.5073    9.9153 C.2       1 RES1    0.0000
     44 C17       18.0083    4.0201    8.5879 C.ar      1 RES1    0.0000
     45 C18       19.3197    4.1906    9.0143 C.ar      1 RES1    0.0000
     46 C19       20.3270    3.9174    8.0937 C.ar      1 RES1    0.0000
     47 H20       21.2158    4.0190    8.3466 H         1 RES1    0.0000
     48 C20       20.0348    3.4993    6.8145 C.ar      1 RES1    0.0000
     49 H21       20.7243    3.3432    6.2108 H         1 RES1    0.0000
     50 C21       18.7325    3.3134    6.4285 C.ar      1 RES1    0.0000
     51 H22       18.5437    3.0217    5.5653 H         1 RES1    0.0000
     52 C22       17.7027    3.5558    7.3074 C.ar      1 RES1    0.0000
     53 C23       16.2841    3.3175    6.8875 C.3       1 RES1    0.0000
     54 H23       15.7788    4.1279    6.9892 H         1 RES1    0.0000
     55 H24       15.8987    2.6304    7.4352 H         1 RES1    0.0000
     56 H25       16.2641    3.0423    5.9682 H         1 RES1    0.0000
     57 C24       19.6506    4.6209   10.4173 C.3       1 RES1    0.0000
     58 H26       19.0208    4.2317   11.0289 H         1 RES1    0.0000
     59 H27       19.6049    5.5782   10.4786 H         1 RES1    0.0000
     60 H28       20.5366    4.3272   10.6416 H         1 RES1    0.0000
     61 H29       16.3678    3.6873    9.6623 H         1 RES1    0.0000
@<TRIPOS>BOND
     1    1    9 1
     2    2    4 1
     3    3   43 2
     4    4   23 2
     5    5   23 1
     6    6   25 1
     7    7   31 1
     8    8   43 1
     9    9   10 1
    10   11    9 1
    11   12    9 1
    12   13    1 1
    13   14   13 ar
    14   15   14 1
    15   16   14 ar
    16   17   16 1
    17   18   16 ar
    18   19   18 1
    19   20   18 ar
    20   21   13 ar
    21   22   21 1
    22   23   20 1
    23   24    2 1
    24   25   24 1
    25   26   25 1
    26   27   25 1
    27   28    6 1
    28   29   28 1
    29   30   28 1
    30   31   28 1
    31   32   31 1
    32   33   31 1
    33   34    7 1
    34   35   34 1
    35   36   34 1
    36   37    6 1
    37   38   37 1
    38   39   37 1
    39   40    7 1
    40   41   40 1
    41   42   40 1
    42   43   40 1
    43   44    8 1
    44   45   44 ar
    45   46   45 ar
    46   47   46 1
    47   48   46 ar
    48   49   48 1
    49   50   48 ar
    50   51   50 1
    51   52   44 ar
    52   53   52 1
    53   54   53 1
    54   55   53 1
    55   56   53 1
    56   57   45 1
    57   58   57 1
    58   59   57 1
    59   60   57 1
    60   61    8 1
    61    5   24 2
    62   20   21 ar
    63   34   37 1
    64   50   52 ar
@<TRIPOS>SUBSTRUCTURE
     1 RES1 1

@<TRIPOS>CRYSIN
  17.1200   10.2710   13.0420  90.0000  91.1000  90.0000  14 1

