# MOL2 file generated by ConQuest
# Please check atom types

@<TRIPOS>MOLECULE
JAYZAL
    52    53     1
SMALL
NO_CHARGES
****
Generated from CSD

@<TRIPOS>ATOM
      1 N1         2.4651   14.2451   17.3634 N.2       1 RES1    0.0000
      2 N2         6.2188   17.0862   19.1482 N.am      1 RES1    0.0000
      3 O1         2.3519   15.1322   18.4433 O.3       1 RES1    0.0000
      4 O2         5.2340   13.3235   15.4899 O.2       1 RES1    0.0000
      5 O3         3.1833   12.4727   15.5026 O.3       1 RES1    0.0000
      6 O4         4.6537   19.0454   16.6079 O.2       1 RES1    0.0000
      7 O5         6.7632   18.8275   17.2094 O.3       1 RES1    0.0000
      8 O6         5.6744   19.0281   20.1556 O.2       1 RES1    0.0000
      9 O7         7.4331   17.7399   20.8622 O.3       1 RES1    0.0000
     10 C1         3.6968   15.6216   18.8456 C.3       1 RES1    0.0000
     11 H1         3.8916   15.4193   19.7859 H         1 RES1    0.0000
     12 C2         3.8174   17.0914   18.5575 C.3       1 RES1    0.0000
     13 C3         5.2742   17.2367   18.0393 C.3       1 RES1    0.0000
     14 C4         5.3967   16.0020   17.1333 C.3       1 RES1    0.0000
     15 C5         4.6618   14.8884   17.8907 C.3       1 RES1    0.0000
     16 H2         5.2866   14.3143   18.3817 H         1 RES1    0.0000
     17 C6         3.7271   14.0913   17.0663 C.2       1 RES1    0.0000
     18 C7         4.1384   13.2578   15.9791 C.2       1 RES1    0.0000
     19 C8         3.5013   11.7292   14.3194 C.3       1 RES1    0.0000
     20 H3         4.1997   11.0842   14.5115 H         1 RES1    0.0000
     21 H4         3.8211   12.3275   13.6273 H         1 RES1    0.0000
     22 C9         2.3012   11.0427   13.8665 C.3       1 RES1    0.0000
     23 H5         2.0655   10.3614   14.5006 H         1 RES1    0.0000
     24 H6         2.4695   10.6380   13.0113 H         1 RES1    0.0000
     25 H7         1.5836   11.6721   13.7886 H         1 RES1    0.0000
     26 C10        5.4808   18.4886   17.2131 C.2       1 RES1    0.0000
     27 C11        7.1201   20.0034   16.3596 C.3       1 RES1    0.0000
     28 H8         7.6354   19.7129   15.5914 H         1 RES1    0.0000
     29 H9         6.3141   20.4391   16.0408 H         1 RES1    0.0000
     30 C12        7.8686   20.8887   17.1279 C.3       1 RES1    0.0000
     31 H10        7.3106   21.2692   17.8110 H         1 RES1    0.0000
     32 H11        8.2088   21.5908   16.5680 H         1 RES1    0.0000
     33 H12        8.5992   20.4201   17.5356 H         1 RES1    0.0000
     34 C13        6.3784   18.0528   20.0523 C.2       1 RES1    0.0000
     35 C14        7.8655   18.6598   21.9131 C.3       1 RES1    0.0000
     36 C15        9.0514   17.9128   22.5056 C.3       1 RES1    0.0000
     37 H13        9.3650   18.3762   23.2847 H         1 RES1    0.0000
     38 H14        9.7566   17.8661   21.8551 H         1 RES1    0.0000
     39 H15        8.7810   17.0240   22.7484 H         1 RES1    0.0000
     40 C16        8.3276   19.9844   21.3043 C.3       1 RES1    0.0000
     41 H16        7.5649   20.4737   20.9872 H         1 RES1    0.0000
     42 H17        8.9227   19.8097   20.5705 H         1 RES1    0.0000
     43 H18        8.7847   20.5014   21.9711 H         1 RES1    0.0000
     44 C17        6.8046   18.8137   22.9495 C.3       1 RES1    0.0000
     45 H19        6.0085   19.1682   22.5418 H         1 RES1    0.0000
     46 H20        7.1059   19.4137   23.6326 H         1 RES1    0.0000
     47 H21        6.6066   17.9577   23.3373 H         1 RES1    0.0000
     48 H22        3.6869   17.7416   19.4417 H         1 RES1    0.0000
     49 H23        3.2538   17.4649   17.7747 H         1 RES1    0.0000
     50 H24        4.7694   16.1161   16.2890 H         1 RES1    0.0000
     51 H25        6.1303   15.7876   16.9231 H         1 RES1    0.0000
     52 H26        6.7180   16.6349   18.9525 H         1 RES1    0.0000
@<TRIPOS>BOND
     1    1    3 1
     2    2   13 1
     3    3   10 1
     4    4   18 2
     5    5   18 1
     6    6   26 2
     7    7   26 1
     8    8   34 2
     9    9   34 1
    10   10   11 1
    11   12   10 1
    12   13   12 1
    13   14   13 1
    14   15   10 1
    15   16   15 1
    16   17    1 2
    17   18   17 1
    18   19    5 1
    19   20   19 1
    20   21   19 1
    21   22   19 1
    22   23   22 1
    23   24   22 1
    24   25   22 1
    25   26   13 1
    26   27    7 1
    27   28   27 1
    28   29   27 1
    29   30   27 1
    30   31   30 1
    31   32   30 1
    32   33   30 1
    33   34    2 1
    34   35    9 1
    35   36   35 1
    36   37   36 1
    37   38   36 1
    38   39   36 1
    39   40   35 1
    40   41   40 1
    41   42   40 1
    42   43   40 1
    43   44   35 1
    44   45   44 1
    45   46   44 1
    46   47   44 1
    47   48   12 1
    48   49   12 1
    49   50   14 1
    50   51   14 1
    51   52    2 1
    52   14   15 1
    53   15   17 1
@<TRIPOS>SUBSTRUCTURE
     1 RES1 1

@<TRIPOS>CRYSIN
   6.1860   17.2920   18.1190  90.0000  90.0000  90.0000  19 1

