# MOL2 file generated by ConQuest
# Please check atom types

@<TRIPOS>MOLECULE
JEBBAW
    40    29     2
SMALL
NO_CHARGES
****
Generated from CSD

@<TRIPOS>ATOM
      1 C1        -0.5190    4.6601    8.1313 C.ar      1 RES1    0.0000
      2 C2         0.0853    3.4438    7.9760 C.ar      1 RES1    0.0000
      3 H1         0.0558    3.0275    7.1450 H         1 RES1    0.0000
      4 C3         0.7393    2.8146    9.0200 C.ar      1 RES1    0.0000
      5 C4         0.7780    3.4510   10.2984 C.ar      1 RES1    0.0000
      6 C5         0.1677    4.7315   10.3943 C.ar      1 RES1    0.0000
      7 H2         0.2083    5.1857   11.2039 H         1 RES1    0.0000
      8 C6        -0.4705    5.3150    9.3539 C.ar      1 RES1    0.0000
      9 H3        -0.8725    6.1470    9.4563 H         1 RES1    0.0000
     10 C7         1.3519    1.5312    8.6629 C.2       1 RES1    0.0000
     11 H4         2.1549    1.2713    9.2090 H         1 RES1    0.0000
     12 N1         1.3360    2.9168   11.4037 N.3       1 RES1    0.0000
     13 O1        -1.8393    6.3049    7.2130 O.2       1 RES1    0.0000
     14 N2        -1.2294    5.2636    7.0315 N.pl3     1 RES1    0.0000
     15 O2        -1.2187    4.6987    5.9460 O.2       1 RES1    0.0000
     16 O3         1.2938    1.0006    7.6276 O.2       1 RES1    0.0000
     17 C8         1.6591    1.3648   13.0151 C.3       1 RES1    0.0000
     18 H5         0.7389    1.2127   13.2825 H         1 RES1    0.0000
     19 H6         2.2075    0.6299   13.3316 H         1 RES1    0.0000
     20 C9         2.1553    2.6568   13.5189 C.3       1 RES1    0.0000
     21 H7         3.1229    2.6989   13.4698 H         1 RES1    0.0000
     22 H8         1.8805    2.7989   14.4390 H         1 RES1    0.0000
     23 C10        1.5118    3.7031   12.5878 C.3       1 RES1    0.0000
     24 H9         0.6644    4.0216   12.9351 H         1 RES1    0.0000
     25 H10        2.1015    4.4573   12.4332 H         1 RES1    0.0000
     26 C11        1.7769    1.5355   11.4967 C.3       1 RES1    0.0000
     27 H11        2.6892    1.4234   11.1875 H         1 RES1    0.0000
     28 H12        1.1901    0.9327   11.0148 H         1 RES1    0.0000
     29 C12        2.6671    1.7326   12.9642 Du        2 SUP2    0.0000
     30 H13        3.5028    2.2190   12.8860 Du        2 SUP2    0.0000
     31 H14        2.8422    0.8570   13.3425 Du        2 SUP2    0.0000
     32 C13        1.6642    2.4997   13.7953 Du        2 SUP2    0.0000
     33 H15        0.9687    1.9090   14.1299 Du        2 SUP2    0.0000
     34 H16        2.0955    2.9346   14.5463 Du        2 SUP2    0.0000
     35 C14        1.1124    3.4924   12.8496 Du        2 SUP2    0.0000
     36 H17        1.5656    4.3401   12.9497 Du        2 SUP2    0.0000
     37 H18        0.1651    3.6231   13.0151 Du        2 SUP2    0.0000
     38 C15        1.9785    1.6284   11.6458 Du        2 SUP2    0.0000
     39 H19        2.6153    1.4277   10.9438 Du        2 SUP2    0.0000
     40 H20        1.3121    0.9184   11.6694 Du        2 SUP2    0.0000
@<TRIPOS>BOND
     1    1    2 ar
     2    2    3 1
     3    4    2 ar
     4    5    4 ar
     5    6    5 ar
     6    7    6 1
     7    8    1 ar
     8    9    8 1
     9   10    4 1
    10   11   10 1
    11   12    5 1
    12   13   14 2
    13   14    1 1
    14   15   14 2
    15   16   10 2
    16   17   18 1
    17   19   17 1
    18   20   17 1
    19   21   20 1
    20   22   20 1
    21   23   12 1
    22   24   23 1
    23   25   23 1
    24   26   12 1
    25   27   26 1
    26   28   26 1
    27    6    8 ar
    28   17   26 1
    29   20   23 1
@<TRIPOS>SUBSTRUCTURE
     1 RES1 1
     2 SUP2 29

@<TRIPOS>CRYSIN
   8.1726    7.1419   18.4875  90.0000 100.3760  90.0000 231 1

