# MOL2 file generated by ConQuest
# Please check atom types

@<TRIPOS>MOLECULE
JEBXOD
    19    21     1
SMALL
NO_CHARGES
****
Generated from CSD

@<TRIPOS>ATOM
      1 O1         1.2576    8.1524   -0.7976 O.3       1 RES1    0.0000
      2 O2         0.7192    7.3574    1.2409 O.3       1 RES1    0.0000
      3 N1         1.2841    6.9365   -0.0445 N.3       1 RES1    0.0000
      4 N2         0.2817    8.7342   -3.9714 N.1       1 RES1    0.0000
      5 C1        -0.0539    8.3366   -1.4090 C.3       1 RES1    0.0000
      6 C2         0.6994    6.2114    2.1324 C.3       1 RES1    0.0000
      7 C3        -0.4541    5.2811    1.6858 C.3       1 RES1    0.0000
      8 C4        -0.2696    4.9581    0.1582 C.3       1 RES1    0.0000
      9 C5        -1.5036    4.3589   -0.5718 C.3       1 RES1    0.0000
     10 C6        -2.5280    5.3475   -1.1733 C.3       1 RES1    0.0000
     11 C7        -1.9061    6.5215   -1.9445 C.3       1 RES1    0.0000
     12 C8        -0.8353    7.1090   -1.0266 C.3       1 RES1    0.0000
     13 C9         0.2582    6.0995   -0.7168 C.3       1 RES1    0.0000
     14 C10        0.9865    5.5399   -1.9412 C.3       1 RES1    0.0000
     15 C11       -1.8142    5.9129    2.0170 C.3       1 RES1    0.0000
     16 C12       -0.4086    3.9311    2.4422 C.3       1 RES1    0.0000
     17 C13        0.4572    6.8771    3.4870 C.3       1 RES1    0.0000
     18 C14        2.0656    5.5189    2.1489 C.3       1 RES1    0.0000
     19 C15        0.1580    8.5511   -2.8624 C.1       1 RES1    0.0000
@<TRIPOS>BOND
     1    1    3 1
     2    2    3 1
     3    3   13 1
     4    4   19 3
     5    5    1 1
     6    6    2 1
     7    7    6 1
     8    8    7 1
     9    9    8 1
    10   10    9 1
    11   11   10 1
    12   12    5 1
    13   13    8 1
    14   14   13 1
    15   15    7 1
    16   16    7 1
    17   17    6 1
    18   18    6 1
    19   19    5 1
    20   11   12 1
    21   12   13 1
@<TRIPOS>SUBSTRUCTURE
     1 RES1 1

@<TRIPOS>CRYSIN
   7.5940   11.6580   16.4790  90.0000  90.0000  90.0000  19 1

