# MOL2 file generated by ConQuest
# Please check atom types

@<TRIPOS>MOLECULE
JEBYEU
    30    30     2
SMALL
NO_CHARGES
****
Generated from CSD

@<TRIPOS>ATOM
      1 O1         4.7001   -8.8529   11.6902 O.3       1 RES1    0.0000
      2 O2         1.4977    2.8594   11.2384 O.3       2 RES2    0.0000
      3 O3         3.0586    4.3284   11.9187 O.2       2 RES2    0.0000
      4 O4         6.3545  -10.2806   12.1852 O.2       1 RES1    0.0000
      5 O5         5.9211   -2.3024   11.8998 O.2       2 RES2    0.0000
      6 O6        10.6374   -4.9520   12.8371 O.2       1 RES1    0.0000
      7 O7         7.4655   -0.9296   12.4070 O.2       2 RES2    0.0000
      8 O8         9.0385   -3.5753   12.4814 O.2       1 RES1    0.0000
      9 N1         6.3357   -1.1767   12.0919 N.pl3     2 RES2    0.0000
     10 N2         9.4854   -4.7030   12.5842 N.pl3     1 RES1    0.0000
     11 C1         2.2990  -11.9378   11.0774 C.3       1 RES1    0.0000
     12 C2        -1.1011    5.8189   10.8002 C.3       2 RES2    0.0000
     13 C3        -0.1565    4.7559   10.9598 C.1       2 RES2    0.0000
     14 C4         3.1811  -10.8199   11.3358 C.1       1 RES1    0.0000
     15 C5         3.8999   -9.9394   11.5049 C.1       1 RES1    0.0000
     16 C6         0.6041    3.8910   11.0991 C.1       2 RES2    0.0000
     17 C7         5.9751   -9.1647   12.0580 C.2       1 RES1    0.0000
     18 C8         2.7198    3.1870   11.6672 C.2       2 RES2    0.0000
     19 C9         3.6055    2.0063   11.7578 C.ar      2 RES2    0.0000
     20 C10        6.8104   -7.9448   12.1852 C.ar      1 RES1    0.0000
     21 C11        4.9167    2.2397   12.1892 C.ar      2 RES2    0.0000
     22 C12        6.3431   -6.6563   12.0608 C.ar      1 RES1    0.0000
     23 C13        7.2220   -5.5718   12.1865 C.ar      1 RES1    0.0000
     24 C14        5.7964    1.2159   12.2731 C.ar      2 RES2    0.0000
     25 C15        5.3855   -0.0510   11.9688 C.ar      2 RES2    0.0000
     26 C16        8.5149   -5.8326   12.4503 C.ar      1 RES1    0.0000
     27 C17        4.0818   -0.3334   11.5360 C.ar      2 RES2    0.0000
     28 C18        9.0575   -7.0995   12.5964 C.ar      1 RES1    0.0000
     29 C19        8.1666   -8.1566   12.4584 C.ar      1 RES1    0.0000
     30 C20        3.2095    0.7217   11.4507 C.ar      2 RES2    0.0000
@<TRIPOS>BOND
     1    1   15 1
     2    2   16 1
     3    3   18 2
     4    4   17 2
     5    5    9 2
     6    6   10 2
     7    7    9 2
     8    8   10 2
     9    9   25 1
    10   10   26 1
    11   11   14 1
    12   12   13 1
    13   13   16 3
    14   14   15 3
    15   17    1 1
    16   18    2 1
    17   19   18 1
    18   20   17 1
    19   21   19 ar
    20   22   20 ar
    21   23   22 ar
    22   24   21 ar
    23   25   24 ar
    24   26   23 ar
    25   27   25 ar
    26   28   26 ar
    27   29   20 ar
    28   30   19 ar
    29   27   30 ar
    30   28   29 ar
@<TRIPOS>SUBSTRUCTURE
     1 RES1 1
     2 RES2 2

@<TRIPOS>CRYSIN
   7.2250   19.6120   13.7750  90.0000 100.9200  90.0000  14 1

