# MOL2 file generated by ConQuest
# Please check atom types

@<TRIPOS>MOLECULE
JECSAO
    52    55     1
SMALL
NO_CHARGES
****
Generated from CSD

@<TRIPOS>ATOM
      1 O1         5.9513    2.4505    5.1241 O.2       1 RES1    0.0000
      2 O2         4.2400    1.3763    4.3432 O.2       1 RES1    0.0000
      3 O3         1.0538   -0.7011    7.1186 O.2       1 RES1    0.0000
      4 N1         6.8421    3.3129    8.8338 N.2       1 RES1    0.0000
      5 N2         4.8838    1.8178    5.2861 N.pl3     1 RES1    0.0000
      6 N3         6.1944    2.8628    7.6797 N.pl3     1 RES1    0.0000
      7 H1         6.5341    3.0485    6.8900 H         1 RES1    0.0000
      8 O4         1.1110   -0.4265    9.2677 O.2       1 RES1    0.0000
      9 N4         1.5484   -0.2337    8.1396 N.pl3     1 RES1    0.0000
     10 C1         2.7380    0.5918    8.0095 C.ar      1 RES1    0.0000
     11 C2         8.0135    3.8126    8.6415 C.2       1 RES1    0.0000
     12 C3         4.4657    1.9146    9.0349 C.ar      1 RES1    0.0000
     13 H2         4.8592    2.2939    9.8115 H         1 RES1    0.0000
     14 C4         3.3270    1.1442    9.1535 C.ar      1 RES1    0.0000
     15 H3         2.9444    0.9892   10.0097 H         1 RES1    0.0000
     16 C5         5.0503    2.1451    7.7650 C.ar      1 RES1    0.0000
     17 C6         4.3787    1.6155    6.6369 C.ar      1 RES1    0.0000
     18 C7         3.2425    0.8271    6.7642 C.ar      1 RES1    0.0000
     19 H4         2.8220    0.4572    5.9962 H         1 RES1    0.0000
     20 C8        10.9079    3.4632    8.4896 C.3       1 RES1    0.0000
     21 H5        11.0116    2.5992    8.0181 H         1 RES1    0.0000
     22 H6        11.8103    3.8040    8.7167 H         1 RES1    0.0000
     23 C9        10.0144    5.7642    8.3667 C.2       1 RES1    0.0000
     24 H7        10.3722    6.5920    8.0673 H         1 RES1    0.0000
     25 C10       10.8821    4.6877    6.2320 C.3       1 RES1    0.0000
     26 H8        11.7883    5.0253    6.3911 H         1 RES1    0.0000
     27 H9        10.3831    5.3353    5.6911 H         1 RES1    0.0000
     28 H10       10.9317    3.8331    5.7547 H         1 RES1    0.0000
     29 C11        8.8543    4.2439    9.8173 C.3       1 RES1    0.0000
     30 C12        9.3473    5.6564    9.5107 C.2       1 RES1    0.0000
     31 C13        8.7355    3.9377    7.3196 C.3       1 RES1    0.0000
     32 H11        8.2413    4.5539    6.7223 H         1 RES1    0.0000
     33 H12        8.7856    3.0532    6.8785 H         1 RES1    0.0000
     34 C14       10.1702    4.4854    7.5712 C.3       1 RES1    0.0000
     35 C15        9.1088    6.8092   10.4435 C.3       1 RES1    0.0000
     36 H13        9.5406    6.6282   11.3041 H         1 RES1    0.0000
     37 H14        8.1446    6.9241   10.5795 H         1 RES1    0.0000
     38 H15        9.4833    7.6268   10.0545 H         1 RES1    0.0000
     39 C16        8.3116    3.9834   11.2245 C.3       1 RES1    0.0000
     40 H16        7.7414    3.1744   11.2332 H         1 RES1    0.0000
     41 H17        7.7750    4.7546   11.5384 H         1 RES1    0.0000
     42 C17       10.7399    3.5529   11.1349 C.3       1 RES1    0.0000
     43 H18       11.3135    4.3580   11.0857 H         1 RES1    0.0000
     44 H19       11.2915    2.7857   11.4284 H         1 RES1    0.0000
     45 C18       10.0866    3.2649    9.7725 C.3       1 RES1    0.0000
     46 H20        9.7430    2.3261    9.7811 H         1 RES1    0.0000
     47 C19        9.5540    3.7843   12.1169 C.3       1 RES1    0.0000
     48 H21        9.7199    4.6357   12.6158 H         1 RES1    0.0000
     49 C20        9.3688    2.6960   13.1076 C.3       1 RES1    0.0000
     50 H22        8.5429    2.8502   13.6109 H         1 RES1    0.0000
     51 H23       10.1295    2.6826   13.7251 H         1 RES1    0.0000
     52 H24        9.3111    1.8359   12.6404 H         1 RES1    0.0000
@<TRIPOS>BOND
     1    1    5 2
     2    2    5 2
     3    3    9 2
     4    4    6 1
     5    5   17 1
     6    6    7 1
     7    8    9 2
     8    9   10 1
     9   10   14 ar
    10   11    4 2
    11   12   13 1
    12   14   12 ar
    13   15   14 1
    14   16    6 1
    15   17   16 ar
    16   18   10 ar
    17   19   18 1
    18   20   21 1
    19   22   20 1
    20   23   24 1
    21   25   26 1
    22   27   25 1
    23   28   25 1
    24   29   11 1
    25   30   23 2
    26   31   11 1
    27   32   31 1
    28   33   31 1
    29   34   20 1
    30   35   30 1
    31   36   35 1
    32   37   35 1
    33   38   35 1
    34   39   29 1
    35   40   39 1
    36   41   39 1
    37   42   43 1
    38   44   42 1
    39   45   20 1
    40   46   45 1
    41   47   39 1
    42   48   47 1
    43   49   47 1
    44   50   49 1
    45   51   49 1
    46   52   49 1
    47   12   16 ar
    48   17   18 ar
    49   23   34 1
    50   25   34 1
    51   29   30 1
    52   29   45 1
    53   31   34 1
    54   42   45 1
    55   42   47 1
@<TRIPOS>SUBSTRUCTURE
     1 RES1 1

@<TRIPOS>CRYSIN
  17.3000    7.8692   16.2580  90.0000 117.1800  90.0000  14 1

