# MOL2 file generated by ConQuest
# Please check atom types

@<TRIPOS>MOLECULE
JECVOF
    70    75     1
SMALL
NO_CHARGES
****
Generated from CSD

@<TRIPOS>ATOM
      1 C1         2.6787    7.7660    6.6146 C.2       1 RES1    0.0000
      2 O1         2.9835    7.4287    7.7259 O.2       1 RES1    0.0000
      3 N1         1.4808    7.4549    6.0127 N.am      1 RES1    0.0000
      4 C2         1.2770    8.1243    4.8319 C.2       1 RES1    0.0000
      5 O2         0.2558    8.0493    4.1914 O.2       1 RES1    0.0000
      6 C3         2.4914    8.9683    4.5464 C.3       1 RES1    0.0000
      7 H1         2.2712    9.9193    4.6359 H         1 RES1    0.0000
      8 C4         3.5019    8.5551    5.6218 C.3       1 RES1    0.0000
      9 H2         3.9109    9.3392    6.0447 H         1 RES1    0.0000
     10 C5         0.4788    6.6025    6.6400 C.3       1 RES1    0.0000
     11 H3        -0.3876    6.8090    6.2808 H         1 RES1    0.0000
     12 H4         0.4764    6.7551    7.5875 H         1 RES1    0.0000
     13 H5         0.6865    5.6818    6.4650 H         1 RES1    0.0000
     14 C6         4.5786    7.6918    4.8607 C.3       1 RES1    0.0000
     15 C7         5.9411    8.3907    4.9413 C.2       1 RES1    0.0000
     16 O3         6.2517    9.1952    5.7587 O.2       1 RES1    0.0000
     17 O4         6.7714    7.9177    4.0129 O.3       1 RES1    0.0000
     18 C8         8.1496    8.3494    4.1283 C.3       1 RES1    0.0000
     19 H6         8.1890    9.3080    4.0953 H         1 RES1    0.0000
     20 H7         8.6614    7.9835    3.4023 H         1 RES1    0.0000
     21 H8         8.5129    8.0425    4.9619 H         1 RES1    0.0000
     22 C9         4.7594    6.1902    5.3182 C.3       1 RES1    0.0000
     23 H9         3.9602    5.9347    5.8239 H         1 RES1    0.0000
     24 C10        5.9794    5.9077    6.1991 C.ar      1 RES1    0.0000
     25 C11        6.0126    6.4153    7.4886 C.ar      1 RES1    0.0000
     26 H10        5.2877    6.8933    7.8190 H         1 RES1    0.0000
     27 C12        7.1328    6.2070    8.2876 C.ar      1 RES1    0.0000
     28 H11        7.1488    6.5460    9.1531 H         1 RES1    0.0000
     29 C13        8.2110    5.5106    7.8144 C.ar      1 RES1    0.0000
     30 H12        8.9633    5.3909    8.3474 H         1 RES1    0.0000
     31 C14        8.1759    4.9989    6.5640 C.ar      1 RES1    0.0000
     32 H13        8.9033    4.5174    6.2442 H         1 RES1    0.0000
     33 C15        7.0656    5.1843    5.7526 C.ar      1 RES1    0.0000
     34 H14        7.0532    4.8167    4.8979 H         1 RES1    0.0000
     35 C16        4.7190    5.4558    3.9853 C.3       1 RES1    0.0000
     36 H15        5.6081    5.4668    3.5744 H         1 RES1    0.0000
     37 N2         4.2466    4.0335    4.1393 N.pl3     1 RES1    0.0000
     38 O5         3.1152    3.8472    4.5633 O.2       1 RES1    0.0000
     39 O6         5.0096    3.1575    3.8137 O.2       1 RES1    0.0000
     40 C17        3.7404    6.2416    3.1189 C.3       1 RES1    0.0000
     41 H16        2.8181    6.0646    3.3993 H         1 RES1    0.0000
     42 C18        3.9046    5.9693    1.6352 C.ar      1 RES1    0.0000
     43 C19        3.0302    5.1422    0.9761 C.ar      1 RES1    0.0000
     44 H17        2.3458    4.7105    1.4331 H         1 RES1    0.0000
     45 C20        3.1974    4.9618   -0.4219 C.ar      1 RES1    0.0000
     46 H18        2.6252    4.3935   -0.8848 H         1 RES1    0.0000
     47 C21        4.1846    5.6110   -1.0888 C.ar      1 RES1    0.0000
     48 H19        4.2621    5.5089   -2.0103 H         1 RES1    0.0000
     49 C22        5.0599    6.4060   -0.4258 C.ar      1 RES1    0.0000
     50 H20        5.7452    6.8335   -0.8864 H         1 RES1    0.0000
     51 C23        4.9278    6.5738    0.9246 C.ar      1 RES1    0.0000
     52 H21        5.5403    7.1083    1.3768 H         1 RES1    0.0000
     53 N3         4.1233    7.5999    3.4654 N.3       1 RES1    0.0000
     54 C24        3.1828    8.7077    3.1920 C.3       1 RES1    0.0000
     55 H22        3.7213    9.5003    2.9835 H         1 RES1    0.0000
     56 C25        2.3042    8.4438    2.0064 C.2       1 RES1    0.0000
     57 H23        1.6285    7.8115    2.0956 H         1 RES1    0.0000
     58 C26        2.4306    9.0484    0.8541 C.2       1 RES1    0.0000
     59 H24        3.0576    9.7338    0.8102 H         1 RES1    0.0000
     60 C27        1.6804    8.7566   -0.3864 C.ar      1 RES1    0.0000
     61 C28        1.8775    9.5289   -1.5013 C.ar      1 RES1    0.0000
     62 H25        2.4676   10.2464   -1.4621 H         1 RES1    0.0000
     63 C29        1.2104    9.2591   -2.6881 C.ar      1 RES1    0.0000
     64 H26        1.3419    9.8105   -3.4252 H         1 RES1    0.0000
     65 C30        0.3735    8.2036   -2.7826 C.ar      1 RES1    0.0000
     66 H27       -0.0619    8.0172   -3.5836 H         1 RES1    0.0000
     67 C31        0.1770    7.4220   -1.6975 C.ar      1 RES1    0.0000
     68 H28       -0.3903    6.6868   -1.7560 H         1 RES1    0.0000
     69 C32        0.8086    7.7053   -0.5055 C.ar      1 RES1    0.0000
     70 H29        0.6407    7.1690    0.2361 H         1 RES1    0.0000
@<TRIPOS>BOND
     1    1    2 2
     2    3    1 1
     3    4    3 1
     4    5    4 2
     5    6    4 1
     6    7    6 1
     7    8    1 1
     8    9    8 1
     9   10    3 1
    10   11   10 1
    11   12   10 1
    12   13   10 1
    13   14    8 1
    14   15   14 1
    15   16   15 2
    16   17   15 1
    17   18   17 1
    18   19   18 1
    19   20   18 1
    20   21   18 1
    21   22   14 1
    22   23   22 1
    23   24   22 1
    24   25   24 ar
    25   26   25 1
    26   27   25 ar
    27   28   27 1
    28   29   27 ar
    29   30   29 1
    30   31   29 ar
    31   32   31 1
    32   33   24 ar
    33   34   33 1
    34   35   22 1
    35   36   35 1
    36   37   35 1
    37   38   37 2
    38   39   37 2
    39   40   35 1
    40   41   40 1
    41   42   40 1
    42   43   42 ar
    43   44   43 1
    44   45   43 ar
    45   46   45 1
    46   47   45 ar
    47   48   47 1
    48   49   47 ar
    49   50   49 1
    50   51   42 ar
    51   52   51 1
    52   53   14 1
    53   54    6 1
    54   55   54 1
    55   56   54 1
    56   57   56 1
    57   58   56 2
    58   59   58 1
    59   60   58 1
    60   61   60 ar
    61   62   61 1
    62   63   61 ar
    63   64   63 1
    64   65   63 ar
    65   66   65 1
    66   67   65 ar
    67   68   67 1
    68   69   60 ar
    69   70   69 1
    70    6    8 1
    71   31   33 ar
    72   40   53 1
    73   49   51 ar
    74   53   54 1
    75   67   69 ar
@<TRIPOS>SUBSTRUCTURE
     1 RES1 1

@<TRIPOS>CRYSIN
  10.9688    8.4312   15.8077  90.0000 105.5410  90.0000   4 1

