# MOL2 file generated by ConQuest
# Please check atom types

@<TRIPOS>MOLECULE
JECVOC
    43    44     2
SMALL
NO_CHARGES
****
Generated from CSD

@<TRIPOS>ATOM
      1 O1        12.8438    8.8982   -0.3562 O.3       1 RES1    0.0000
      2 N1        13.7199    9.8451    0.2618 N.3       1 RES1    0.0000
      3 C1        12.9167   10.3441    1.3908 C.3       1 RES1    0.0000
      4 C2        12.1663    9.1334    1.9046 C.3       1 RES1    0.0000
      5 C3        12.1335    8.2009    0.7007 C.3       1 RES1    0.0000
      6 C4        12.0078   11.4321    0.8129 C.2       1 RES1    0.0000
      7 O2        10.8094   11.2746    0.7666 O.2       1 RES1    0.0000
      8 C5        12.6489   12.6530    0.2520 C.ar      1 RES1    0.0000
      9 C6        12.0388   13.2870   -0.8290 C.ar      1 RES1    0.0000
     10 C7        12.6234   14.4139   -1.3766 C.ar      1 RES1    0.0000
     11 C8        13.7909   14.9210   -0.8566 C.ar      1 RES1    0.0000
     12 C9        14.3755   14.3177    0.2101 C.ar      1 RES1    0.0000
     13 C10       13.8237   13.1766    0.7542 C.ar      1 RES1    0.0000
     14 C11       10.7748    7.8880    0.1799 C.3       1 RES1    0.0000
     15 O3        10.8750    6.9329   -0.8379 O.3       1 RES1    0.0000
     16 C12        9.6128    6.6548   -1.3365 C.3       1 RES1    0.0000
     17 C13        9.5855    5.2784   -2.0221 C.3       1 RES1    0.0000
     18 C14       15.0075    9.2950    0.5227 C.ar      1 RES1    0.0000
     19 C15       15.9163   10.0149    1.2848 C.ar      1 RES1    0.0000
     20 C16       17.2131    9.5608    1.4300 C.ar      1 RES1    0.0000
     21 C17       17.6083    8.3890    0.8325 C.ar      1 RES1    0.0000
     22 C18       16.7122    7.6691    0.1015 C.ar      1 RES1    0.0000
     23 C19       15.4137    8.1088   -0.0659 C.ar      1 RES1    0.0000
     24 H1        13.5505   10.6754    2.1013 H         1 RES1    0.0000
     25 H2        12.5852    8.6917    2.6801 H         1 RES1    0.0000
     26 H3        11.2738    9.4484    2.1993 H         1 RES1    0.0000
     27 H4        12.6034    7.4033    0.8993 H         1 RES1    0.0000
     28 H5        11.2192   12.9250   -1.1753 H         1 RES1    0.0000
     29 H6        12.2209   14.8474   -2.0568 Du        2 SUP2    0.0000
     30 H7        14.1697   15.7677   -1.2555 H         1 RES1    0.0000
     31 H8        14.2790   12.7819    1.5226 H         1 RES1    0.0000
     32 H9        10.3086    8.7735   -0.1425 H         1 RES1    0.0000
     33 H10       10.2721    7.5055    0.9705 H         1 RES1    0.0000
     34 H11        8.9426    6.6261   -0.5431 H         1 RES1    0.0000
     35 H12        9.3251    7.4033   -2.0123 H         1 RES1    0.0000
     36 H13        8.6330    5.0718   -2.3774 H         1 RES1    0.0000
     37 H14        9.8714    4.5401   -1.3445 H         1 RES1    0.0000
     38 H15       10.2539    5.2968   -2.8137 H         1 RES1    0.0000
     39 H16       15.6450   10.8186    1.7185 H         1 RES1    0.0000
     40 H17       17.8305   10.0414    1.9411 H         1 RES1    0.0000
     41 H18       18.5226    8.1190    0.9616 H         1 RES1    0.0000
     42 H19       16.9381    6.7693   -0.3384 H         1 RES1    0.0000
     43 H20       14.7707    7.6078   -0.6144 H         1 RES1    0.0000
@<TRIPOS>BOND
     1    1    2 1
     2    2    3 1
     3    3    4 1
     4    4    5 1
     5    5    1 1
     6    6    3 1
     7    7    6 2
     8    8    6 1
     9    9    8 ar
    10   10    9 ar
    11   11   10 ar
    12   12   11 ar
    13   13    8 ar
    14   14    5 1
    15   15   14 1
    16   16   15 1
    17   17   16 1
    18   18    2 1
    19   19   18 ar
    20   20   19 ar
    21   21   20 ar
    22   22   21 ar
    23   23   18 ar
    24   24    3 1
    25   25    4 1
    26   26    4 1
    27   27    5 1
    28   28    9 1
    29   30   11 1
    30   31   13 1
    31   32   14 1
    32   33   14 1
    33   34   16 1
    34   35   16 1
    35   36   17 1
    36   37   17 1
    37   38   17 1
    38   39   19 1
    39   40   20 1
    40   41   21 1
    41   42   22 1
    42   43   23 1
    43   12   13 ar
    44   22   23 ar
@<TRIPOS>SUBSTRUCTURE
     1 RES1 1
     2 SUP2 29

@<TRIPOS>CRYSIN
  18.2130   20.4510    8.9040  90.0000  90.0000  90.0000  61 1

