# MOL2 file generated by ConQuest
# Please check atom types

@<TRIPOS>MOLECULE
JECVES
    30    31     1
SMALL
NO_CHARGES
****
Generated from CSD

@<TRIPOS>ATOM
      1 N1         5.0301    4.9887    4.9220 N.3       1 RES1    0.0000
      2 C1         6.2930    5.2156    5.3539 C.2       1 RES1    0.0000
      3 N2         6.4155    6.2727    6.1175 N.2       1 RES1    0.0000
      4 C2         5.1501    6.7665    6.1892 C.2       1 RES1    0.0000
      5 C3         4.2911    5.9928    5.4697 C.2       1 RES1    0.0000
      6 N3         7.4250    4.3964    5.0170 N.pl3     1 RES1    0.0000
      7 O1         7.3215    3.5974    4.1005 O.2       1 RES1    0.0000
      8 O2         8.4368    4.5716    5.6735 O.2       1 RES1    0.0000
      9 C4         4.4687    3.9350    4.0686 C.3       1 RES1    0.0000
     10 C5         4.5681    4.3028    2.5888 C.3       1 RES1    0.0000
     11 O3         3.8446    5.4982    2.3314 O.3       1 RES1    0.0000
     12 C6         4.0028    3.1791    1.7363 C.3       1 RES1    0.0000
     13 N4         4.9061    2.0327    1.7449 N.3       1 RES1    0.0000
     14 C7         4.8593    1.2207    0.5226 C.3       1 RES1    0.0000
     15 C8         5.9782    2.1375    0.7472 C.3       1 RES1    0.0000
     16 C9         7.3343    1.6529    1.1471 C.3       1 RES1    0.0000
     17 H1         4.8799    7.6056    6.6971 H         1 RES1    0.0000
     18 H2         3.2848    6.1302    5.3617 H         1 RES1    0.0000
     19 H3         4.9695    3.0757    4.2180 H         1 RES1    0.0000
     20 H4         3.5034    3.7910    4.2914 H         1 RES1    0.0000
     21 H5         5.5430    4.4398    2.3703 H         1 RES1    0.0000
     22 H6         4.2211    6.2494    2.8860 H         1 RES1    0.0000
     23 H7         3.8752    3.5055    0.7835 H         1 RES1    0.0000
     24 H8         3.0971    2.9083    2.0887 H         1 RES1    0.0000
     25 H9         4.1634    1.3991   -0.1892 H         1 RES1    0.0000
     26 H10        5.0039    0.2195    0.5641 H         1 RES1    0.0000
     27 H11        6.3873    2.8688    0.1563 H         1 RES1    0.0000
     28 H12        7.9776    2.4387    1.2448 H         1 RES1    0.0000
     29 H13        7.2830    1.1885    2.0334 H         1 RES1    0.0000
     30 H14        7.7131    1.0279    0.4656 H         1 RES1    0.0000
@<TRIPOS>BOND
     1    1    2 1
     2    2    3 2
     3    3    4 1
     4    4    5 2
     5    5    1 1
     6    6    2 1
     7    7    6 2
     8    8    6 2
     9    9    1 1
    10   10    9 1
    11   11   10 1
    12   12   10 1
    13   13   12 1
    14   14   13 1
    15   15   13 1
    16   16   15 1
    17   17    4 1
    18   18    5 1
    19   19    9 1
    20   20    9 1
    21   21   10 1
    22   22   11 1
    23   23   12 1
    24   24   12 1
    25   25   14 1
    26   26   14 1
    27   27   15 1
    28   28   16 1
    29   29   16 1
    30   30   16 1
    31   14   15 1
@<TRIPOS>SUBSTRUCTURE
     1 RES1 1

@<TRIPOS>CRYSIN
   7.1110    9.3050   10.3950  62.0000  67.8000  79.6600   2 1

