# MOL2 file generated by ConQuest
# Please check atom types

@<TRIPOS>MOLECULE
JECVIW
    43    44     2
SMALL
NO_CHARGES
****
Generated from CSD

@<TRIPOS>ATOM
      1 O1         1.2408    1.3306    2.0934 O.3       1 RES1    0.0000
      2 N1         0.2402    2.2056    2.6049 N.3       1 RES1    0.0000
      3 C1         0.6853    2.4263    4.0362 C.3       1 RES1    0.0000
      4 C2         2.1689    2.4749    4.0161 C.3       1 RES1    0.0000
      5 C3         2.4736    1.5595    2.8367 C.3       1 RES1    0.0000
      6 C4         0.2164    1.2780    4.8883 C.2       1 RES1    0.0000
      7 O2         0.8762    0.3727    5.2717 O.2       1 RES1    0.0000
      8 O3        -1.0028    1.4035    5.1888 O.3       1 RES1    0.0000
      9 C5        -1.5507    0.3646    6.0350 C.3       1 RES1    0.0000
     10 C6         3.4533    2.1144    1.8582 C.3       1 RES1    0.0000
     11 O4         4.6511    2.2602    2.4207 O.3       1 RES1    0.0000
     12 O5         3.9010    1.2273    1.0019 Du        2 SUP2    0.0000
     13 C7         0.2511    3.4633    1.8021 C.3       1 RES1    0.0000
     14 C8         0.0871    3.1919    0.2771 C.ar      1 RES1    0.0000
     15 C9         0.6012    4.0952   -0.6211 C.ar      1 RES1    0.0000
     16 C10        0.4255    3.9433   -2.0156 C.ar      1 RES1    0.0000
     17 C11       -0.2635    2.8780   -2.5412 C.ar      1 RES1    0.0000
     18 C12       -0.7766    1.9585   -1.6557 C.ar      1 RES1    0.0000
     19 C13       -0.5999    2.1124   -0.2570 C.ar      1 RES1    0.0000
     20 C14       -0.8308    4.3564    2.2893 C.ar      1 RES1    0.0000
     21 C15       -0.5499    5.5878    2.8551 C.ar      1 RES1    0.0000
     22 C16       -1.5510    6.4263    3.2552 C.ar      1 RES1    0.0000
     23 C17       -2.8258    6.0212    3.0769 C.ar      1 RES1    0.0000
     24 C18       -3.1140    4.7919    2.5329 C.ar      1 RES1    0.0000
     25 C19       -2.1237    3.9574    2.1403 C.ar      1 RES1    0.0000
     26 H1         0.3113    3.2405    4.3693 H         1 RES1    0.0000
     27 H2         2.5673    2.1468    4.8716 H         1 RES1    0.0000
     28 H3         2.4642    3.3823    3.8587 H         1 RES1    0.0000
     29 H4         2.7914    0.6481    3.1724 H         1 RES1    0.0000
     30 H5        -2.5508    0.5671    6.2192 H         1 RES1    0.0000
     31 H6        -1.0351    0.3443    6.9390 H         1 RES1    0.0000
     32 H7        -1.4576   -0.5468    5.5579 H         1 RES1    0.0000
     33 H8         1.0950    3.9493    1.9838 H         1 RES1    0.0000
     34 H9         1.0612    4.8405   -0.2762 H         1 RES1    0.0000
     35 H10        0.7580    4.5772   -2.6283 H         1 RES1    0.0000
     36 H11       -0.3629    2.7139   -3.5407 H         1 RES1    0.0000
     37 H12       -1.2346    1.1747   -2.0089 H         1 RES1    0.0000
     38 H13       -0.9192    1.4380    0.3599 H         1 RES1    0.0000
     39 H14        0.3152    5.8734    3.0050 H         1 RES1    0.0000
     40 H15       -1.2773    7.3113    3.6327 H         1 RES1    0.0000
     41 H16       -3.5057    6.6632    3.3481 H         1 RES1    0.0000
     42 H17       -4.0855    4.4152    2.3604 H         1 RES1    0.0000
     43 H18       -2.3516    3.0177    1.7327 H         1 RES1    0.0000
@<TRIPOS>BOND
     1    1    2 1
     2    2    3 1
     3    3    4 1
     4    4    5 1
     5    5    1 1
     6    6    3 1
     7    7    6 2
     8    8    6 1
     9    9    8 1
    10   10    5 1
    11   11   10 1
    12   13    2 1
    13   14   13 1
    14   15   14 ar
    15   16   15 ar
    16   17   16 ar
    17   18   17 ar
    18   19   14 ar
    19   20   13 1
    20   21   20 ar
    21   22   21 ar
    22   23   22 ar
    23   24   23 ar
    24   25   20 ar
    25   26    3 1
    26   27    4 1
    27   28    4 1
    28   29    5 1
    29   30    9 1
    30   31    9 1
    31   32    9 1
    32   33   13 1
    33   34   15 1
    34   35   16 1
    35   36   17 1
    36   37   18 1
    37   38   19 1
    38   39   21 1
    39   40   22 1
    40   41   23 1
    41   42   24 1
    42   43   25 1
    43   18   19 ar
    44   24   25 ar
@<TRIPOS>SUBSTRUCTURE
     1 RES1 1
     2 SUP2 12

@<TRIPOS>CRYSIN
  10.1030   20.2530    9.2730  90.0000 115.4900  90.0000 231 1

