# MOL2 file generated by ConQuest
# Please check atom types

@<TRIPOS>MOLECULE
JECWAP
    17    16     1
SMALL
NO_CHARGES
****
Generated from CSD

@<TRIPOS>ATOM
      1 C1         7.8818   -0.5709    2.0139 C.3       1 RES1    0.0000
      2 C2         7.1866    0.5549    2.7151 C.2       1 RES1    0.0000
      3 O1         6.0123    0.8587    2.4968 O.2       1 RES1    0.0000
      4 N1         7.9457    1.2102    3.6091 N.am      1 RES1    0.0000
      5 O2         7.4060    2.3266    4.2454 O.3       1 RES1    0.0000
      6 C3         6.4677    1.9851    5.2197 C.2       1 RES1    0.0000
      7 O3         6.2674    0.8430    5.5783 O.2       1 RES1    0.0000
      8 N2         5.8618    3.0940    5.6375 N.am      1 RES1    0.0000
      9 C4         4.7559    3.0592    6.5829 C.3       1 RES1    0.0000
     10 H1         8.8134   -0.6141    2.2474 H         1 RES1    0.0000
     11 H2         7.4403   -1.3647    2.2474 H         1 RES1    0.0000
     12 H3         7.7993   -0.4582    1.0241 H         1 RES1    0.0000
     13 H4         8.7596    1.0625    3.8263 H         1 RES1    0.0000
     14 H5         6.2107    3.8992    5.3626 H         1 RES1    0.0000
     15 H6         4.3798    2.1836    6.6086 H         1 RES1    0.0000
     16 H7         4.0836    3.7530    6.2729 H         1 RES1    0.0000
     17 H8         5.0709    3.2656    7.4592 H         1 RES1    0.0000
@<TRIPOS>BOND
     1    1    2 1
     2    2    3 2
     3    4    2 1
     4    5    4 1
     5    6    5 1
     6    7    6 2
     7    8    6 1
     8    9    8 1
     9   10    1 1
    10   11    1 1
    11   12    1 1
    12   13    4 1
    13   14    8 1
    14   15    9 1
    15   16    9 1
    16   17    9 1
@<TRIPOS>SUBSTRUCTURE
     1 RES1 1

@<TRIPOS>CRYSIN
   8.9750    9.7480   14.2243  90.0000  90.0000  90.0000  61 1

