# MOL2 file generated by ConQuest
# Please check atom types

@<TRIPOS>MOLECULE
JEDTIV
    64    63     1
SMALL
NO_CHARGES
****
Generated from CSD

@<TRIPOS>ATOM
      1 C1         8.7840    8.8216   -0.3271 C.3       1 RES1    0.0000
      2 C2         7.4916    8.4884    0.4633 C.3       1 RES1    0.0000
      3 C3         6.4504    7.7137   -0.3838 C.3       1 RES1    0.0000
      4 C4         5.2163    7.3845    0.4126 C.3       1 RES1    0.0000
      5 C5         4.0702    6.7892   -0.4742 C.3       1 RES1    0.0000
      6 C6         2.7946    6.5605    0.3082 C.3       1 RES1    0.0000
      7 C7         1.6796    5.8410   -0.4772 C.3       1 RES1    0.0000
      8 C8         9.6465    7.6467   -0.7317 C.3       1 RES1    0.0000
      9 C9         7.8723    8.1158    2.8116 C.2       1 RES1    0.0000
     10 C10        8.0860    6.9725    3.7869 C.3       1 RES1    0.0000
     11 C11        6.3921    8.1908   -2.7559 C.2       1 RES1    0.0000
     12 C12        5.9350    9.2769   -3.7561 C.3       1 RES1    0.0000
     13 C13        4.5429    8.6087    2.4149 C.2       1 RES1    0.0000
     14 C14        3.8837    9.8644    2.8563 C.3       1 RES1    0.0000
     15 C15        4.4742    5.3205   -2.3354 C.2       1 RES1    0.0000
     16 C16        5.1450    4.0747   -2.7152 C.3       1 RES1    0.0000
     17 C17        2.5512    6.0539    2.6466 C.2       1 RES1    0.0000
     18 C18        3.0536    5.0741    3.6547 C.3       1 RES1    0.0000
     19 C19        0.3600    6.3535   -2.3443 C.2       1 RES1    0.0000
     20 C20        0.0945    7.3648   -3.4340 C.3       1 RES1    0.0000
     21 N1         9.5493    9.7737    0.6005 N.pl3     1 RES1    0.0000
     22 O1        10.4416    9.2769    1.2666 O.2       1 RES1    0.0000
     23 O2         9.1945   10.9466    0.5856 O.2       1 RES1    0.0000
     24 O3         7.8089    7.5540    1.5281 O.3       1 RES1    0.0000
     25 O4         7.6975    9.2572    3.0432 O.2       1 RES1    0.0000
     26 O5         6.0800    8.6461   -1.4615 O.3       1 RES1    0.0000
     27 O6         6.9801    7.1755   -2.9577 O.2       1 RES1    0.0000
     28 O7         4.6491    8.5850    1.0141 O.3       1 RES1    0.0000
     29 O8         4.9599    7.7275    3.0741 O.2       1 RES1    0.0000
     30 O9         4.6206    5.5748   -0.9922 O.3       1 RES1    0.0000
     31 O10        3.8565    6.0736   -3.0423 O.2       1 RES1    0.0000
     32 O11        3.1261    5.6813    1.4277 O.3       1 RES1    0.0000
     33 O12        1.8078    6.9528    2.7708 O.2       1 RES1    0.0000
     34 O13        1.2846    6.8049   -1.4903 O.3       1 RES1    0.0000
     35 O14       -0.1645    5.3008   -2.2399 O.2       1 RES1    0.0000
     36 H1         8.5211    9.1074   -1.3422 H         1 RES1    0.0000
     37 H2         7.1096    9.4031    0.8053 H         1 RES1    0.0000
     38 H3         6.9283    6.7813   -0.6860 H         1 RES1    0.0000
     39 H4         5.5426    6.6433    1.0936 H         1 RES1    0.0000
     40 H5         3.7167    7.5107   -1.1831 H         1 RES1    0.0000
     41 H6         2.3958    7.5107    0.5170 H         1 RES1    0.0000
     42 H7         1.9943    4.8888   -0.8749 H         1 RES1    0.0000
     43 H8         0.9065    5.4605    0.1491 H         1 RES1    0.0000
     44 H9         9.0391    6.9193   -1.2925 H         1 RES1    0.0000
     45 H10        9.9456    7.1361    0.1491 H         1 RES1    0.0000
     46 H11       10.5025    7.7669   -1.3123 H         1 RES1    0.0000
     47 H12        9.0262    6.3673    3.5692 H         1 RES1    0.0000
     48 H13        7.3297    6.1899    3.7581 H         1 RES1    0.0000
     49 H14        8.1974    7.2347    4.8020 H         1 RES1    0.0000
     50 H15        6.3973   10.2113   -3.5592 H         1 RES1    0.0000
     51 H16        4.8822    9.4031   -3.6885 H         1 RES1    0.0000
     52 H17        6.1642    8.9891   -4.7523 H         1 RES1    0.0000
     53 H18        2.8749    9.9748    2.3960 H         1 RES1    0.0000
     54 H19        4.4030   10.7633    2.5153 H         1 RES1    0.0000
     55 H20        3.7167   10.0142    3.8774 H         1 RES1    0.0000
     56 H21        4.7138    3.1935   -2.1773 H         1 RES1    0.0000
     57 H22        6.1772    4.0412   -2.4855 H         1 RES1    0.0000
     58 H23        5.1153    3.6666   -3.7481 H         1 RES1    0.0000
     59 H24        4.1052    5.0268    3.7382 H         1 RES1    0.0000
     60 H25        2.7325    4.0412    3.4101 H         1 RES1    0.0000
     61 H26        2.6418    5.2634    4.6131 H         1 RES1    0.0000
     62 H27        0.9972    7.6289   -3.9669 H         1 RES1    0.0000
     63 H28       -0.2719    8.2992   -3.0224 H         1 RES1    0.0000
     64 H29       -0.6086    7.0770   -4.1657 H         1 RES1    0.0000
@<TRIPOS>BOND
     1    1    2 1
     2    2    3 1
     3    3    4 1
     4    4    5 1
     5    5    6 1
     6    6    7 1
     7    7   34 1
     8    8    1 1
     9    9   10 1
    10   10   47 1
    11   11   12 1
    12   12   50 1
    13   13   14 1
    14   14   53 1
    15   15   16 1
    16   16   56 1
    17   17   18 1
    18   18   59 1
    19   19   20 1
    20   20   62 1
    21   21    1 1
    22   22   21 2
    23   23   21 2
    24   24    2 1
    25   25    9 2
    26   26    3 1
    27   27   11 2
    28   28    4 1
    29   29   13 2
    30   30    5 1
    31   31   15 2
    32   32    6 1
    33   33   17 2
    34   34   19 1
    35   35   19 2
    36   36    1 1
    37   37    2 1
    38   38    3 1
    39   39    4 1
    40   40    5 1
    41   41    6 1
    42   42    7 1
    43   43    7 1
    44   44    8 1
    45   45    8 1
    46   46    8 1
    47   48   10 1
    48   49   10 1
    49   51   12 1
    50   52   12 1
    51   54   14 1
    52   55   14 1
    53   57   16 1
    54   58   16 1
    55   60   18 1
    56   61   18 1
    57   63   20 1
    58   64   20 1
    59    9   24 1
    60   11   26 1
    61   13   28 1
    62   15   30 1
    63   17   32 1
@<TRIPOS>SUBSTRUCTURE
     1 RES1 1

@<TRIPOS>CRYSIN
  12.9500   19.7130    9.9420  90.0000  90.0000  90.0000  19 1

