# MOL2 file generated by ConQuest
# Please check atom types

@<TRIPOS>MOLECULE
JEDWIB
    48    49     1
SMALL
NO_CHARGES
****
Generated from CSD

@<TRIPOS>ATOM
      1 O1         4.1718    6.3231    8.4257 O.2       1 RES1    0.0000
      2 O2         4.1834    4.1763    8.6700 O.2       1 RES1    0.0000
      3 O3         4.5205    1.5298    3.9590 O.2       1 RES1    0.0000
      4 O4         6.3287    2.2759    2.0133 O.3       1 RES1    0.0000
      5 N1         4.0559    5.1806    7.9922 N.pl3     1 RES1    0.0000
      6 C1         3.6977    5.0526    6.5423 C.3       1 RES1    0.0000
      7 H1         4.0163    5.8547    6.0563 H         1 RES1    0.0000
      8 H2         2.7130    5.0157    6.4529 H         1 RES1    0.0000
      9 C2         4.3032    3.8096    5.9039 C.3       1 RES1    0.0000
     10 H3         3.9623    3.0059    6.3930 H         1 RES1    0.0000
     11 C3         3.7828    3.7520    4.4405 C.3       1 RES1    0.0000
     12 H4         3.9239    4.6446    4.0116 H         1 RES1    0.0000
     13 C4         4.5737    2.7041    3.6665 C.2       1 RES1    0.0000
     14 C5         5.3713    3.2099    2.4654 C.3       1 RES1    0.0000
     15 H5         5.8286    4.0656    2.7068 H         1 RES1    0.0000
     16 C6         7.4558    2.2089    2.8889 C.3       1 RES1    0.0000
     17 H6         7.1615    1.9249    3.7915 H         1 RES1    0.0000
     18 H7         7.8715    3.1037    2.9674 H         1 RES1    0.0000
     19 C7         8.4590    1.2285    2.3527 C.ar      1 RES1    0.0000
     20 C8         8.0837    0.1906    1.5049 C.ar      1 RES1    0.0000
     21 H8         7.1774    0.1051    1.2320 H         1 RES1    0.0000
     22 C9         9.0364   -0.7244    1.0544 C.ar      1 RES1    0.0000
     23 H9         8.7760   -1.4303    0.4743 H         1 RES1    0.0000
     24 C10       10.3548   -0.6098    1.4457 C.ar      1 RES1    0.0000
     25 H10       11.0013   -1.2313    1.1332 H         1 RES1    0.0000
     26 C11       10.7285    0.4164    2.2954 C.ar      1 RES1    0.0000
     27 H11       11.6322    0.4913    2.5773 H         1 RES1    0.0000
     28 C12        9.7891    1.3364    2.7390 C.ar      1 RES1    0.0000
     29 H12       10.0571    2.0451    3.3106 H         1 RES1    0.0000
     30 C13        5.8225    3.8208    5.9972 C.ar      1 RES1    0.0000
     31 C14        6.4930    2.7991    6.6731 C.ar      1 RES1    0.0000
     32 H13        5.9965    2.1055    7.0924 H         1 RES1    0.0000
     33 C15        7.8830    2.7885    6.7380 C.ar      1 RES1    0.0000
     34 H14        8.3312    2.0848    7.1911 H         1 RES1    0.0000
     35 C16        8.6162    3.8068    6.1398 C.ar      1 RES1    0.0000
     36 H15        9.5656    3.7979    6.1793 H         1 RES1    0.0000
     37 C17        7.9579    4.8347    5.4845 C.ar      1 RES1    0.0000
     38 H16        8.4584    5.5350    5.0817 H         1 RES1    0.0000
     39 C18        6.5694    4.8475    5.4123 C.ar      1 RES1    0.0000
     40 H17        6.1254    5.5579    4.9635 H         1 RES1    0.0000
     41 C19        2.2889    3.3971    4.3681 C.3       1 RES1    0.0000
     42 H18        2.0117    3.3384    3.4304 H         1 RES1    0.0000
     43 H19        1.7656    4.0913    4.8211 H         1 RES1    0.0000
     44 H20        2.1359    2.5347    4.8081 H         1 RES1    0.0000
     45 C20        4.3886    3.4620    1.3210 C.3       1 RES1    0.0000
     46 H21        4.8799    3.7593    0.5278 H         1 RES1    0.0000
     47 H22        3.7488    4.1545    1.5865 H         1 RES1    0.0000
     48 H23        3.9074    2.6336    1.1154 H         1 RES1    0.0000
@<TRIPOS>BOND
     1    1    5 2
     2    2    5 2
     3    3   13 2
     4    4   14 1
     5    5    6 1
     6    6    7 1
     7    8    6 1
     8    9    6 1
     9   10    9 1
    10   11    9 1
    11   12   11 1
    12   13   11 1
    13   14   13 1
    14   15   14 1
    15   16    4 1
    16   17   16 1
    17   18   16 1
    18   19   16 1
    19   20   19 ar
    20   21   20 1
    21   22   20 ar
    22   23   22 1
    23   24   22 ar
    24   25   24 1
    25   26   24 ar
    26   27   26 1
    27   28   19 ar
    28   29   28 1
    29   30    9 1
    30   31   30 ar
    31   32   31 1
    32   33   31 ar
    33   34   33 1
    34   35   33 ar
    35   36   35 1
    36   37   35 ar
    37   38   37 1
    38   39   30 ar
    39   40   39 1
    40   41   11 1
    41   42   41 1
    42   43   41 1
    43   44   41 1
    44   45   14 1
    45   46   45 1
    46   47   45 1
    47   48   45 1
    48   26   28 ar
    49   37   39 ar
@<TRIPOS>SUBSTRUCTURE
     1 RES1 1

@<TRIPOS>CRYSIN
  10.1794    5.5892   16.8713  90.0000 106.3510  90.0000   4 1

