# MOL2 file generated by ConQuest
# Please check atom types

@<TRIPOS>MOLECULE
JEDXIC
    35    38     1
SMALL
NO_CHARGES
****
Generated from CSD

@<TRIPOS>ATOM
      1 N1         4.7487    6.1869   10.6486 N.3       1 RES1    0.0000
      2 N2         2.5419    6.2330   11.1214 N.2       1 RES1    0.0000
      3 C1         4.1197    4.9994   12.6486 C.2       1 RES1    0.0000
      4 O1         1.4624    5.5192   13.6928 O.2       1 RES1    0.0000
      5 C2         2.7903    6.9510    9.9631 C.ar      1 RES1    0.0000
      6 C3         3.7443    5.8114   11.5000 C.2       1 RES1    0.0000
      7 C4         3.7669    8.2691    7.7071 C.ar      1 RES1    0.0000
      8 C5         1.8991    7.6535    9.1408 C.ar      1 RES1    0.0000
      9 H1         0.9901    7.6736    9.3385 H         1 RES1    0.0000
     10 C6         4.1485    6.9331    9.6466 C.ar      1 RES1    0.0000
     11 N3         5.4180    4.5611   12.7204 N.pl3     1 RES1    0.0000
     12 C7         6.4018    4.7483   11.6601 C.3       1 RES1    0.0000
     13 H2         6.3318    4.0242   11.0184 H         1 RES1    0.0000
     14 H3         7.2956    4.7324   12.0373 H         1 RES1    0.0000
     15 C8         2.3907    8.3146    8.0321 C.ar      1 RES1    0.0000
     16 C9         4.6512    7.5733    8.5197 C.ar      1 RES1    0.0000
     17 H4         5.5576    7.5367    8.3160 H         1 RES1    0.0000
     18 N4         2.1188    4.5655   14.1078 N.pl3     1 RES1    0.0000
     19 C10        3.4802    4.4103   13.7269 C.2       1 RES1    0.0000
     20 C11        4.3957    3.6104   14.4316 C.2       1 RES1    0.0000
     21 H5         4.2206    3.0974   15.1885 H         1 RES1    0.0000
     22 C12        1.4285    9.1166    7.1782 C.3       1 RES1    0.0000
     23 H6         0.5437    9.0512    7.5470 H         1 RES1    0.0000
     24 H7         1.4284    8.7700    6.2843 H         1 RES1    0.0000
     25 H8         1.7031   10.0360    7.1649 H         1 RES1    0.0000
     26 O2         1.6413    3.7236   14.8647 O.2       1 RES1    0.0000
     27 C13        6.1714    6.0526   10.9699 C.3       1 RES1    0.0000
     28 H9         6.4487    6.7824   11.5460 H         1 RES1    0.0000
     29 H10        6.6970    6.0921   10.1560 H         1 RES1    0.0000
     30 C14        4.2993    9.0125    6.5026 C.3       1 RES1    0.0000
     31 H11        3.8186    8.7373    5.7190 H         1 RES1    0.0000
     32 H12        5.2324    8.8161    6.3922 H         1 RES1    0.0000
     33 H13        4.1842    9.9557    6.6336 H         1 RES1    0.0000
     34 C15        5.5794    3.7341   13.7948 C.2       1 RES1    0.0000
     35 H14        6.3747    3.3235   14.0471 H         1 RES1    0.0000
@<TRIPOS>BOND
     1    1    6 1
     2    2    5 1
     3    3    6 1
     4    4   18 2
     5    5    8 ar
     6    6    2 2
     7    7   15 ar
     8    8    9 1
     9   10    1 1
    10   11    3 1
    11   12   11 1
    12   13   12 1
    13   14   12 1
    14   15    8 ar
    15   16    7 ar
    16   17   16 1
    17   18   19 1
    18   19    3 2
    19   20   19 1
    20   21   20 1
    21   22   15 1
    22   23   22 1
    23   24   22 1
    24   25   22 1
    25   26   18 2
    26   27    1 1
    27   28   27 1
    28   29   27 1
    29   30    7 1
    30   31   30 1
    31   32   30 1
    32   33   30 1
    33   34   11 1
    34   35   34 1
    35    5   10 ar
    36   10   16 ar
    37   12   27 1
    38   20   34 2
@<TRIPOS>SUBSTRUCTURE
     1 RES1 1

@<TRIPOS>CRYSIN
   7.3570   14.8770   12.6250  90.0000 106.1060  90.0000 231 1

