# MOL2 file generated by ConQuest
# Please check atom types

@<TRIPOS>MOLECULE
JEGPAN
    70    61     2
SMALL
NO_CHARGES
****
Generated from CSD

@<TRIPOS>ATOM
      1 O1         7.6718    8.6174    1.6788 O.2       1 RES1    0.0000
      2 O2         7.4766    6.5151    1.6788 O.2       1 RES1    0.0000
      3 O3         3.4094    4.2818    1.6788 O.2       1 RES1    0.0000
      4 O4         1.5419    5.3597    1.6788 O.2       1 RES1    0.0000
      5 O5         3.5358   17.7368    1.6788 O.2       1 RES1    0.0000
      6 O6         4.0463   19.8208    1.6788 O.2       1 RES1    0.0000
      7 O7         8.5864   21.4151    1.6788 O.2       1 RES1    0.0000
      8 O8        10.1399   19.9331    1.6788 O.2       1 RES1    0.0000
      9 O9         8.4173   21.1657    1.0576 Du        2 SUP2    0.0000
     10 O10       10.0893   19.9610    1.3041 Du        2 SUP2    0.0000
     11 N1         6.9982    7.6183    1.6788 N.pl3     1 RES1    0.0000
     12 N2         2.7577    5.3118    1.6788 N.pl3     1 RES1    0.0000
     13 N3         5.6087   10.1178    1.6788 N.2       1 RES1    0.0000
     14 N4         4.9457   11.3254    1.6788 N.2       1 RES1    0.0000
     15 N5         5.9211   14.6648    1.6788 N.2       1 RES1    0.0000
     16 N6         5.3323   15.9065    1.6788 N.2       1 RES1    0.0000
     17 N7         4.3555   18.6602    1.6788 N.pl3     1 RES1    0.0000
     18 N8         8.9372   20.2255    1.6788 N.pl3     1 RES1    0.0000
     19 C1         4.8892    8.9885    1.6788 C.ar      1 RES1    0.0000
     20 C2         5.5386    7.7528    1.6788 C.ar      1 RES1    0.0000
     21 C3         4.8498    6.5570    1.6788 C.ar      1 RES1    0.0000
     22 H1         5.3090    5.7484    1.6788 H         1 RES1    0.0000
     23 C4         3.4882    6.5760    1.6788 C.ar      1 RES1    0.0000
     24 C5         2.7961    7.7631    1.6788 C.ar      1 RES1    0.0000
     25 H2         1.8661    7.7581    1.6788 H         1 RES1    0.0000
     26 C6         3.4701    8.9529    1.6788 C.ar      1 RES1    0.0000
     27 H3         2.9921    9.7501    1.6788 H         1 RES1    0.0000
     28 C7         5.7151   12.3408    1.6788 C.2       1 RES1    0.0000
     29 C8         7.2281   12.1962    1.6788 C.ar      1 RES1    0.0000
     30 C9         7.8718   12.0937    0.5016 C.ar      1 RES1    0.0000
     31 H4         7.4114   12.1989   -0.2995 H         1 RES1    0.0000
     32 C10        9.2488   11.8241    0.5030 C.ar      1 RES1    0.0000
     33 H5         9.7106   11.7183   -0.2982 H         1 RES1    0.0000
     34 C11        9.8919   11.7204    1.6788 C.ar      1 RES1    0.0000
     35 H6        10.8110   11.5719    1.6788 H         1 RES1    0.0000
     36 C12        5.1187   13.6651    1.6788 C.2       1 RES1    0.0000
     37 C13        3.6335   13.8024    1.6788 C.ar      1 RES1    0.0000
     38 C14        2.9238   13.9108    0.5090 C.ar      1 RES1    0.0000
     39 H7         3.3681   13.7814   -0.2975 H         1 RES1    0.0000
     40 C15        1.5817   14.2016    0.4835 C.ar      1 RES1    0.0000
     41 H8         1.0984   14.1968   -0.3102 H         1 RES1    0.0000
     42 C16        0.9917   14.4975    1.6788 C.ar      1 RES1    0.0000
     43 H9         0.1614   14.9149    1.6788 H         1 RES1    0.0000
     44 C17        3.1909   13.4471    0.1182 Du        2 SUP2    0.0000
     45 H10        3.8307   13.1326   -0.5251 Du        2 SUP2    0.0000
     46 C18        1.8228   13.6865   -0.2955 Du        2 SUP2    0.0000
     47 H11        1.4094   13.4036   -1.1147 Du        2 SUP2    0.0000
     48 C19        0.9665   14.3195    0.8293 Du        2 SUP2    0.0000
     49 H12        0.0906   14.6379    0.6017 Du        2 SUP2    0.0000
     50 C20        1.5433   14.7171    2.0924 Du        2 SUP2    0.0000
     51 H13        0.9350   15.0039    2.7767 Du        2 SUP2    0.0000
     52 C21        2.8346   14.4599    2.3496 Du        2 SUP2    0.0000
     53 H14        3.1870   14.8417    3.1554 Du        2 SUP2    0.0000
     54 C22        6.1874   16.9567    1.6788 C.ar      1 RES1    0.0000
     55 C23        5.7640   18.2871    1.6788 C.ar      1 RES1    0.0000
     56 C24        6.6518   19.3504    1.6788 C.ar      1 RES1    0.0000
     57 H15        6.3405   20.2261    1.6788 H         1 RES1    0.0000
     58 C25        7.9988   19.0879    1.6788 C.ar      1 RES1    0.0000
     59 C26        8.4545   17.8100    1.6788 C.ar      1 RES1    0.0000
     60 H16        9.3701   17.6526    1.6788 H         1 RES1    0.0000
     61 C27        7.5941   16.7569    1.6788 C.ar      1 RES1    0.0000
     62 H17        7.9331   15.8901    1.6788 H         1 RES1    0.0000
     63 C9G        7.8718   12.0937    2.8559 C.ar      1 RES1    0.0000
     64 H4G        7.4114   12.1989    3.6570 H         1 RES1    0.0000
     65 C10G       9.2488   11.8241    2.8546 C.ar      1 RES1    0.0000
     66 H5G        9.7106   11.7183    3.6557 H         1 RES1    0.0000
     67 C14G       2.9238   13.9108    2.8485 C.ar      1 RES1    0.0000
     68 H7G        3.3681   13.7814    3.6550 H         1 RES1    0.0000
     69 C15G       1.5817   14.2016    2.8741 C.ar      1 RES1    0.0000
     70 H8G        1.0984   14.1968    3.6678 H         1 RES1    0.0000
@<TRIPOS>BOND
     1    1   11 2
     2    2   11 2
     3    3   12 2
     4    4   12 2
     5    5   17 2
     6    6   17 2
     7    7   18 2
     8    8   18 2
     9   11   20 1
    10   12   23 1
    11   13   14 2
    12   14   28 1
    13   15   16 2
    14   16   54 1
    15   17   55 1
    16   18   58 1
    17   19   13 1
    18   20   19 ar
    19   21   20 ar
    20   22   21 1
    21   23   21 ar
    22   24   23 ar
    23   25   24 1
    24   26   19 ar
    25   27   26 1
    26   28   29 1
    27   29   30 ar
    28   30   31 1
    29   32   30 ar
    30   33   32 1
    31   34   32 ar
    32   35   34 1
    33   36   15 1
    34   37   36 1
    35   38   37 ar
    36   39   38 1
    37   40   38 ar
    38   41   40 1
    39   42   40 ar
    40   43   42 1
    41   54   55 ar
    42   55   56 ar
    43   56   57 1
    44   58   56 ar
    45   59   58 ar
    46   60   59 1
    47   61   54 ar
    48   62   61 1
    49   63   29 ar
    50   64   63 1
    51   65   34 ar
    52   66   65 1
    53   67   37 ar
    54   68   67 1
    55   69   42 ar
    56   70   69 1
    57   24   26 ar
    58   28   36 2
    59   59   61 ar
    60   63   65 ar
    61   67   69 ar
@<TRIPOS>SUBSTRUCTURE
     1 RES1 1
     2 SUP2 9

@<TRIPOS>CRYSIN
  19.6850   19.7810    6.7151  90.0000  90.0000  90.0000  62 4

