# MOL2 file generated by ConQuest
# Please check atom types

@<TRIPOS>MOLECULE
JEGTEX
    43    46     1
SMALL
NO_CHARGES
****
Generated from CSD

@<TRIPOS>ATOM
      1 O1         8.6949    5.4249   14.9226 O.2       1 RES1    0.0000
      2 N1         2.5658    6.5415   15.3637 N.pl3     1 RES1    0.0000
      3 H1         1.9707    6.4259   14.7539 H         1 RES1    0.0000
      4 N2         6.0010    5.6465   14.2489 N.3       1 RES1    0.0000
      5 H2         6.5691    5.9182   13.6634 H         1 RES1    0.0000
      6 O2         2.0165    4.7062   13.0499 O.2       1 RES1    0.0000
      7 O3         8.1474    4.0347   16.5580 O.3       1 RES1    0.0000
      8 N3         2.4350    5.0106   11.9454 N.pl3     1 RES1    0.0000
      9 C1         4.2408    6.5001   12.8094 C.ar      1 RES1    0.0000
     10 C2         3.5821    7.1060   17.2756 C.ar      1 RES1    0.0000
     11 C3         3.3106    6.1908   11.8271 C.ar      1 RES1    0.0000
     12 O4         2.1661    4.3941   10.9251 O.2       1 RES1    0.0000
     13 C4         4.5455    5.6388   14.0202 C.3       1 RES1    0.0000
     14 H3         4.2301    4.7226   13.8698 H         1 RES1    0.0000
     15 C5         4.5536    6.5376   16.3916 C.2       1 RES1    0.0000
     16 C6         7.8776    4.9056   15.6078 C.2       1 RES1    0.0000
     17 C7         3.9047    6.2149   15.2510 C.2       1 RES1    0.0000
     18 C8         2.3418    7.0791   16.5981 C.ar      1 RES1    0.0000
     19 C9         4.9461    7.6841   12.6290 C.ar      1 RES1    0.0000
     20 H4         5.5744    7.9375   13.2664 H         1 RES1    0.0000
     21 C10        1.1633    7.5425   17.1774 C.ar      1 RES1    0.0000
     22 H5         0.3513    7.5126   16.7224 H         1 RES1    0.0000
     23 C11        6.3827    5.1532   15.5537 C.3       1 RES1    0.0000
     24 H6         5.9060    4.3170   15.7381 H         1 RES1    0.0000
     25 C12        6.0036    6.1966   16.6041 C.3       1 RES1    0.0000
     26 H7         6.1372    5.8392   17.4961 H         1 RES1    0.0000
     27 H8         6.5539    6.9895   16.5039 H         1 RES1    0.0000
     28 C13        1.2601    8.0434   18.4463 C.ar      1 RES1    0.0000
     29 H9         0.4911    8.3613   18.8613 H         1 RES1    0.0000
     30 C14        3.6278    7.6340   18.5666 C.ar      1 RES1    0.0000
     31 H10        4.4308    7.6744   19.0357 H         1 RES1    0.0000
     32 C15        2.4592    8.0945   19.1359 C.ar      1 RES1    0.0000
     33 H11        2.4762    8.4452   19.9979 H         1 RES1    0.0000
     34 C16        4.7391    8.5030   11.5224 C.ar      1 RES1    0.0000
     35 H12        5.2105    9.3007   11.4382 H         1 RES1    0.0000
     36 C17        3.1170    6.9769   10.7146 C.ar      1 RES1    0.0000
     37 H13        2.4977    6.7265   10.0691 H         1 RES1    0.0000
     38 C18        3.8456    8.1369   10.5622 C.ar      1 RES1    0.0000
     39 H14        3.7273    8.6667    9.8085 H         1 RES1    0.0000
     40 C19        9.5409    3.7149   16.7925 C.3       1 RES1    0.0000
     41 H15        9.9442    3.4239   15.9706 H         1 RES1    0.0000
     42 H16        9.6037    3.0126   17.4440 H         1 RES1    0.0000
     43 H17        9.9989    4.4933   17.1153 H         1 RES1    0.0000
@<TRIPOS>BOND
     1    1   16 2
     2    2    3 1
     3    4    5 1
     4    6    8 2
     5    7   16 1
     6    8   11 1
     7    9   11 ar
     8   10   15 1
     9   11   36 ar
    10   12    8 2
    11   13    4 1
    12   14   13 1
    13   15   17 2
    14   16   23 1
    15   17    2 1
    16   18    2 1
    17   19    9 ar
    18   20   19 1
    19   21   18 ar
    20   22   21 1
    21   23    4 1
    22   24   23 1
    23   25   15 1
    24   26   25 1
    25   27   25 1
    26   28   21 ar
    27   29   28 1
    28   30   10 ar
    29   31   30 1
    30   32   28 ar
    31   33   32 1
    32   34   19 ar
    33   35   34 1
    34   36   37 1
    35   38   34 ar
    36   39   38 1
    37   40    7 1
    38   41   40 1
    39   42   40 1
    40   43   40 1
    41    9   13 1
    42   10   18 ar
    43   13   17 1
    44   23   25 1
    45   30   32 ar
    46   36   38 ar
@<TRIPOS>SUBSTRUCTURE
     1 RES1 1

@<TRIPOS>CRYSIN
   8.9620    9.6340   20.0460  90.0000  90.0000  90.0000  19 1

