# MOL2 file generated by ConQuest
# Please check atom types

@<TRIPOS>MOLECULE
JEGVAV
    41    45     1
SMALL
NO_CHARGES
****
Generated from CSD

@<TRIPOS>ATOM
      1 O1        11.4150    5.6531   -0.3575 O.2       1 RES1    0.0000
      2 O2        10.2382    5.2026    2.1201 O.3       1 RES1    0.0000
      3 N1        11.0909    4.3001    1.4776 N.am      1 RES1    0.0000
      4 N2         8.8560    1.4693    2.1521 N.pl3     1 RES1    0.0000
      5 N3         9.5643    0.6454    2.9501 N.2       1 RES1    0.0000
      6 N4         8.7057   -0.0682    3.6368 N.2       1 RES1    0.0000
      7 C1        11.4298    4.5538    0.1705 C.2       1 RES1    0.0000
      8 C2        11.7435    3.2101   -0.4390 C.3       1 RES1    0.0000
      9 H1        12.5297    3.2229   -1.0571 H         1 RES1    0.0000
     10 C3        11.9158    2.2526    0.7674 C.3       1 RES1    0.0000
     11 H2        12.8479    2.1633    1.1195 H         1 RES1    0.0000
     12 C4        10.8891    2.8827    1.7417 C.3       1 RES1    0.0000
     13 H3        11.0524    2.6354    2.6968 H         1 RES1    0.0000
     14 C5         9.5205    2.3580    1.1993 C.3       1 RES1    0.0000
     15 H4         8.9229    3.1292    0.9780 H         1 RES1    0.0000
     16 C6         9.9312    1.6208   -0.0959 C.3       1 RES1    0.0000
     17 H5         9.2397    0.9940   -0.4560 H         1 RES1    0.0000
     18 C7        10.4303    2.6721   -1.1024 C.3       1 RES1    0.0000
     19 H6         9.7669    3.3976   -1.2191 H         1 RES1    0.0000
     20 H7        10.6182    2.2616   -1.9831 H         1 RES1    0.0000
     21 C8        11.2509    0.9510    0.3141 C.3       1 RES1    0.0000
     22 H8        11.1377    0.3002    1.0515 H         1 RES1    0.0000
     23 H9        11.7183    0.5265   -0.4485 H         1 RES1    0.0000
     24 C9        11.0100    6.1877    2.8194 C.3       1 RES1    0.0000
     25 H10       11.5791    5.7462    3.4841 H         1 RES1    0.0000
     26 H11       10.4073    6.8149    3.2710 H         1 RES1    0.0000
     27 H12       11.5713    6.6763    2.1813 H         1 RES1    0.0000
     28 C10        7.5292    1.2793    2.3209 C.2       1 RES1    0.0000
     29 H13        6.8175    1.7274    1.8788 H         1 RES1    0.0000
     30 C11        7.4367    0.2903    3.2789 C.2       1 RES1    0.0000
     31 C12        6.2686   -0.3417    3.8952 C.ar      1 RES1    0.0000
     32 C13        6.4464   -1.2766    4.9157 C.ar      1 RES1    0.0000
     33 H14        7.3227   -1.4874    5.2149 H         1 RES1    0.0000
     34 C14        5.3492   -1.9015    5.4965 C.ar      1 RES1    0.0000
     35 H15        5.4816   -2.5451    6.1827 H         1 RES1    0.0000
     36 C15        4.0621   -1.5913    5.0815 C.ar      1 RES1    0.0000
     37 H16        3.3144   -2.0196    5.4820 H         1 RES1    0.0000
     38 C16        3.8731   -0.6508    4.0774 C.ar      1 RES1    0.0000
     39 H17        2.9935   -0.4295    3.7939 H         1 RES1    0.0000
     40 C17        4.9699   -0.0331    3.4861 C.ar      1 RES1    0.0000
     41 H18        4.8340    0.6055    2.7964 H         1 RES1    0.0000
@<TRIPOS>BOND
     1    1    7 2
     2    2    3 1
     3    3    7 1
     4    4    5 1
     5    5    6 2
     6    6   30 1
     7    7    8 1
     8    8    9 1
     9   10    8 1
    10   11   10 1
    11   12    3 1
    12   13   12 1
    13   14    4 1
    14   15   14 1
    15   16   14 1
    16   17   16 1
    17   18    8 1
    18   19   18 1
    19   20   18 1
    20   21   10 1
    21   22   21 1
    22   23   21 1
    23   24    2 1
    24   25   24 1
    25   26   24 1
    26   27   24 1
    27   28    4 1
    28   29   28 1
    29   30   28 2
    30   31   30 1
    31   32   31 ar
    32   33   32 1
    33   34   32 ar
    34   35   34 1
    35   36   34 ar
    36   37   36 1
    37   38   36 ar
    38   39   38 1
    39   40   31 ar
    40   41   40 1
    41   10   12 1
    42   12   14 1
    43   16   18 1
    44   16   21 1
    45   38   40 ar
@<TRIPOS>SUBSTRUCTURE
     1 RES1 1

@<TRIPOS>CRYSIN
   8.6299    9.2935   10.1165  75.0260  71.9570  86.6490   2 1

