# MOL2 file generated by ConQuest
# Please check atom types

@<TRIPOS>MOLECULE
JEGVID
    57    43     2
SMALL
NO_CHARGES
****
Generated from CSD

@<TRIPOS>ATOM
      1 O1         4.7688    2.4265    1.0015 O.3       1 RES1    0.0000
      2 O2         7.0180    1.0843    1.9488 O.2       1 RES1    0.0000
      3 N1         3.0082    4.6460    2.7042 N.3       1 RES1    0.0000
      4 N2         1.6898    4.6283    2.9617 N.2       1 RES1    0.0000
      5 N3         1.0894    5.2805    1.9792 N.2       1 RES1    0.0000
      6 C1         4.1067    1.3783    0.2737 C.3       1 RES1    0.0000
      7 H1         4.6459    0.5617    0.3151 H         1 RES1    0.0000
      8 H2         3.9953    1.6505   -0.6616 H         1 RES1    0.0000
      9 H3         3.2273    1.2101    0.6719 H         1 RES1    0.0000
     10 C2         3.2668    5.2868    1.5511 C.2       1 RES1    0.0000
     11 H4         4.1137    5.4265    1.1434 H         1 RES1    0.0000
     12 C3         2.0344    5.6959    1.0899 C.2       1 RES1    0.0000
     13 C4         1.7065    6.4476   -0.1251 C.ar      1 RES1    0.0000
     14 C5         2.5775    6.4220   -1.2163 C.ar      1 RES1    0.0000
     15 H5         3.3827    5.9223   -1.1639 H         1 RES1    0.0000
     16 C6         2.2756    7.1224   -2.3782 C.ar      1 RES1    0.0000
     17 H6         2.8746    7.0978   -3.1159 H         1 RES1    0.0000
     18 C7         1.1022    7.8582   -2.4638 C.ar      1 RES1    0.0000
     19 H7         0.8916    8.3287   -3.2607 H         1 RES1    0.0000
     20 C8         0.2356    7.9012   -1.3781 C.ar      1 RES1    0.0000
     21 H8        -0.5635    8.4119   -1.4315 H         1 RES1    0.0000
     22 C9         0.5317    7.2011   -0.2160 C.ar      1 RES1    0.0000
     23 H9        -0.0672    7.2330    0.5213 H         1 RES1    0.0000
     24 N4         4.9585    2.0187    2.3152 N.am      1 RES1    0.0000
     25 C10        6.1283    1.4653    2.6933 C.2       1 RES1    0.0000
     26 C11        6.1166    1.3939    4.2045 C.3       1 RES1    0.0000
     27 H10        6.8360    1.9591    4.5847 H         1 RES1    0.0000
     28 H11        6.2504    0.4612    4.5094 H         1 RES1    0.0000
     29 C12        4.7236    1.9171    4.6466 C.3       1 RES1    0.0000
     30 H12        4.1766    1.1685    5.0248 H         1 RES1    0.0000
     31 C13        4.0603    2.4674    3.3493 C.3       1 RES1    0.0000
     32 H13        3.1468    2.0804    3.2227 H         1 RES1    0.0000
     33 C14        3.9888    3.9847    3.5632 C.3       1 RES1    0.0000
     34 H14        4.8904    4.3759    3.3747 H         1 RES1    0.0000
     35 C15        3.7170    4.0954    5.0614 C.3       1 RES1    0.0000
     36 H15        2.7924    3.8211    5.2843 H         1 RES1    0.0000
     37 H16        3.8734    5.0139    5.3925 H         1 RES1    0.0000
     38 C16        4.7478    3.1117    5.6265 C.3       1 RES1    0.0000
     39 H17        4.4965    2.8225    6.5396 H         1 RES1    0.0000
     40 H18        5.6477    3.5229    5.6565 H         1 RES1    0.0000
     41 N5         5.2938    2.3370    2.3322 Du        2 SUP2    0.0000
     42 C17        6.1988    1.4355    2.8074 Du        2 SUP2    0.0000
     43 C18        5.8368    1.3731    4.2915 Du        2 SUP2    0.0000
     44 H19        6.5992    1.0541    4.8362 Du        2 SUP2    0.0000
     45 H20        5.0553    0.7836    4.4494 Du        2 SUP2    0.0000
     46 C19        5.4918    2.8745    4.6132 Du        2 SUP2    0.0000
     47 H21        6.2824    3.4154    4.9027 Du        2 SUP2    0.0000
     48 C20        4.8617    3.3599    3.2680 Du        2 SUP2    0.0000
     49 H22        5.2224    4.2580    3.0114 Du        2 SUP2    0.0000
     50 C21        3.3651    3.4397    3.5166 Du        2 SUP2    0.0000
     51 H23        2.8698    2.6110    3.2446 Du        2 SUP2    0.0000
     52 C22        3.2531    3.7656    5.0153 Du        2 SUP2    0.0000
     53 H24        3.4359    4.7261    5.1856 Du        2 SUP2    0.0000
     54 H25        2.3571    3.5368    5.3655 Du        2 SUP2    0.0000
     55 C23        4.3287    2.8814    5.6221 Du        2 SUP2    0.0000
     56 H26        3.9826    1.9660    5.7639 Du        2 SUP2    0.0000
     57 H27        4.6245    3.2490    6.4936 Du        2 SUP2    0.0000
@<TRIPOS>BOND
     1    1    6 1
     2    2   25 2
     3    3    4 1
     4    4    5 2
     5    5   12 1
     6    6    7 1
     7    8    6 1
     8    9    6 1
     9   10    3 1
    10   11   10 1
    11   12   10 2
    12   13   12 1
    13   14   13 ar
    14   15   14 1
    15   16   14 ar
    16   17   16 1
    17   18   16 ar
    18   19   18 1
    19   20   18 ar
    20   21   20 1
    21   22   13 ar
    22   23   22 1
    23   24    1 1
    24   25   24 1
    25   26   25 1
    26   27   26 1
    27   28   26 1
    28   29   26 1
    29   30   29 1
    30   31   24 1
    31   32   31 1
    32   33    3 1
    33   34   33 1
    34   35   33 1
    35   36   35 1
    36   37   35 1
    37   38   29 1
    38   39   38 1
    39   40   38 1
    40   20   22 ar
    41   29   31 1
    42   31   33 1
    43   35   38 1
@<TRIPOS>SUBSTRUCTURE
     1 RES1 1
     2 SUP2 41

@<TRIPOS>CRYSIN
   5.7744   34.6741    7.5977  90.0000 105.7920  90.0000 231 1

