# MOL2 file generated by ConQuest
# Please check atom types

@<TRIPOS>MOLECULE
JEGZON
   136   138     2
SMALL
NO_CHARGES
****
Generated from CSD

@<TRIPOS>ATOM
      1 O1         5.8001   14.1673   15.5791 O.2       1 RES1    0.0000
      2 O2         4.0563   15.1561   14.7522 O.2       1 RES1    0.0000
      3 O3        -0.0396   11.2662   18.7539 O.2       1 RES1    0.0000
      4 O4         1.8558   10.3790   19.6221 O.3       1 RES1    0.0000
      5 O5         2.9345    8.2143   25.5825 O.3       1 RES1    0.0000
      6 O6         5.9822    7.7222   22.1447 O.2       1 RES1    0.0000
      7 O7         4.0549    6.6070   21.7916 O.3       1 RES1    0.0000
      8 N1         4.5817   14.3280   15.4930 N.pl3     1 RES1    0.0000
      9 C1         3.7129   13.4888   16.3371 C.ar      1 RES1    0.0000
     10 C2         2.3492   13.5402   16.1193 C.ar      1 RES1    0.0000
     11 H1         1.9802   14.0912   15.4368 H         1 RES1    0.0000
     12 C3         1.5409   12.7623   16.9282 C.ar      1 RES1    0.0000
     13 H2         0.5998   12.7650   16.7939 H         1 RES1    0.0000
     14 C4         2.0928   11.9749   17.9361 C.ar      1 RES1    0.0000
     15 C5         3.4696   11.9469   18.1276 C.ar      1 RES1    0.0000
     16 H3         3.8443   11.4020   18.8097 H         1 RES1    0.0000
     17 C6         4.2981   12.7156   17.3195 C.ar      1 RES1    0.0000
     18 H4         5.2406   12.7097   17.4394 H         1 RES1    0.0000
     19 C7         1.1774   11.1790   18.8048 C.2       1 RES1    0.0000
     20 C8         1.1343    9.5241   20.5624 C.3       1 RES1    0.0000
     21 H5         0.1494    9.6115   20.4126 H         1 RES1    0.0000
     22 C9         1.4853    9.9956   21.9783 C.3       1 RES1    0.0000
     23 H6         1.0509    9.3617   22.6173 H         1 RES1    0.0000
     24 C10        2.9977    9.9642   22.2580 C.3       1 RES1    0.0000
     25 H7         3.4064    9.2393   21.7213 H         1 RES1    0.0000
     26 H8         3.3953   10.8203   21.9585 H         1 RES1    0.0000
     27 C11        3.3480    9.7449   23.7376 C.3       1 RES1    0.0000
     28 H9         2.6787   10.2620   24.2685 H         1 RES1    0.0000
     29 C12        3.2069    8.2689   24.1666 C.3       1 RES1    0.0000
     30 H10        2.4465    7.8528   23.6669 H         1 RES1    0.0000
     31 C13        4.4663    7.3988   23.9901 C.3       1 RES1    0.0000
     32 H11        5.2045    7.8344   24.5057 H         1 RES1    0.0000
     33 C14        4.9223    7.2892   22.5558 C.2       1 RES1    0.0000
     34 C15        4.4385    6.3260   20.3990 C.3       1 RES1    0.0000
     35 H12        5.0050    7.0783   20.0613 H         1 RES1    0.0000
     36 C16        3.1235    6.3087   19.6164 C.3       1 RES1    0.0000
     37 H13        2.4730    5.7119   20.0832 H         1 RES1    0.0000
     38 C17        2.5835    7.7061   19.6085 C.2       1 RES1    0.0000
     39 H14        3.0026    8.3424   19.0424 H         1 RES1    0.0000
     40 C18        1.5527    8.1117   20.3467 C.2       1 RES1    0.0000
     41 H15        1.0377    7.4387   20.7771 H         1 RES1    0.0000
     42 C19        0.9105   11.3864   22.2554 C.3       1 RES1    0.0000
     43 H16        1.3178   12.0357   21.6467 H         1 RES1    0.0000
     44 H17        1.1051   11.6418   23.1794 H         1 RES1    0.0000
     45 H18       -0.0598   11.3718   22.1166 H         1 RES1    0.0000
     46 C20        4.7221   10.3168   24.0880 C.3       1 RES1    0.0000
     47 H19        5.3970    9.9351   23.4912 H         1 RES1    0.0000
     48 H20        4.9424   10.0910   25.0151 H         1 RES1    0.0000
     49 H21        4.7068   11.2914   23.9831 H         1 RES1    0.0000
     50 C21        1.5687    8.2870   25.8856 C.3       1 RES1    0.0000
     51 H22        1.2003    9.1253   25.5377 H         1 RES1    0.0000
     52 H23        1.4478    8.2552   26.8596 H         1 RES1    0.0000
     53 H24        1.1023    7.5293   25.4763 H         1 RES1    0.0000
     54 C22        4.2669    6.0006   24.5746 C.3       1 RES1    0.0000
     55 H25        3.5308    5.5526   24.1060 H         1 RES1    0.0000
     56 H26        4.0521    6.0724   25.5290 H         1 RES1    0.0000
     57 H27        5.0898    5.4805   24.4618 H         1 RES1    0.0000
     58 C23        5.2531    5.0478   20.3744 C.3       1 RES1    0.0000
     59 H28        5.4915    4.8418   19.4377 H         1 RES1    0.0000
     60 H29        6.0962    5.2006   20.8694 H         1 RES1    0.0000
     61 C24        4.5532    3.8474   20.9690 C.3       1 RES1    0.0000
     62 H30        4.2933    4.0454   21.8926 H         1 RES1    0.0000
     63 H31        5.1586    3.0764   20.9572 H         1 RES1    0.0000
     64 H32        3.7532    3.6414   20.4434 H         1 RES1    0.0000
     65 C25        3.3383    5.7892   18.1860 C.3       1 RES1    0.0000
     66 H33        2.5112    5.8963   17.6722 H         1 RES1    0.0000
     67 H34        3.5829    4.8401   18.2168 H         1 RES1    0.0000
     68 H35        4.0576    6.2987   17.7600 H         1 RES1    0.0000
     69 O8        -2.3367    9.2085   17.0231 O.2       2 RES2    0.0000
     70 O9        -0.6519    8.1591   17.9142 O.2       2 RES2    0.0000
     71 O10        3.5913   10.9059   13.2124 O.2       2 RES2    0.0000
     72 O11        1.7737   11.4448   12.0122 O.3       2 RES2    0.0000
     73 O12        1.6368   15.0543    6.8664 O.3       2 RES2    0.0000
     74 O13       -1.8815   12.3736    8.2028 O.2       2 RES2    0.0000
     75 O14       -0.1105   11.2295    7.3833 O.3       2 RES2    0.0000
     76 N2        -1.1364    8.9011   17.0626 N.pl3     2 RES2    0.0000
     77 C26       -0.2481    9.4653   16.0376 C.ar      2 RES2    0.0000
     78 C27       -0.7903   10.1869   14.9959 C.ar      2 RES2    0.0000
     79 H36       -1.7279   10.3324   14.9450 H         2 RES2    0.0000
     80 C28        0.0570   10.6957   14.0245 C.ar      2 RES2    0.0000
     81 H37       -0.2982   11.1807   13.2893 H         2 RES2    0.0000
     82 C29        1.4269   10.4935   14.1290 C.ar      2 RES2    0.0000
     83 C30        1.9579    9.7905   15.2142 C.ar      2 RES2    0.0000
     84 H38        2.8983    9.6836   15.2919 H         2 RES2    0.0000
     85 C31        1.1176    9.2473   16.1773 C.ar      2 RES2    0.0000
     86 H39        1.4638    8.7447   16.9037 H         2 RES2    0.0000
     87 C32        2.3875   10.9727   13.0899 C.2       2 RES2    0.0000
     88 C33        2.5675   11.7450   10.8277 C.3       2 RES2    0.0000
     89 H40        3.5329   11.5881   11.0363 H         2 RES2    0.0000
     90 C34        2.3666   13.2230   10.4645 C.3       2 RES2    0.0000
     91 H41        2.8608   13.3803    9.6090 H         2 RES2    0.0000
     92 C35        0.8973   13.5721   10.1971 C.3       2 RES2    0.0000
     93 H42        0.4865   13.9051   11.0320 H         2 RES2    0.0000
     94 H43        0.4135   12.7516    9.9296 H         2 RES2    0.0000
     95 C36        0.7347   14.6359    9.0983 C.3       2 RES2    0.0000
     96 H44        1.4415   15.3234    9.2665 H         2 RES2    0.0000
     97 C37        1.0210   14.0615    7.6960 C.3       2 RES2    0.0000
     98 H45        1.6674   13.3065    7.7997 H         2 RES2    0.0000
     99 C38       -0.1960   13.5362    6.9068 C.3       2 RES2    0.0000
    100 H46       -0.8764   14.2689    6.8730 H         2 RES2    0.0000
    101 C39       -0.8347   12.3430    7.5823 C.2       2 RES2    0.0000
    102 C40       -0.6200    9.9486    7.8770 C.3       2 RES2    0.0000
    103 H47       -1.3407   10.1061    8.5506 H         2 RES2    0.0000
    104 C41        0.5831    9.2564    8.5476 C.3       2 RES2    0.0000
    105 H48        1.3254    9.1907    7.8787 H         2 RES2    0.0000
    106 C42        1.0523   10.0771    9.6986 C.2       2 RES2    0.0000
    107 H49        0.5234   10.0625   10.4874 H         2 RES2    0.0000
    108 C43        2.1511   10.8293    9.7149 C.2       2 RES2    0.0000
    109 H50        2.7204   10.7817    8.9547 H         2 RES2    0.0000
    110 C44        2.9942   14.1327   11.5076 C.3       2 RES2    0.0000
    111 H51        2.5376   14.0090   12.3670 H         2 RES2    0.0000
    112 H52        2.9060   15.0669   11.2208 H         2 RES2    0.0000
    113 H53        3.9430   13.9101   11.6073 H         2 RES2    0.0000
    114 C45       -0.6116   15.3744    9.1883 C.3       2 RES2    0.0000
    115 H54       -1.3435   14.7232    9.1567 H         2 RES2    0.0000
    116 H55       -0.6943   15.9957    8.4365 H         2 RES2    0.0000
    117 H56       -0.6547   15.8733   10.0306 H         2 RES2    0.0000
    118 C46        3.0186   15.2146    7.1435 C.3       2 RES2    0.0000
    119 H57        3.1291   15.6185    8.0280 H         2 RES2    0.0000
    120 H58        3.4224   15.7962    6.4646 H         2 RES2    0.0000
    121 H59        3.4585   14.3393    7.1277 H         2 RES2    0.0000
    122 C47        0.1863   13.1927    5.4650 C.3       2 RES2    0.0000
    123 H60        0.9453   12.5722    5.4677 H         2 RES2    0.0000
    124 H61        0.4358   14.0124    4.9890 H         2 RES2    0.0000
    125 H62       -0.5769   12.7734    5.0153 H         2 RES2    0.0000
    126 C48       -1.1830    9.1969    6.6877 C.3       2 RES2    0.0000
    127 H63       -0.4608    9.0683    6.0254 H         2 RES2    0.0000
    128 H64       -1.4763    8.3005    6.9872 H         2 RES2    0.0000
    129 C49       -2.3478    9.8831    6.0092 C.3       2 RES2    0.0000
    130 H65       -3.0735   10.0105    6.6534 H         2 RES2    0.0000
    131 H66       -2.6655    9.3298    5.2656 H         2 RES2    0.0000
    132 H67       -2.0587   10.7549    5.6653 H         2 RES2    0.0000
    133 C50        0.2238    7.8434    9.0184 C.3       2 RES2    0.0000
    134 H68        0.9877    7.4521    9.4905 H         2 RES2    0.0000
    135 H69        0.0000    7.2878    8.2432 H         2 RES2    0.0000
    136 H70       -0.5470    7.8864    9.6222 H         2 RES2    0.0000
@<TRIPOS>BOND
     1    1    8 2
     2    2    8 2
     3    3   19 2
     4    4   19 1
     5    5   29 1
     6    6   33 2
     7    7   33 1
     8    8    9 1
     9    9   10 ar
    10   10   11 1
    11   12   10 ar
    12   13   12 1
    13   14   12 ar
    14   15   14 ar
    15   16   15 1
    16   17    9 ar
    17   18   17 1
    18   19   14 1
    19   20    4 1
    20   21   20 1
    21   22   20 1
    22   23   22 1
    23   24   22 1
    24   25   24 1
    25   26   24 1
    26   27   24 1
    27   28   27 1
    28   29   27 1
    29   30   29 1
    30   31   29 1
    31   32   31 1
    32   33   31 1
    33   34    7 1
    34   35   34 1
    35   36   34 1
    36   37   36 1
    37   38   36 1
    38   39   38 1
    39   40   20 1
    40   41   40 1
    41   42   22 1
    42   43   42 1
    43   44   42 1
    44   45   42 1
    45   46   27 1
    46   47   46 1
    47   48   46 1
    48   49   46 1
    49   50    5 1
    50   51   50 1
    51   52   50 1
    52   53   50 1
    53   54   31 1
    54   55   54 1
    55   56   54 1
    56   57   54 1
    57   58   34 1
    58   59   58 1
    59   60   58 1
    60   61   58 1
    61   62   61 1
    62   63   61 1
    63   64   61 1
    64   65   36 1
    65   66   65 1
    66   67   65 1
    67   68   65 1
    68   69   76 2
    69   70   76 2
    70   71   87 2
    71   72   87 1
    72   73   97 1
    73   74  101 2
    74   75  101 1
    75   76   77 1
    76   77   78 ar
    77   78   79 1
    78   80   78 ar
    79   81   80 1
    80   82   80 ar
    81   83   82 ar
    82   84   83 1
    83   85   77 ar
    84   86   85 1
    85   87   82 1
    86   88   72 1
    87   89   88 1
    88   90   88 1
    89   91   90 1
    90   92   90 1
    91   93   92 1
    92   94   92 1
    93   95   92 1
    94   96   95 1
    95   97   95 1
    96   98   97 1
    97   99   97 1
    98  100   99 1
    99  101   99 1
   100  102   75 1
   101  103  102 1
   102  104  102 1
   103  105  104 1
   104  106  104 1
   105  107  106 1
   106  108   88 1
   107  109  108 1
   108  110   90 1
   109  111  110 1
   110  112  110 1
   111  113  110 1
   112  114   95 1
   113  115  114 1
   114  116  114 1
   115  117  114 1
   116  118   73 1
   117  119  118 1
   118  120  118 1
   119  121  118 1
   120  122   99 1
   121  123  122 1
   122  124  122 1
   123  125  122 1
   124  126  102 1
   125  127  126 1
   126  128  126 1
   127  129  126 1
   128  130  129 1
   129  131  129 1
   130  132  129 1
   131  133  104 1
   132  134  133 1
   133  135  133 1
   134  136  133 1
   135   15   17 ar
   136   38   40 2
   137   83   85 ar
   138  106  108 2
@<TRIPOS>SUBSTRUCTURE
     1 RES1 1
     2 RES2 69

@<TRIPOS>CRYSIN
   6.9504   16.7652   43.9170  90.0000  90.0000  90.0000  19 1

