# MOL2 file generated by ConQuest
# Please check atom types

@<TRIPOS>MOLECULE
JEHDEF
    36    37     1
SMALL
NO_CHARGES
****
Generated from CSD

@<TRIPOS>ATOM
      1 C1         2.4271    1.8005    3.7123 C.2       1 RES1    0.0000
      2 N1         2.8667    1.9179    2.4758 N.am      1 RES1    0.0000
      3 C2         2.9823    3.2360    1.9873 C.2       1 RES1    0.0000
      4 C3         2.8993    4.0942    3.1956 C.3       1 RES1    0.0000
      5 H1         3.8789    4.4005    3.5297 H         1 RES1    0.0000
      6 C4         2.1575    3.1953    4.2494 C.3       1 RES1    0.0000
      7 C5         0.6366    3.4763    4.2825 C.3       1 RES1    0.0000
      8 H2         0.4973    4.5450    4.3582 H         1 RES1    0.0000
      9 C6        -0.0062    2.9216    5.5151 C.2       1 RES1    0.0000
     10 H3        -1.0860    2.9216    5.5238 H         1 RES1    0.0000
     11 C7         0.5808    2.4283    6.5971 C.2       1 RES1    0.0000
     12 H4        -0.0105    2.0399    7.4130 H         1 RES1    0.0000
     13 C8         2.0608    2.4193    6.6719 C.2       1 RES1    0.0000
     14 C9         2.8154    3.3272    5.6471 C.3       1 RES1    0.0000
     15 H5         2.7507    4.3652    5.9356 H         1 RES1    0.0000
     16 C10        3.1870    3.5991    0.7294 C.2       1 RES1    0.0000
     17 H6         2.4065    3.9352    0.0631 H         1 RES1    0.0000
     18 H7         4.1497    3.8792    0.3283 H         1 RES1    0.0000
     19 C11       -0.0268    3.1194    3.0198 C.2       1 RES1    0.0000
     20 H8         0.1892    3.7672    2.1825 H         1 RES1    0.0000
     21 C12       -0.8209    2.1528    2.7740 C.2       1 RES1    0.0000
     22 H9        -1.1039    1.5340    3.6132 H         1 RES1    0.0000
     23 C13       -1.4048    1.7851    1.4414 C.3       1 RES1    0.0000
     24 H10       -1.9783    0.8908    1.6347 H         1 RES1    0.0000
     25 H11       -0.7183    1.6035    0.6275 H         1 RES1    0.0000
     26 H12       -2.0732    2.5910    1.1753 H         1 RES1    0.0000
     27 O1         2.2474    0.7552    4.3505 O.2       1 RES1    0.0000
     28 O2         3.2103    0.8103    1.7182 O.3       1 RES1    0.0000
     29 C14        2.0271    0.2213    1.1112 C.3       1 RES1    0.0000
     30 H13        2.3298   -0.7110    0.6566 H         1 RES1    0.0000
     31 H14        1.7669    0.9305    0.3390 H         1 RES1    0.0000
     32 H15        1.1707    0.0506    1.7454 H         1 RES1    0.0000
     33 O3         2.2577    5.3364    2.9780 O.3       1 RES1    0.0000
     34 O4         2.6714    1.8393    7.4936 O.2       1 RES1    0.0000
     35 O5         4.1495    2.9641    5.6316 O.3       1 RES1    0.0000
     36 H16        4.6917    3.6226    5.7695 H         1 RES1    0.0000
@<TRIPOS>BOND
     1    1    2 1
     2    2    3 1
     3    3    4 1
     4    4    5 1
     5    6    1 1
     6    7    6 1
     7    8    7 1
     8    9    7 1
     9   10    9 1
    10   11    9 2
    11   12   11 1
    12   13   11 1
    13   14    6 1
    14   15   14 1
    15   16    3 2
    16   17   16 1
    17   18   16 1
    18   19    7 1
    19   20   19 1
    20   21   19 2
    21   22   21 1
    22   23   21 1
    23   24   23 1
    24   25   23 1
    25   26   23 1
    26   27    1 2
    27   28    2 1
    28   29   28 1
    29   30   29 1
    30   31   29 1
    31   32   29 1
    32   33    4 1
    33   34   13 2
    34   35   14 1
    35   36   35 1
    36    4    6 1
    37   13   14 1
@<TRIPOS>SUBSTRUCTURE
     1 RES1 1

@<TRIPOS>CRYSIN
   8.0680    9.0340    9.7170  90.0000  91.6400  90.0000   4 1

