# MOL2 file generated by ConQuest
# Please check atom types

@<TRIPOS>MOLECULE
JEHLEN
    70    72     2
SMALL
NO_CHARGES
****
Generated from CSD

@<TRIPOS>ATOM
      1 C1         4.4006   10.1611    7.0359 C.3       1 RES1    0.0000
      2 N1         5.6180   10.8431    6.6131 N.pl3     1 RES1    0.0000
      3 C2         6.5457   11.2239    7.6724 C.3       1 RES1    0.0000
      4 C3         7.0795    9.9943    8.3939 C.3       1 RES1    0.0000
      5 N2         5.9968    9.0316    8.5179 N.pl3     1 RES1    0.0000
      6 C4         4.6243    9.3909    8.3594 C.3       1 RES1    0.0000
      7 N3         4.1565   10.3482    9.3543 N.pl3     1 RES1    0.0000
      8 C5         3.3193   11.4110    8.8190 C.3       1 RES1    0.0000
      9 N4         3.3627   11.0668    7.4380 N.3       1 RES1    0.0000
     10 N5         6.1634   10.4902    5.3883 N.pl3     1 RES1    0.0000
     11 O1         7.2688   10.9366    5.1379 O.2       1 RES1    0.0000
     12 O2         5.4536    9.8244    4.6324 O.2       1 RES1    0.0000
     13 N6         6.3084    7.7644    8.9338 N.pl3     1 RES1    0.0000
     14 O3         7.4876    7.5697    9.2050 O.2       1 RES1    0.0000
     15 O4         5.4165    6.9286    9.0005 O.2       1 RES1    0.0000
     16 N7         3.8519    9.8964   10.6342 N.pl3     1 RES1    0.0000
     17 O5         3.2081   10.6462   11.3350 O.2       1 RES1    0.0000
     18 O6         4.3482    8.8164   10.9306 O.2       1 RES1    0.0000
     19 O7         3.9611   12.6416    9.0671 O.3       1 RES1    0.0000
     20 C6         3.2334   13.6119    9.7657 C.2       1 RES1    0.0000
     21 C7         4.1465   14.7833   10.0115 C.3       1 RES1    0.0000
     22 O8         2.1191   13.4731   10.0667 O.2       1 RES1    0.0000
     23 N8         2.6502   11.7854    6.5166 N.pl3     1 RES1    0.0000
     24 O9         1.8246   12.5620    6.9623 O.2       1 RES1    0.0000
     25 O10        2.8919   11.5476    5.3424 O.2       1 RES1    0.0000
     26 C8         4.4497    6.1315    2.8975 C.3       2 RES2    0.0000
     27 N9         3.8145    4.8514    2.7551 N.pl3     2 RES2    0.0000
     28 C9         4.4173    3.5928    3.1204 C.3       2 RES2    0.0000
     29 C10        5.5425    3.8489    4.0028 C.3       2 RES2    0.0000
     30 N10        5.2825    4.9601    4.9219 N.pl3     2 RES2    0.0000
     31 C11        5.1103    6.2380    4.2923 C.3       2 RES2    0.0000
     32 N11        6.3884    6.8371    3.9706 N.pl3     2 RES2    0.0000
     33 C12        6.7956    6.8049    2.5942 C.3       2 RES2    0.0000
     34 N12        5.5667    6.3606    1.9991 N.3       2 RES2    0.0000
     35 N13        2.5497    4.8331    2.2656 N.pl3     2 RES2    0.0000
     36 O11        2.0443    3.7338    2.1438 O.2       2 RES2    0.0000
     37 O12        1.9639    5.8809    2.0359 O.2       2 RES2    0.0000
     38 N14        4.5342    4.6879    6.0616 N.pl3     2 RES2    0.0000
     39 O13        4.3620    3.4595    6.2983 O.2       2 RES2    0.0000
     40 O14        4.1610    5.5861    6.7027 O.2       2 RES2    0.0000
     41 N15        7.1838    7.3513    4.9265 N.pl3     2 RES2    0.0000
     42 O15        8.2717    7.8053    4.5657 O.2       2 RES2    0.0000
     43 O16        6.7889    7.3094    6.0777 O.2       2 RES2    0.0000
     44 O17        7.7939    5.8281    2.3897 O.3       2 RES2    0.0000
     45 C13        9.0034    6.1939    1.8635 C.2       2 RES2    0.0000
     46 C14        9.8169    5.0289    1.5533 C.3       2 RES2    0.0000
     47 O18        9.3033    7.3287    1.7142 O.2       2 RES2    0.0000
     48 N16        5.3374    6.7651    0.6939 N.pl3     2 RES2    0.0000
     49 O19        6.2673    7.3148    0.1241 O.2       2 RES2    0.0000
     50 O20        4.2532    6.4434    0.2344 O.2       2 RES2    0.0000
     51 H1         7.2811   11.7058    7.2863 H         1 RES1    0.0000
     52 H2         6.0904   11.7854    8.3020 H         1 RES1    0.0000
     53 H3         7.3962   10.2417    9.2670 H         1 RES1    0.0000
     54 H4         7.8001    9.6092    7.8906 H         1 RES1    0.0000
     55 H5         3.8294   15.3868   10.6871 H         1 RES1    0.0000
     56 H6         4.2891   15.2653    9.1935 H         1 RES1    0.0000
     57 H7         4.9729   14.3875   10.2987 H         1 RES1    0.0000
     58 H8         4.1672    9.4855    6.3649 H         1 RES1    0.0000
     59 H9         4.1075    8.6336    8.2928 H         1 RES1    0.0000
     60 H10        2.4888   11.4207    9.1843 H         1 RES1    0.0000
     61 H11        3.7717    3.0464    3.5731 H         2 RES2    0.0000
     62 H12        4.7228    3.1410    2.3300 H         2 RES2    0.0000
     63 H13        5.7189    3.0571    4.5152 H         2 RES2    0.0000
     64 H14        6.3110    4.0618    3.4697 H         2 RES2    0.0000
     65 H15       10.6091    5.3957    1.1558 H         2 RES2    0.0000
     66 H16        9.4337    4.3770    0.9628 H         2 RES2    0.0000
     67 H17       10.0408    4.6115    2.3874 H         2 RES2    0.0000
     68 H18        3.8824    6.8253    2.8148 H         2 RES2    0.0000
     69 H19        4.5964    6.8232    4.8392 H         2 RES2    0.0000
     70 H20        7.0321    7.6170    2.2472 H         2 RES2    0.0000
@<TRIPOS>BOND
     1    1    2 1
     2    2    3 1
     3    3    4 1
     4    4    5 1
     5    5    6 1
     6    6    1 1
     7    7    6 1
     8    8    7 1
     9    9    1 1
    10   10    2 1
    11   11   10 2
    12   12   10 2
    13   13    5 1
    14   14   13 2
    15   15   13 2
    16   16    7 1
    17   17   16 2
    18   18   16 2
    19   19    8 1
    20   20   19 1
    21   21   20 1
    22   22   20 2
    23   23    9 1
    24   24   23 2
    25   25   23 2
    26   26   27 1
    27   27   28 1
    28   28   29 1
    29   29   30 1
    30   30   31 1
    31   31   26 1
    32   32   31 1
    33   33   32 1
    34   34   26 1
    35   35   27 1
    36   36   35 2
    37   37   35 2
    38   38   30 1
    39   39   38 2
    40   40   38 2
    41   41   32 1
    42   42   41 2
    43   43   41 2
    44   44   33 1
    45   45   44 1
    46   46   45 1
    47   47   45 2
    48   48   34 1
    49   49   48 2
    50   50   48 2
    51   51    3 1
    52   52    3 1
    53   53    4 1
    54   54    4 1
    55   55   21 1
    56   56   21 1
    57   57   21 1
    58   58    1 1
    59   59    6 1
    60   60    8 1
    61   61   28 1
    62   62   28 1
    63   63   29 1
    64   64   29 1
    65   65   46 1
    66   66   46 1
    67   67   46 1
    68   68   26 1
    69   69   31 1
    70   70   33 1
    71    8    9 1
    72   33   34 1
@<TRIPOS>SUBSTRUCTURE
     1 RES1 1
     2 RES2 26

@<TRIPOS>CRYSIN
  11.2060   10.7570   23.0260  90.0000  93.7000  90.0000  14 2

