# MOL2 file generated by ConQuest
# Please check atom types

@<TRIPOS>MOLECULE
JEHWIC
    31    33     1
SMALL
NO_CHARGES
****
Generated from CSD

@<TRIPOS>ATOM
      1 O1         3.9862   -0.3280   10.2274 O.3       1 RES1    0.0000
      2 C1         2.7625   -0.4822   10.9400 C.3       1 RES1    0.0000
      3 C2         1.6314   -0.0586    9.9780 C.3       1 RES1    0.0000
      4 C3         2.3374    0.8349    8.9675 C.3       1 RES1    0.0000
      5 C4         3.7005    0.1398    8.8662 C.3       1 RES1    0.0000
      6 O2         1.6461    0.7835    7.7310 O.3       1 RES1    0.0000
      7 C5         4.8639    0.9953    8.4155 C.3       1 RES1    0.0000
      8 O3         5.1488    2.0791    9.3075 O.3       1 RES1    0.0000
      9 N1         2.6116    0.4925   12.0035 N.am      1 RES1    0.0000
     10 C6         3.4444    0.5830   13.0591 C.2       1 RES1    0.0000
     11 N2         3.0696    1.5249   14.0103 N.am      1 RES1    0.0000
     12 C7         1.7762    2.0010   14.2146 C.2       1 RES1    0.0000
     13 C8         0.7778    1.6328   13.1465 C.3       1 RES1    0.0000
     14 C9         1.4389    1.3665   11.8117 C.3       1 RES1    0.0000
     15 O4         4.4643   -0.0792   13.1776 O.2       1 RES1    0.0000
     16 O5         1.5073    2.6210   15.2110 O.2       1 RES1    0.0000
     17 N3         0.6088    0.6303   10.8262 N.3       1 RES1    0.0000
     18 O6        -0.0007   -0.4925   11.5357 O.3       1 RES1    0.0000
     19 H1         2.6955   -1.4601   11.3361 H         1 RES1    0.0000
     20 H2         1.1533   -0.8123    9.5117 H         1 RES1    0.0000
     21 H3         2.5613    1.9125    9.3714 H         1 RES1    0.0000
     22 H4         1.7500    1.5218    7.3755 H         1 RES1    0.0000
     23 H5         3.6543   -0.6992    8.2331 H         1 RES1    0.0000
     24 H6         5.6390    0.4216    8.3111 H         1 RES1    0.0000
     25 H7         4.6735    1.4807    7.4846 H         1 RES1    0.0000
     26 H8         5.5652    1.8405    9.9327 H         1 RES1    0.0000
     27 H9         3.7146    1.6452   14.7354 H         1 RES1    0.0000
     28 H10        0.1609    0.7712   13.5035 H         1 RES1    0.0000
     29 H11        0.1475    2.3855   13.0825 H         1 RES1    0.0000
     30 H12        1.7701    2.3444   11.3361 H         1 RES1    0.0000
     31 H13       -0.7845   -0.3188   11.5388 H         1 RES1    0.0000
@<TRIPOS>BOND
     1    1    2 1
     2    2    3 1
     3    3    4 1
     4    4    5 1
     5    5    1 1
     6    6    4 1
     7    7    5 1
     8    8    7 1
     9    9    2 1
    10   10    9 1
    11   11   10 1
    12   12   11 1
    13   13   12 1
    14   14    9 1
    15   15   10 2
    16   16   12 2
    17   17    3 1
    18   18   17 1
    19   19    2 1
    20   20    3 1
    21   21    4 1
    22   22    6 1
    23   23    5 1
    24   24    7 1
    25   25    7 1
    26   26    8 1
    27   27   11 1
    28   28   13 1
    29   29   13 1
    30   30   14 1
    31   31   18 1
    32   13   14 1
    33   14   17 1
@<TRIPOS>SUBSTRUCTURE
     1 RES1 1

@<TRIPOS>CRYSIN
   6.7051   10.2824   15.5930  90.0000  90.0000  90.0000  19 1

