# MOL2 file generated by ConQuest
# Please check atom types

@<TRIPOS>MOLECULE
JEJZAA
    32    32     2
SMALL
NO_CHARGES
****
Generated from CSD

@<TRIPOS>ATOM
      1 O1         2.7875    4.7468   15.2560 O.2       1 RES1    0.0000
      2 N1         2.2766    3.6984   14.6023 N.pl3     1 RES1    0.0000
      3 C1         1.7312    2.6546   15.2648 C.ar      1 RES1    0.0000
      4 H1         1.6449    2.7099   16.3097 H         1 RES1    0.0000
      5 C2         1.2602    1.5532   14.6111 C.ar      1 RES1    0.0000
      6 H2         0.8506    0.7390   15.1314 H         1 RES1    0.0000
      7 C3         1.3712    1.5179   13.2174 C.ar      1 RES1    0.0000
      8 C4         1.8986    2.5829   12.5624 C.ar      1 RES1    0.0000
      9 H3         1.9406    2.5687   11.5130 H         1 RES1    0.0000
     10 C5         2.3803    3.6725   13.2585 C.ar      1 RES1    0.0000
     11 H4         2.8113    4.4785   12.7411 H         1 RES1    0.0000
     12 N2         0.8555    0.3412   12.6591 N.pl3     1 RES1    0.0000
     13 H5         0.2232   -0.2436   13.2599 H         1 RES1    0.0000
     14 N3         1.0735   -0.0600   11.4002 N.pl3     1 RES1    0.0000
     15 O2         1.7260    0.6237   10.6484 O.2       1 RES1    0.0000
     16 O3         0.6333   -1.1873   11.1218 O.2       1 RES1    0.0000
     17 O4         3.3004   10.2926    7.1825 O.2       2 RES2    0.0000
     18 N4         2.6501    9.2183    7.6793 N.pl3     2 RES2    0.0000
     19 C6         2.4982    9.1488    8.9850 C.ar      2 RES2    0.0000
     20 H6         2.8388    9.9337    9.5932 H         2 RES2    0.0000
     21 C7         1.9100    8.0322    9.5522 C.ar      2 RES2    0.0000
     22 H7         1.7670    7.9792   10.5912 H         2 RES2    0.0000
     23 C8         1.4683    6.9825    8.7594 C.ar      2 RES2    0.0000
     24 C9         1.6486    7.1061    7.3818 C.ar      2 RES2    0.0000
     25 H8         1.3573    6.3236    6.7457 H         2 RES2    0.0000
     26 C10        2.2438    8.2157    6.8542 C.ar      2 RES2    0.0000
     27 H9         2.3659    8.3099    5.8151 H         2 RES2    0.0000
     28 N5         0.8420    5.8164    9.1433 N.pl3     2 RES2    0.0000
     29 H10        0.5200    5.1398    8.4062 H         2 RES2    0.0000
     30 N6         0.6297    5.4717   10.4593 N.pl3     2 RES2    0.0000
     31 O5         0.0441    4.3691   10.5898 O.2       2 RES2    0.0000
     32 O6         1.0024    6.2118   11.3694 O.2       2 RES2    0.0000
@<TRIPOS>BOND
     1    1    2 1
     2    2    3 ar
     3    3    4 1
     4    5    3 ar
     5    6    5 1
     6    7    5 ar
     7    8    7 ar
     8    9    8 1
     9   10    2 ar
    10   11   10 1
    11   12    7 1
    12   13   12 1
    13   14   12 1
    14   15   14 2
    15   16   14 2
    16   17   18 1
    17   18   19 ar
    18   19   20 1
    19   21   19 ar
    20   22   21 1
    21   23   21 ar
    22   24   23 ar
    23   25   24 1
    24   26   18 ar
    25   27   26 1
    26   28   23 1
    27   29   28 1
    28   30   28 1
    29   31   30 2
    30   32   30 2
    31    8   10 ar
    32   24   26 ar
@<TRIPOS>SUBSTRUCTURE
     1 RES1 1
     2 RES2 17

@<TRIPOS>CRYSIN
   3.7350   11.7670   14.6790  90.0000  93.2700  90.0000   4 1

