# MOL2 file generated by ConQuest
# Please check atom types

@<TRIPOS>MOLECULE
JEKHOZ
    38    40     1
SMALL
USER_CHARGES
****
Generated from CSD

@<TRIPOS>ATOM
      1 O1         4.2613    3.9902   11.7072 O.3       1 RES1    0.0000
      2 H1         5.0525    3.7742   11.7187 H         1 RES1    0.0000
      3 O2         6.0443    2.0494   11.1445 O.2       1 RES1   -1.0000
      4 O3         0.9003    5.5877   10.8121 O.2       1 RES1    0.0000
      5 C1         4.0248    3.3390    9.3622 C.3       1 RES1    0.0000
      6 H2         4.9650    3.1116    9.2977 H         1 RES1    0.0000
      7 H3         3.5315    2.7457    8.7734 H         1 RES1    0.0000
      8 C2         3.5465    3.1327   10.8145 C.3       1 RES1    0.0000
      9 N1         5.0309    1.2178   11.2895 N.pl3     1 RES1    1.0000
     10 C3         3.8189    4.7891    8.9127 C.3       1 RES1    0.0000
     11 H4         4.2796    5.3680    9.5560 H         1 RES1    0.0000
     12 C4         2.0731    3.5274   10.9248 C.3       1 RES1    0.0000
     13 H5         1.5374    2.8353   10.5056 H         1 RES1    0.0000
     14 H6         1.8320    3.5553   11.8648 H         1 RES1    0.0000
     15 C5         4.2946   -0.9854   11.7607 C.ar      1 RES1    0.0000
     16 H7         4.4880   -1.8837   11.9065 H         1 RES1    0.0000
     17 C6         2.7278    0.7834   11.5108 C.ar      1 RES1    0.0000
     18 H8         1.8471    1.0826   11.5178 H         1 RES1    0.0000
     19 C7         3.7464    1.6758   11.2207 C.ar      1 RES1    0.0000
     20 C8         4.4318    5.0350    7.5483 C.ar      1 RES1    0.0000
     21 C9         5.3034   -0.0921   11.5155 C.ar      1 RES1    0.0000
     22 H9         6.1848   -0.3871   11.5048 H         1 RES1    0.0000
     23 C10        1.7157    4.8474   10.3021 C.2       1 RES1    0.0000
     24 C11        2.9944   -0.5417   11.7909 C.ar      1 RES1    0.0000
     25 H10        2.3018   -1.1274   11.9978 H         1 RES1    0.0000
     26 C12        3.9339    4.4401    6.4030 C.ar      1 RES1    0.0000
     27 H11        3.1793    3.8992    6.4515 H         1 RES1    0.0000
     28 C13        5.5452    5.8455    7.4330 C.ar      1 RES1    0.0000
     29 H12        5.8888    6.2596    8.1916 H         1 RES1    0.0000
     30 C14        2.3234    5.1339    8.9607 C.3       1 RES1    0.0000
     31 H13        2.2071    6.0745    8.7525 H         1 RES1    0.0000
     32 H14        1.8562    4.6201    8.2829 H         1 RES1    0.0000
     33 C15        4.5605    4.6497    5.1818 C.ar      1 RES1    0.0000
     34 H15        4.2182    4.2483    4.4167 H         1 RES1    0.0000
     35 C16        6.1593    6.0525    6.2084 C.ar      1 RES1    0.0000
     36 H16        6.9022    6.6094    6.1489 H         1 RES1    0.0000
     37 C17        5.6745    5.4407    5.0892 C.ar      1 RES1    0.0000
     38 H17        6.0979    5.5598    4.2706 H         1 RES1    0.0000
@<TRIPOS>BOND
     1    1    2 1
     2    3    9 1
     3    4   23 2
     4    5    6 1
     5    7    5 1
     6    8    1 1
     7    9   19 ar
     8   10    5 1
     9   11   10 1
    10   12    8 1
    11   13   12 1
    12   14   12 1
    13   15   16 1
    14   17   18 1
    15   19    8 1
    16   20   10 1
    17   21    9 ar
    18   22   21 1
    19   23   12 1
    20   24   15 ar
    21   25   24 1
    22   26   20 ar
    23   27   26 1
    24   28   20 ar
    25   29   28 1
    26   30   10 1
    27   31   30 1
    28   32   30 1
    29   33   26 ar
    30   34   33 1
    31   35   28 ar
    32   36   35 1
    33   37   33 ar
    34   38   37 1
    35    5    8 1
    36   15   21 ar
    37   17   19 ar
    38   17   24 ar
    39   23   30 1
    40   35   37 ar
@<TRIPOS>SUBSTRUCTURE
     1 RES1 1

@<TRIPOS>CRYSIN
   6.5337    8.4509   26.0879  90.0000  90.0000  90.0000  19 1

