# MOL2 file generated by ConQuest
# Please check atom types

@<TRIPOS>MOLECULE
JEKJOB
    48    50     1
SMALL
NO_CHARGES
****
Generated from CSD

@<TRIPOS>ATOM
      1 O1         3.2125    3.0076    6.7385 O.2       1 RES1    0.0000
      2 C1         5.8530    5.3489    6.8240 C.3       1 RES1    0.0000
      3 H1         5.4755    6.1620    6.3796 H         1 RES1    0.0000
      4 C2         5.4596    5.3413    8.3117 C.3       1 RES1    0.0000
      5 H2         5.3429    6.2668    8.6437 H         1 RES1    0.0000
      6 H3         6.1594    4.8966    8.8522 H         1 RES1    0.0000
      7 O2         5.1458    3.9365    4.9793 O.3       1 RES1    0.0000
      8 N1         5.1504    4.1649    6.3568 N.am      1 RES1    0.0000
      9 C3         4.0669    3.8019    7.0910 C.2       1 RES1    0.0000
     10 C4         7.9521    4.0925    7.2200 C.1       1 RES1    0.0000
     11 C5         5.7568    2.6690    4.6829 C.3       1 RES1    0.0000
     12 H4         5.7787    2.5358    3.7125 H         1 RES1    0.0000
     13 H5         5.2368    1.9503    5.0992 H         1 RES1    0.0000
     14 H6         6.6711    2.6568    5.0344 H         1 RES1    0.0000
     15 C6         2.9079    5.4892    8.4445 C.3       1 RES1    0.0000
     16 H7         2.0899    4.9525    8.3811 H         1 RES1    0.0000
     17 H8         2.9468    6.1146    7.6909 H         1 RES1    0.0000
     18 H9         2.9047    5.9910    9.2861 H         1 RES1    0.0000
     19 C7         4.0853    3.5907    9.5809 C.3       1 RES1    0.0000
     20 H10        3.2543    3.0728    9.5445 H         1 RES1    0.0000
     21 H11        4.1203    4.0928   10.4218 H         1 RES1    0.0000
     22 H12        4.8519    2.9820    9.5317 H         1 RES1    0.0000
     23 C8         7.3733    5.2631    6.5498 C.3       1 RES1    0.0000
     24 H13        7.4981    5.1422    5.5650 H         1 RES1    0.0000
     25 C9         7.7072    7.7276    6.1955 C.ar      1 RES1    0.0000
     26 H14        7.1433    7.6543    5.4342 H         1 RES1    0.0000
     27 C10        8.3358    3.1180    7.7981 C.1       1 RES1    0.0000
     28 C11        8.7421    1.9377    8.5142 C.ar      1 RES1    0.0000
     29 C12        8.2212    0.2040   10.1108 C.ar      1 RES1    0.0000
     30 H15        7.6117   -0.1965   10.7196 H         1 RES1    0.0000
     31 C13        7.8540    1.3394    9.4135 C.ar      1 RES1    0.0000
     32 H16        6.9915    1.7158    9.5455 H         1 RES1    0.0000
     33 C14        4.1309    4.5638    8.4056 C.3       1 RES1    0.0000
     34 C15        8.2149    8.9648    6.5577 C.ar      1 RES1    0.0000
     35 H17        7.9828    9.7371    6.0564 H         1 RES1    0.0000
     36 C16        8.0173    6.5890    6.9391 C.ar      1 RES1    0.0000
     37 C17       10.0066    1.3736    8.3296 C.ar      1 RES1    0.0000
     38 H18       10.6205    1.7703    7.7228 H         1 RES1    0.0000
     39 C18        9.0589    9.0784    7.6478 C.ar      1 RES1    0.0000
     40 H19        9.4109    9.9268    7.8919 H         1 RES1    0.0000
     41 C19        8.8626    6.7126    8.0356 C.ar      1 RES1    0.0000
     42 H20        9.0820    5.9457    8.5523 H         1 RES1    0.0000
     43 C20        9.4781   -0.3517    9.9240 C.ar      1 RES1    0.0000
     44 H21        9.7306   -1.1313   10.4048 H         1 RES1    0.0000
     45 C21       10.3646    0.2330    9.0336 C.ar      1 RES1    0.0000
     46 H22       11.2237   -0.1506    8.9043 H         1 RES1    0.0000
     47 C22        9.3884    7.9538    8.3803 C.ar      1 RES1    0.0000
     48 H23        9.9768    8.0288    9.1223 H         1 RES1    0.0000
@<TRIPOS>BOND
     1    1    9 2
     2    2    3 1
     3    4    2 1
     4    5    4 1
     5    6    4 1
     6    7    8 1
     7    8    2 1
     8    9    8 1
     9   10   23 1
    10   11    7 1
    11   12   11 1
    12   13   11 1
    13   14   11 1
    14   15   16 1
    15   17   15 1
    16   18   15 1
    17   19   20 1
    18   21   19 1
    19   22   19 1
    20   23    2 1
    21   24   23 1
    22   25   26 1
    23   27   10 3
    24   28   27 1
    25   29   30 1
    26   31   28 ar
    27   32   31 1
    28   33    4 1
    29   34   25 ar
    30   35   34 1
    31   36   23 1
    32   37   28 ar
    33   38   37 1
    34   39   34 ar
    35   40   39 1
    36   41   36 ar
    37   42   41 1
    38   43   29 ar
    39   44   43 1
    40   45   37 ar
    41   46   45 1
    42   47   39 ar
    43   48   47 1
    44    9   33 1
    45   15   33 1
    46   19   33 1
    47   25   36 ar
    48   29   31 ar
    49   41   47 ar
    50   43   45 ar
@<TRIPOS>SUBSTRUCTURE
     1 RES1 1

@<TRIPOS>CRYSIN
   9.3352   10.2282   11.6109  70.9770  69.2770  63.8720   2 1

