# MOL2 file generated by ConQuest
# Please check atom types

@<TRIPOS>MOLECULE
JEKQUO
    37    40     1
SMALL
NO_CHARGES
****
Generated from CSD

@<TRIPOS>ATOM
      1 O1         0.9543    3.6992    5.8421 O.3       1 RES1    0.0000
      2 O2         0.1463    4.9478    9.2041 O.3       1 RES1    0.0000
      3 O3         1.8723    7.0971    8.4948 O.2       1 RES1    0.0000
      4 O4         1.5732    3.2974   11.0228 O.2       1 RES1    0.0000
      5 N1         1.4605    5.1080    9.5985 N.am      1 RES1    0.0000
      6 O5         2.9270    3.7756    6.8963 O.2       1 RES1    0.0000
      7 O6         2.5513    2.3261    5.3343 O.2       1 RES1    0.0000
      8 C1        -0.7423    5.3124    6.2168 C.ar      1 RES1    0.0000
      9 N2         2.2654    3.2388    6.0568 N.pl3     1 RES1    0.0000
     10 C2        -1.8457    4.7371    6.8054 C.ar      1 RES1    0.0000
     11 C3         0.5151    4.7268    6.7971 C.3       1 RES1    0.0000
     12 H1         1.2031    5.4042    6.9634 H         1 RES1    0.0000
     13 C4         2.0470    4.3089   10.5804 C.2       1 RES1    0.0000
     14 C5         3.3221    5.0081   10.8908 C.ar      1 RES1    0.0000
     15 C6         2.1866    6.2670    9.2902 C.2       1 RES1    0.0000
     16 C7         3.4096    6.1585   10.1409 C.ar      1 RES1    0.0000
     17 C8         0.0475    4.0379    8.0778 C.3       1 RES1    0.0000
     18 H2         0.5417    3.2073    8.2417 H         1 RES1    0.0000
     19 C9        -3.1210    5.0994    6.3861 C.ar      1 RES1    0.0000
     20 H3        -3.8741    4.6958    6.7532 H         1 RES1    0.0000
     21 C10       -0.8575    6.2900    5.2444 C.ar      1 RES1    0.0000
     22 H4        -0.1031    6.6786    4.8632 H         1 RES1    0.0000
     23 C11        4.4726    7.0087   10.2371 C.ar      1 RES1    0.0000
     24 H5         4.5187    7.7848    9.7264 H         1 RES1    0.0000
     25 C12       -1.4532    3.7727    7.8858 C.3       1 RES1    0.0000
     26 H6        -1.6127    2.8565    7.6091 H         1 RES1    0.0000
     27 H7        -1.9452    3.9461    8.7037 H         1 RES1    0.0000
     28 C13        4.3249    4.6596   11.7832 C.ar      1 RES1    0.0000
     29 H8         4.2738    3.8864   12.2981 H         1 RES1    0.0000
     30 C14       -3.2426    6.0667    5.4190 C.ar      1 RES1    0.0000
     31 H9        -4.0914    6.3215    5.1340 H         1 RES1    0.0000
     32 C15       -2.1313    6.6700    4.8579 C.ar      1 RES1    0.0000
     33 H10       -2.2396    7.3353    4.2174 H         1 RES1    0.0000
     34 C16        5.4752    6.6734   11.1183 C.ar      1 RES1    0.0000
     35 H11        6.2089    7.2377   11.2035 H         1 RES1    0.0000
     36 C17        5.4216    5.5311   11.8714 C.ar      1 RES1    0.0000
     37 H12        6.1220    5.3301   12.4496 H         1 RES1    0.0000
@<TRIPOS>BOND
     1    1    9 1
     2    2    5 1
     3    3   15 2
     4    4   13 2
     5    5   13 1
     6    6    9 2
     7    7    9 2
     8    8   10 ar
     9   10   19 ar
    10   11    1 1
    11   12   11 1
    12   13   14 1
    13   14   16 ar
    14   15    5 1
    15   16   15 1
    16   17    2 1
    17   18   17 1
    18   19   20 1
    19   21    8 ar
    20   22   21 1
    21   23   16 ar
    22   24   23 1
    23   25   10 1
    24   26   25 1
    25   27   25 1
    26   28   14 ar
    27   29   28 1
    28   30   19 ar
    29   31   30 1
    30   32   21 ar
    31   33   32 1
    32   34   23 ar
    33   35   34 1
    34   36   28 ar
    35   37   36 1
    36    8   11 1
    37   11   17 1
    38   17   25 1
    39   30   32 ar
    40   34   36 ar
@<TRIPOS>SUBSTRUCTURE
     1 RES1 1

@<TRIPOS>CRYSIN
  14.3090    5.7406   19.1631  90.0000  98.7980  90.0000 231 1

