# MOL2 file generated by ConQuest
# Please check atom types

@<TRIPOS>MOLECULE
JEKYUU
    53    55     1
SMALL
NO_CHARGES
****
Generated from CSD

@<TRIPOS>ATOM
      1 C1        -1.8584   11.6417   13.2431 C.3       1 RES1    0.0000
      2 C2        -2.9970   12.6129   13.2418 C.3       1 RES1    0.0000
      3 H1        -3.4882   12.5420   14.0870 H         1 RES1    0.0000
      4 H2        -3.5991   12.4088   12.4952 H         1 RES1    0.0000
      5 H3        -2.6492   13.5242   13.1417 H         1 RES1    0.0000
      6 C3        -0.9802   11.7612   12.0206 C.3       1 RES1    0.0000
      7 H4        -0.5881   12.6585   11.9874 H         1 RES1    0.0000
      8 H5        -1.5184   11.6098   11.2149 H         1 RES1    0.0000
      9 H6        -0.2644   11.0937   12.0663 H         1 RES1    0.0000
     10 C4        -1.5066    9.5550   14.0754 C.3       1 RES1    0.0000
     11 H7        -0.9309    9.0211   13.4724 H         1 RES1    0.0000
     12 H8        -1.9934    8.9379   14.6780 H         1 RES1    0.0000
     13 C5        -0.6581   10.5402   14.8918 C.3       1 RES1    0.0000
     14 H9         0.3125   10.4128   14.6887 H         1 RES1    0.0000
     15 C6        -0.8956   10.4534   16.3594 C.3       1 RES1    0.0000
     16 H10       -1.8287   10.6709   16.6453 H         1 RES1    0.0000
     17 C7         0.1703   10.8685   17.3322 C.3       1 RES1    0.0000
     18 H11       -0.1143   11.3517   18.1475 H         1 RES1    0.0000
     19 H12        1.0440   11.1536   16.9632 H         1 RES1    0.0000
     20 C8        -0.1966    9.4108   17.2176 C.3       1 RES1    0.0000
     21 H13       -0.7544    9.0761   17.9768 H         1 RES1    0.0000
     22 C9         0.7668    8.3835   16.6735 C.3       1 RES1    0.0000
     23 H14        1.1868    8.7514   15.8452 H         1 RES1    0.0000
     24 C10        1.8718    8.1029   17.6902 C.3       1 RES1    0.0000
     25 H15        2.2880    8.9479   17.9618 H         1 RES1    0.0000
     26 H16        2.5478    7.5212   17.2854 H         1 RES1    0.0000
     27 H17        1.4876    7.6610   18.4761 H         1 RES1    0.0000
     28 C11       -0.0017    7.1090   16.3028 C.3       1 RES1    0.0000
     29 H18       -0.4537    6.7688   17.1147 H         1 RES1    0.0000
     30 H19       -0.7057    7.3481   15.6488 H         1 RES1    0.0000
     31 C12        0.8289    5.9965   15.7210 C.3       1 RES1    0.0000
     32 H20        1.5262    5.7200   16.3658 H         1 RES1    0.0000
     33 H21        0.2565    5.2139   15.5230 H         1 RES1    0.0000
     34 C13        2.5154    5.8105   14.0889 C.2       1 RES1    0.0000
     35 C14        3.1135    6.3687   12.8353 C.ar      1 RES1    0.0000
     36 C15        2.5831    7.4671   12.1606 C.ar      1 RES1    0.0000
     37 H22        1.8024    7.9024   12.4824 H         1 RES1    0.0000
     38 C16        3.2110    7.9081   11.0214 C.ar      1 RES1    0.0000
     39 C17        4.3525    7.3193   10.5117 C.ar      1 RES1    0.0000
     40 H23        4.7809    7.6494    9.7299 H         1 RES1    0.0000
     41 C18        4.8347    6.2252   11.2002 C.ar      1 RES1    0.0000
     42 C19        4.2516    5.7438   12.3471 C.ar      1 RES1    0.0000
     43 H24        4.6219    4.9942   12.7982 H         1 RES1    0.0000
     44 N1         2.6453    9.0681   10.3081 N.pl3     1 RES1    0.0000
     45 N2         6.0355    5.5319   10.6866 N.pl3     1 RES1    0.0000
     46 O1        -2.4045   10.3189   13.3365 O.3       1 RES1    0.0000
     47 O2        -1.1034   11.8213   14.4200 O.3       1 RES1    0.0000
     48 O3         1.4523    6.4897   14.4866 O.3       1 RES1    0.0000
     49 O4         2.9724    4.8600   14.6468 O.2       1 RES1    0.0000
     50 O5         1.5094    9.4135   10.5915 O.2       1 RES1    0.0000
     51 O6         3.3432    9.6113    9.4544 O.2       1 RES1    0.0000
     52 O7         6.4528    5.8611    9.5882 O.2       1 RES1    0.0000
     53 O8         6.5519    4.6804   11.3912 O.2       1 RES1    0.0000
@<TRIPOS>BOND
     1    1    2 1
     2    2    3 1
     3    4    2 1
     4    5    2 1
     5    6    1 1
     6    7    6 1
     7    8    6 1
     8    9    6 1
     9   10   11 1
    10   12   10 1
    11   13   10 1
    12   14   13 1
    13   15   13 1
    14   16   15 1
    15   17   15 1
    16   18   17 1
    17   19   17 1
    18   20   15 1
    19   21   20 1
    20   22   20 1
    21   23   22 1
    22   24   22 1
    23   25   24 1
    24   26   24 1
    25   27   24 1
    26   28   22 1
    27   29   28 1
    28   30   28 1
    29   31   28 1
    30   32   31 1
    31   33   31 1
    32   34   35 1
    33   35   36 ar
    34   36   37 1
    35   38   36 ar
    36   39   38 ar
    37   40   39 1
    38   41   39 ar
    39   42   35 ar
    40   43   42 1
    41   44   38 1
    42   45   41 1
    43   46    1 1
    44   47    1 1
    45   48   31 1
    46   49   34 2
    47   50   44 2
    48   51   44 2
    49   52   45 2
    50   53   45 2
    51   10   46 1
    52   13   47 1
    53   17   20 1
    54   34   48 1
    55   41   42 ar
@<TRIPOS>SUBSTRUCTURE
     1 RES1 1

@<TRIPOS>CRYSIN
   5.6009   16.6472   21.3374  90.0000  90.0000  90.0000  19 1

