# MOL2 file generated by ConQuest
# Please check atom types

@<TRIPOS>MOLECULE
JELQEX
    26    27     1
SMALL
NO_CHARGES
****
Generated from CSD

@<TRIPOS>ATOM
      1 O1         4.7087    1.6968   -1.4207 O.3       1 RES1    0.0000
      2 O2         2.5658    1.6968   -0.9086 O.2       1 RES1    0.0000
      3 O3         2.4262    0.6285    2.0726 O.2       1 RES1    0.0000
      4 O4         5.8294    1.6968    2.5685 O.3       1 RES1    0.0000
      5 N1         2.8901    1.6968    1.7536 N.pl3     1 RES1    0.0000
      6 C1         6.0319    1.6968   -1.0357 C.ar      1 RES1    0.0000
      7 C2         3.7015    1.6968   -0.5063 C.2       1 RES1    0.0000
      8 C3         4.0710    1.6968    0.8843 C.2       1 RES1    0.0000
      9 C4         5.3614    1.6968    1.3166 C.2       1 RES1    0.0000
     10 C5         6.3959    1.6968    0.3110 C.ar      1 RES1    0.0000
     11 C6         7.7643    1.6968    0.6242 C.ar      1 RES1    0.0000
     12 C7         8.6989    1.6968   -0.3815 C.ar      1 RES1    0.0000
     13 C8         8.3021    1.6968   -1.7120 C.ar      1 RES1    0.0000
     14 C9         6.9816    1.6968   -2.0437 C.ar      1 RES1    0.0000
     15 C10        5.0083    1.6968    3.7279 C.3       1 RES1    0.0000
     16 C11        5.9375    1.6968    4.8885 C.3       1 RES1    0.0000
     17 H1         8.0448    1.6968    1.5351 H         1 RES1    0.0000
     18 H2         9.6253    1.6968   -0.1688 H         1 RES1    0.0000
     19 H3         8.9575    1.6968   -2.3940 H         1 RES1    0.0000
     20 H4         6.7175    1.6968   -2.9558 H         1 RES1    0.0000
     21 H5         4.4473    2.5126    3.6829 H         1 RES1    0.0000
     22 H6         5.5379    1.6968    5.6179 H         1 RES1    0.0000
     23 H7         6.5615    2.4997    4.8411 H         1 RES1    0.0000
     24 O3G        2.4262    2.7651    2.0726 O.2       1 RES1    0.0000
     25 H5G        4.4473    0.8810    3.6829 H         1 RES1    0.0000
     26 H7G        6.5615    0.8939    4.8411 H         1 RES1    0.0000
@<TRIPOS>BOND
     1    1    6 1
     2    2    7 2
     3    3    5 2
     4    4    9 1
     5    5    8 1
     6    6   10 ar
     7    7    1 1
     8    8    7 1
     9    9    8 2
    10   10    9 1
    11   11   10 ar
    12   12   11 ar
    13   13   12 ar
    14   14    6 ar
    15   15    4 1
    16   16   15 1
    17   17   11 1
    18   18   12 1
    19   19   13 1
    20   20   14 1
    21   21   15 1
    22   22   16 1
    23   23   16 1
    24   24    5 2
    25   25   15 1
    26   26   16 1
    27   13   14 ar
@<TRIPOS>SUBSTRUCTURE
     1 RES1 1

@<TRIPOS>CRYSIN
  13.6840    6.7872   11.5595  90.0000  90.0000  90.0000  62 1

