# MOL2 file generated by ConQuest
# Please check atom types

@<TRIPOS>MOLECULE
JELRIB
    22    23     1
SMALL
NO_CHARGES
****
Generated from CSD

@<TRIPOS>ATOM
      1 N1         8.2287    8.5305    7.3683 N.pl3     1 RES1    0.0000
      2 O1         9.0068    7.8908    8.1055 O.2       1 RES1    0.0000
      3 C1         6.8591    8.6110    7.4438 C.2       1 RES1    0.0000
      4 C2         6.4087    9.3997    6.3403 C.2       1 RES1    0.0000
      5 O2         5.2552    9.6797    6.0243 O.2       1 RES1    0.0000
      6 C3         7.7464   10.6288    4.4761 C.ar      1 RES1    0.0000
      7 C4         9.0471   10.8619    4.0416 C.ar      1 RES1    0.0000
      8 C5        10.1292   10.3307    4.7025 C.ar      1 RES1    0.0000
      9 C6         9.9874    9.5366    5.8215 C.ar      1 RES1    0.0000
     10 C7         8.7127    9.3087    6.2419 C.ar      1 RES1    0.0000
     11 C8         7.6135    9.8386    5.6032 C.ar      1 RES1    0.0000
     12 C9         6.1032    7.9798    8.5243 C.2       1 RES1    0.0000
     13 O3         6.5999    7.5760    9.5264 O.2       1 RES1    0.0000
     14 O4         4.8149    7.9087    8.2594 O.3       1 RES1    0.0000
     15 C10        4.0090    7.2457    9.2741 C.3       1 RES1    0.0000
     16 H1         6.9853   10.9945    4.0194 H         1 RES1    0.0000
     17 H2         9.1872   11.4082    3.2645 H         1 RES1    0.0000
     18 H3        11.0103   10.5148    4.3695 H         1 RES1    0.0000
     19 H4        10.7442    9.1673    6.2826 H         1 RES1    0.0000
     20 H5         4.1903    7.6207   10.1392 H         1 RES1    0.0000
     21 H6         4.1652    6.2987    9.2963 H         1 RES1    0.0000
     22 H7         3.0939    7.4131    9.0372 H         1 RES1    0.0000
@<TRIPOS>BOND
     1    1    2 1
     2    3    1 2
     3    4    3 1
     4    5    4 2
     5    6    7 ar
     6    7    8 ar
     7    8    9 ar
     8    9   10 ar
     9   10    1 1
    10   11    4 1
    11   12    3 1
    12   13   12 2
    13   14   12 1
    14   15   14 1
    15   16    6 1
    16   17    7 1
    17   18    8 1
    18   19    9 1
    19   20   15 1
    20   21   15 1
    21   22   15 1
    22    6   11 ar
    23   10   11 ar
@<TRIPOS>SUBSTRUCTURE
     1 RES1 1

@<TRIPOS>CRYSIN
   8.0350    8.0940    8.3820  64.5000  71.3500  70.5700   2 1

