# MOL2 file generated by ConQuest
# Please check atom types

@<TRIPOS>MOLECULE
JELTEC
    33    35     1
SMALL
NO_CHARGES
****
Generated from CSD

@<TRIPOS>ATOM
      1 C1         3.0302   -1.1460   20.2910 C.2       1 RES1    0.0000
      2 C2         2.3221   -0.1338   20.8297 C.2       1 RES1    0.0000
      3 H1         1.4826    0.1660   20.5639 H         1 RES1    0.0000
      4 C3         2.6652   -2.0657   19.1656 C.3       1 RES1    0.0000
      5 H2         1.8095   -1.7919   18.8019 H         1 RES1    0.0000
      6 H3         2.5629   -2.9649   19.5149 H         1 RES1    0.0000
      7 C4         3.6824   -2.0902   18.0531 C.ar      1 RES1    0.0000
      8 C5         3.8379   -1.0031   17.2230 C.ar      1 RES1    0.0000
      9 H4         3.2855   -0.2631   17.3327 H         1 RES1    0.0000
     10 C6         4.7906   -0.9897   16.2370 C.ar      1 RES1    0.0000
     11 H5         4.8767   -0.2415   15.6906 H         1 RES1    0.0000
     12 C7         5.6093   -2.0539   16.0476 C.ar      1 RES1    0.0000
     13 H6         6.2680   -2.0312   15.3905 H         1 RES1    0.0000
     14 C8         5.4541   -3.1546   16.8309 C.ar      1 RES1    0.0000
     15 H7         5.9956   -3.8986   16.6941 H         1 RES1    0.0000
     16 C9         4.4883   -3.1780   17.8378 C.ar      1 RES1    0.0000
     17 H8         4.3903   -3.9363   18.3673 H         1 RES1    0.0000
     18 C10        2.8004    1.4051   22.7478 C.ar      1 RES1    0.0000
     19 C11        1.7572    2.2722   22.4871 C.ar      1 RES1    0.0000
     20 H9         1.2618    2.1822   21.7042 H         1 RES1    0.0000
     21 C12        1.4502    3.2688   23.3835 C.ar      1 RES1    0.0000
     22 H10        0.7406    3.8479   23.2238 H         1 RES1    0.0000
     23 C13        2.2121    3.3919   24.5195 C.ar      1 RES1    0.0000
     24 C14        3.2709    2.5580   24.7843 C.ar      1 RES1    0.0000
     25 H11        3.7799    2.6716   25.5549 H         1 RES1    0.0000
     26 C15        3.5675    1.5522   23.8927 C.ar      1 RES1    0.0000
     27 H12        4.2776    0.9746   24.0569 H         1 RES1    0.0000
     28 N1         3.0815    0.3569   21.8344 N.pl3     1 RES1    0.0000
     29 N2         4.2362   -0.3411   21.9133 N.2       1 RES1    0.0000
     30 N3         4.2030   -1.2544   20.9754 N.2       1 RES1    0.0000
     31 N4         1.8669    4.4465   25.4872 N.pl3     1 RES1    0.0000
     32 O1         0.9181    5.1604   25.2450 O.2       1 RES1    0.0000
     33 O2         2.5510    4.5634   26.4767 O.2       1 RES1    0.0000
@<TRIPOS>BOND
     1    1    2 2
     2    2    3 1
     3    4    1 1
     4    5    4 1
     5    6    4 1
     6    7    4 1
     7    8    7 ar
     8    9    8 1
     9   10    8 ar
    10   11   10 1
    11   12   10 ar
    12   13   12 1
    13   14   12 ar
    14   15   14 1
    15   16    7 ar
    16   17   16 1
    17   18   19 ar
    18   19   20 1
    19   21   19 ar
    20   22   21 1
    21   23   21 ar
    22   24   23 ar
    23   25   24 1
    24   26   18 ar
    25   27   26 1
    26   28    2 1
    27   29   28 1
    28   30    1 1
    29   31   23 1
    30   32   31 2
    31   33   31 2
    32   14   16 ar
    33   18   28 1
    34   24   26 ar
    35   29   30 2
@<TRIPOS>SUBSTRUCTURE
     1 RES1 1

@<TRIPOS>CRYSIN
   5.1962   10.7814   24.0067  90.0000  90.2560  90.0000  14 1

