# MOL2 file generated by ConQuest
# Please check atom types

@<TRIPOS>MOLECULE
JELWEC
    49    53     1
SMALL
NO_CHARGES
****
Generated from CSD

@<TRIPOS>ATOM
      1 N1         8.0337    1.8028    1.0470 N.3       1 RES1    0.0000
      2 O1         7.0917    0.6778    1.0772 O.3       1 RES1    0.0000
      3 C1         7.8782   -0.5432    0.9664 C.3       1 RES1    0.0000
      4 C2         8.8543   -0.7749    2.0637 C.2       1 RES1    0.0000
      5 C3        10.0821   -0.6292    1.5931 C.2       1 RES1    0.0000
      6 O2        10.1406   -0.3414    0.2517 O.3       1 RES1    0.0000
      7 C4         8.7868   -0.5021   -0.2756 C.3       1 RES1    0.0000
      8 C5         8.4713    0.6965   -1.1476 C.3       1 RES1    0.0000
      9 C6         8.4126    2.0059   -0.3561 C.3       1 RES1    0.0000
     10 N2         7.2742    2.8593   -0.9073 N.pl3     1 RES1    0.0000
     11 C7         6.6001    3.4325    0.0617 C.2       1 RES1    0.0000
     12 C8         7.1911    2.9802    1.3653 C.3       1 RES1    0.0000
     13 C9        11.4199   -0.6628    2.2538 C.3       1 RES1    0.0000
     14 C10        8.7762   -1.8066   -1.0596 C.3       1 RES1    0.0000
     15 C11        9.7025    2.8207   -0.4065 C.ar      1 RES1    0.0000
     16 C12       10.0462    3.5321   -1.5491 C.ar      1 RES1    0.0000
     17 C13       11.2235    4.2460   -1.6007 C.ar      1 RES1    0.0000
     18 C14       12.0720    4.2660   -0.5348 C.ar      1 RES1    0.0000
     19 C15       11.7515    3.5570    0.6065 C.ar      1 RES1    0.0000
     20 C16       10.5620    2.8444    0.6770 C.ar      1 RES1    0.0000
     21 O3         7.0928    2.9366   -2.1871 O.2       1 RES1    0.0000
     22 C17        5.4898    4.3544   -0.0768 C.ar      1 RES1    0.0000
     23 C18        4.8871    4.6248   -1.3087 C.ar      1 RES1    0.0000
     24 C19        3.8159    5.5243   -1.3767 C.ar      1 RES1    0.0000
     25 C20        3.3511    6.1385   -0.2353 C.ar      1 RES1    0.0000
     26 C21        3.9427    5.8806    0.9841 C.ar      1 RES1    0.0000
     27 C22        4.9988    4.9848    1.0684 C.ar      1 RES1    0.0000
     28 H1         7.1396   -1.2584    0.8683 H         1 RES1    0.0000
     29 H2         8.5803   -0.9967    2.9698 H         1 RES1    0.0000
     30 H3         9.1274    0.7226   -1.9253 H         1 RES1    0.0000
     31 H4         7.5985    0.5856   -1.5981 H         1 RES1    0.0000
     32 H5         7.8161    3.6879    1.8121 H         1 RES1    0.0000
     33 H6         6.5073    2.7285    1.9882 H         1 RES1    0.0000
     34 H7        11.9260   -1.4203    1.8624 H         1 RES1    0.0000
     35 H8        11.9209    0.1121    2.0637 H         1 RES1    0.0000
     36 H9        11.3093   -0.9095    3.1963 H         1 RES1    0.0000
     37 H10        7.8504   -1.9311   -1.4597 H         1 RES1    0.0000
     38 H11        8.9770   -2.6039   -0.4908 H         1 RES1    0.0000
     39 H12        9.5049   -1.7816   -1.7617 H         1 RES1    0.0000
     40 H13        9.3647    3.5259   -2.2777 H         1 RES1    0.0000
     41 H14       11.3880    4.7469   -2.4287 H         1 RES1    0.0000
     42 H15       12.9539    4.6970   -0.5285 H         1 RES1    0.0000
     43 H16       12.3594    3.5259    1.3590 H         1 RES1    0.0000
     44 H17       10.3394    2.3298    1.4975 H         1 RES1    0.0000
     45 H18        5.2244    4.1613   -2.0763 H         1 RES1    0.0000
     46 H19        3.4043    5.6688   -2.2399 H         1 RES1    0.0000
     47 H20        2.5934    6.8026   -0.3523 H         1 RES1    0.0000
     48 H21        3.6315    6.3292    1.8624 H         1 RES1    0.0000
     49 H22        5.4234    4.8092    1.9505 H         1 RES1    0.0000
@<TRIPOS>BOND
     1    1    2 1
     2    2    3 1
     3    3    4 1
     4    4    5 2
     5    5    6 1
     6    6    7 1
     7    7    3 1
     8    8    7 1
     9    9    1 1
    10   10    9 1
    11   11   10 2
    12   12    1 1
    13   13    5 1
    14   14    7 1
    15   15    9 1
    16   16   15 ar
    17   17   16 ar
    18   18   17 ar
    19   19   18 ar
    20   20   15 ar
    21   21   10 1
    22   22   11 1
    23   23   22 ar
    24   24   23 ar
    25   25   24 ar
    26   26   25 ar
    27   27   22 ar
    28   28    3 1
    29   29    4 1
    30   30    8 1
    31   31    8 1
    32   32   12 1
    33   33   12 1
    34   34   13 1
    35   35   13 1
    36   36   13 1
    37   37   14 1
    38   38   14 1
    39   39   14 1
    40   40   16 1
    41   41   17 1
    42   42   18 1
    43   43   19 1
    44   44   20 1
    45   45   23 1
    46   46   24 1
    47   47   25 1
    48   48   26 1
    49   49   27 1
    50    8    9 1
    51   11   12 1
    52   19   20 ar
    53   26   27 ar
@<TRIPOS>SUBSTRUCTURE
     1 RES1 1

@<TRIPOS>CRYSIN
  12.0210   12.4590   13.0150  90.0000 104.7900  90.0000  14 1

