# MOL2 file generated by ConQuest
# Please check atom types

@<TRIPOS>MOLECULE
JEMFUD
    30    33     1
SMALL
NO_CHARGES
****
Generated from CSD

@<TRIPOS>ATOM
      1 N1        -1.6250   -1.8918   10.8040 N.am      1 RES1    0.0000
      2 C1        -1.6648   -3.0596    9.9338 C.3       1 RES1    0.0000
      3 C2        -0.6248   -4.0528   10.4343 C.3       1 RES1    0.0000
      4 N2        -0.4842   -3.9420   11.8883 N.am      1 RES1    0.0000
      5 C3        -1.6840   -3.5403   12.6121 C.3       1 RES1    0.0000
      6 C4        -2.1939   -2.1695   12.1145 C.3       1 RES1    0.0000
      7 O1         1.7402   -4.3432   11.7688 O.2       1 RES1    0.0000
      8 C5         0.7405   -4.0526   12.4079 C.2       1 RES1    0.0000
      9 C6         0.9279   -3.8114   13.8823 C.2       1 RES1    0.0000
     10 N3         1.1987   -4.7943   14.6907 N.2       1 RES1    0.0000
     11 O2         1.4999   -4.2065   15.9139 O.3       1 RES1    0.0000
     12 N4         1.4065   -2.8537   15.8472 N.2       1 RES1    0.0000
     13 C7         1.0591   -2.5976   14.6128 C.2       1 RES1    0.0000
     14 N5         0.7814   -1.2640   14.2588 N.2       1 RES1    0.0000
     15 N6         0.4665   -1.2028   13.0574 N.2       1 RES1    0.0000
     16 C8         0.0471    0.0701   12.6209 C.2       1 RES1    0.0000
     17 N7         0.2751    1.2060   13.2097 N.2       1 RES1    0.0000
     18 O3        -0.3165    2.1353   12.3998 O.3       1 RES1    0.0000
     19 N8        -0.9300    1.5377   11.2989 N.2       1 RES1    0.0000
     20 C9        -0.7116    0.2677   11.4314 C.2       1 RES1    0.0000
     21 C10       -1.1042   -0.7301   10.3735 C.2       1 RES1    0.0000
     22 O4        -0.8840   -0.4623    9.2036 O.2       1 RES1    0.0000
     23 H1        -1.5369   -2.7930    9.0358 H         1 RES1    0.0000
     24 H2        -2.5143   -3.4513    9.9848 H         1 RES1    0.0000
     25 H3        -0.9245   -4.9212   10.1988 H         1 RES1    0.0000
     26 H4         0.3007   -3.8251   10.0133 H         1 RES1    0.0000
     27 H5        -1.4980   -3.4886   13.5601 H         1 RES1    0.0000
     28 H6        -2.3681   -4.2316   12.4393 H         1 RES1    0.0000
     29 H7        -1.9665   -1.4406   12.7426 H         1 RES1    0.0000
     30 H8        -3.0991   -2.1817   12.0664 H         1 RES1    0.0000
@<TRIPOS>BOND
     1    1    2 1
     2    2    3 1
     3    3    4 1
     4    4    5 1
     5    5    6 1
     6    6    1 1
     7    7    8 2
     8    8    4 1
     9    9    8 1
    10   10    9 2
    11   11   10 1
    12   12   11 1
    13   13    9 1
    14   14   13 1
    15   15   14 2
    16   16   15 1
    17   17   16 2
    18   18   17 1
    19   19   18 1
    20   20   16 1
    21   21    1 1
    22   22   21 2
    23   23    2 1
    24   24    2 1
    25   25    3 1
    26   26    3 1
    27   27    5 1
    28   28    5 1
    29   29    6 1
    30   30    6 1
    31   12   13 2
    32   19   20 2
    33   20   21 1
@<TRIPOS>SUBSTRUCTURE
     1 RES1 1

@<TRIPOS>CRYSIN
   6.5170    9.3230   10.2030  92.0600 105.5700  93.4800   2 1

