# MOL2 file generated by ConQuest
# Please check atom types

@<TRIPOS>MOLECULE
JEMJUG
    13    13     1
SMALL
NO_CHARGES
****
Generated from CSD

@<TRIPOS>ATOM
      1 N1         0.3946    2.1871    0.8753 N.am      1 RES1    0.0000
      2 C1         1.1533    1.5832    1.8573 C.2       1 RES1    0.0000
      3 C2         2.0380    0.5840    1.3641 C.2       1 RES1    0.0000
      4 C3         2.1484    0.3102    0.0495 C.2       1 RES1    0.0000
      5 C4         1.3662    0.9914   -0.8896 C.2       1 RES1    0.0000
      6 C5         0.4921    1.9277   -0.4481 C.2       1 RES1    0.0000
      7 O1        -0.4624    3.2051    1.2584 O.3       1 RES1    0.0000
      8 O2         1.0357    1.9155    3.0585 O.2       1 RES1    0.0000
      9 H1         2.5305    0.0773    2.0368 H         1 RES1    0.0000
     10 H2         2.7424   -0.3643   -0.2312 H         1 RES1    0.0000
     11 H3         1.4641    0.7949   -1.8276 H         1 RES1    0.0000
     12 H4        -0.0985    2.4400   -0.9909 H         1 RES1    0.0000
     13 H5        -1.1707    2.7160    1.7836 H         1 RES1    0.0000
@<TRIPOS>BOND
     1    1    2 1
     2    2    3 1
     3    3    4 2
     4    4    5 1
     5    5    6 2
     6    6    1 1
     7    7    1 1
     8    8    2 2
     9    9    3 1
    10   10    4 1
    11   11    5 1
    12   12    6 1
    13   13    7 1
@<TRIPOS>SUBSTRUCTURE
     1 RES1 1

@<TRIPOS>CRYSIN
   8.3210   11.0405   11.3134  90.0000 103.3070  90.0000  15 1

