# MOL2 file generated by ConQuest
# Please check atom types

@<TRIPOS>MOLECULE
JEMSUP
    12    11     1
SMALL
NO_CHARGES
****
Generated from CSD

@<TRIPOS>ATOM
      1 O1         9.7065    2.6812    4.5148 O.3       1 RES1    0.0000
      2 O2         5.3130    2.9504    0.7990 O.3       1 RES1    0.0000
      3 N1         8.8024    3.2900    3.6002 N.2       1 RES1    0.0000
      4 N2         6.1530    2.2273    1.6374 N.2       1 RES1    0.0000
      5 N3         8.0984    1.0793    3.2456 N.3       1 RES1    0.0000
      6 C1         8.0560    2.4079    3.0283 C.2       1 RES1    0.0000
      7 C2         7.0814    2.9595    2.0835 C.2       1 RES1    0.0000
      8 H1         9.9771    3.3629    4.7963 H         1 RES1    0.0000
      9 H2         4.7064    2.3027    0.6293 H         1 RES1    0.0000
     10 H3         7.1301    3.8682    1.8709 H         1 RES1    0.0000
     11 H4         7.5533    0.5798    2.9041 H         1 RES1    0.0000
     12 H5         8.5664    0.7372    3.8736 H         1 RES1    0.0000
@<TRIPOS>BOND
     1    1    3 1
     2    2    4 1
     3    3    6 2
     4    4    7 2
     5    5    6 1
     6    6    7 1
     7    7   10 1
     8    8    1 1
     9    9    2 1
    10   11    5 1
    11   12    5 1
@<TRIPOS>SUBSTRUCTURE
     1 RES1 1

@<TRIPOS>CRYSIN
  12.8240    8.2830    4.2520  90.0000  90.0000  90.0000  19 1

