# MOL2 file generated by ConQuest
# Please check atom types

@<TRIPOS>MOLECULE
JENFIR
    64    68     2
SMALL
NO_CHARGES
****
Generated from CSD

@<TRIPOS>ATOM
      1 N1         8.5426   10.8542    7.6330 N.3       1 RES1    0.0000
      2 C1         7.9583   10.3514    6.5125 C.2       1 RES1    0.0000
      3 N2         7.6694   11.0099    5.4295 N.2       1 RES1    0.0000
      4 C2         8.0245   12.3321    5.5482 C.2       1 RES1    0.0000
      5 C3         8.5972   12.9574    6.6093 C.2       1 RES1    0.0000
      6 C4         8.9586   12.1857    7.7673 C.2       1 RES1    0.0000
      7 N3         8.8254   14.2882    6.3261 N.2       1 RES1    0.0000
      8 C5         8.3977   14.4255    5.0973 C.2       1 RES1    0.0000
      9 N4         7.9043   13.2749    4.5600 N.pl3     1 RES1    0.0000
     10 N5         9.6053   12.6697    8.7618 N.2       1 RES1    0.0000
     11 O1         9.8389   11.6364    9.7208 O.3       1 RES1    0.0000
     12 C6        10.6275   12.1814   10.7517 C.3       1 RES1    0.0000
     13 C7         7.3696   13.0842    3.2052 C.3       1 RES1    0.0000
     14 C8         5.9875   13.6529    3.0480 C.ar      1 RES1    0.0000
     15 C9         5.7972   14.8949    2.5127 C.ar      1 RES1    0.0000
     16 C10        4.5047   15.3939    2.3482 C.ar      1 RES1    0.0000
     17 C11        3.4295   14.6491    2.7543 C.ar      1 RES1    0.0000
     18 C12        3.6207   13.4345    3.2854 C.ar      1 RES1    0.0000
     19 C13        4.8956   12.9273    3.4333 C.ar      1 RES1    0.0000
     20 H1         8.7046   10.2539    8.3619 H         1 RES1    0.0000
     21 H2         7.7742    9.3643    6.6229 H         1 RES1    0.0000
     22 H3         8.4067   15.2740    4.5923 H         1 RES1    0.0000
     23 H4        10.7384   11.5374   11.4546 H         1 RES1    0.0000
     24 H5        11.5316   12.4023   10.3508 H         1 RES1    0.0000
     25 H6        10.1801   13.0402   11.1422 H         1 RES1    0.0000
     26 H7         7.4236   12.1490    2.9990 H         1 RES1    0.0000
     27 H8         8.0377   13.5587    2.5513 H         1 RES1    0.0000
     28 H9         6.5894   15.3575    2.1764 H         1 RES1    0.0000
     29 H10        4.2864   16.1768    1.9785 H         1 RES1    0.0000
     30 H11        2.5176   15.0216    2.6970 H         1 RES1    0.0000
     31 H12        2.8333   12.8064    3.5301 H         1 RES1    0.0000
     32 H13        5.0225   12.0464    3.9050 H         1 RES1    0.0000
     33 N6         9.8950    6.3736    2.3076 N.3       2 RES2    0.0000
     34 C14        9.2873    6.8571    1.1975 C.2       2 RES2    0.0000
     35 N7         9.0047    6.1984    0.1125 N.2       2 RES2    0.0000
     36 C15        9.4138    4.8962    0.2208 C.2       2 RES2    0.0000
     37 C16       10.0166    4.2807    1.2746 C.2       2 RES2    0.0000
     38 C17       10.3472    5.0556    2.4325 C.2       2 RES2    0.0000
     39 N8        10.2865    2.9551    0.9778 N.2       2 RES2    0.0000
     40 C18        9.8544    2.8162   -0.2499 C.2       2 RES2    0.0000
     41 N9         9.3174    3.9499   -0.7758 N.pl3     2 RES2    0.0000
     42 N10       11.0087    4.5763    3.4270 N.2       2 RES2    0.0000
     43 O2        11.2037    5.6035    4.4069 O.3       2 RES2    0.0000
     44 C19       12.0070    5.0458    5.4305 C.3       2 RES2    0.0000
     45 C20        8.7372    4.1133   -2.1035 C.3       2 RES2    0.0000
     46 C21        7.3631    3.5171   -2.2243 C.ar      2 RES2    0.0000
     47 C22        6.9821    2.8633   -3.3666 C.ar      2 RES2    0.0000
     48 C23        5.6924    2.3493   -3.4843 C.ar      2 RES2    0.0000
     49 C24        4.8024    2.4716   -2.4877 C.ar      2 RES2    0.0000
     50 C25        5.1608    3.1275   -1.3558 C.ar      2 RES2    0.0000
     51 C26        6.4349    3.6611   -1.2256 C.ar      2 RES2    0.0000
     52 H14       10.0564    6.9441    3.0094 H         2 RES2    0.0000
     53 H15        9.0505    7.7892    1.2496 H         2 RES2    0.0000
     54 H16        9.9072    1.9880   -0.7498 H         2 RES2    0.0000
     55 H17       12.1999    5.7159    6.0605 H         2 RES2    0.0000
     56 H18       12.8380    4.7106    5.1025 H         2 RES2    0.0000
     57 H19       11.4664    4.1607    5.8419 H         2 RES2    0.0000
     58 H20        8.7133    5.1194   -2.2493 H         2 RES2    0.0000
     59 H21        9.3441    3.6291   -2.7491 H         2 RES2    0.0000
     60 H22        7.7317    2.8235   -4.1653 H         2 RES2    0.0000
     61 H23        5.4660    1.8730   -4.4048 H         2 RES2    0.0000
     62 H24        3.9182    2.1138   -2.5304 H         2 RES2    0.0000
     63 H25        4.5602    3.1887   -0.5831 H         2 RES2    0.0000
     64 H26        6.6916    4.0588   -0.3749 H         2 RES2    0.0000
@<TRIPOS>BOND
     1    1    2 1
     2    2    3 2
     3    3    4 1
     4    4    5 2
     5    5    6 1
     6    6    1 1
     7    7    5 1
     8    8    7 2
     9    9    4 1
    10   10    6 2
    11   11   10 1
    12   12   11 1
    13   13    9 1
    14   14   13 1
    15   15   14 ar
    16   16   15 ar
    17   17   16 ar
    18   18   17 ar
    19   19   14 ar
    20   20    1 1
    21   21    2 1
    22   22    8 1
    23   23   12 1
    24   24   12 1
    25   25   12 1
    26   26   13 1
    27   27   13 1
    28   28   15 1
    29   29   16 1
    30   30   17 1
    31   31   18 1
    32   32   19 1
    33   33   34 1
    34   34   35 2
    35   35   36 1
    36   36   37 2
    37   37   38 1
    38   38   33 1
    39   39   37 1
    40   40   39 2
    41   41   36 1
    42   42   38 2
    43   43   42 1
    44   44   43 1
    45   45   41 1
    46   46   45 1
    47   47   46 ar
    48   48   47 ar
    49   49   48 ar
    50   50   49 ar
    51   51   46 ar
    52   52   33 1
    53   53   34 1
    54   54   40 1
    55   55   44 1
    56   56   44 1
    57   57   44 1
    58   58   45 1
    59   59   45 1
    60   60   47 1
    61   61   48 1
    62   62   49 1
    63   63   50 1
    64   64   51 1
    65    8    9 1
    66   18   19 ar
    67   40   41 1
    68   50   51 ar
@<TRIPOS>SUBSTRUCTURE
     1 RES1 1
     2 RES2 33

@<TRIPOS>CRYSIN
  11.0260   11.4150   10.7760  89.1700 104.8900  90.4900   2 1

