# MOL2 file generated by ConQuest
# Please check atom types

@<TRIPOS>MOLECULE
JENGUE
    29    30     1
SMALL
NO_CHARGES
****
Generated from CSD

@<TRIPOS>ATOM
      1 N1         4.5160   10.3359    7.3957 N.2       1 RES1    0.0000
      2 C1         5.0664   10.9448    8.3814 C.2       1 RES1    0.0000
      3 C2         6.2672   11.8021    8.2859 C.3       1 RES1    0.0000
      4 C3         7.2260   11.2211    7.2418 C.3       1 RES1    0.0000
      5 C4         6.4369   10.7708    6.0167 C.2       1 RES1    0.0000
      6 C5         5.1586   10.4419    6.1447 C.2       1 RES1    0.0000
      7 C6         8.0666   10.0949    7.8487 C.ar      1 RES1    0.0000
      8 C7         9.2868   10.3938    8.4329 C.ar      1 RES1    0.0000
      9 C8        10.0226    9.3817    9.0216 C.ar      1 RES1    0.0000
     10 N2        11.3246    9.6813    9.6179 N.pl3     1 RES1    0.0000
     11 O1        11.7599   10.8210    9.5020 O.2       1 RES1    0.0000
     12 O2        11.9080    8.8083   10.2187 O.2       1 RES1    0.0000
     13 C9         9.6110    8.0719    8.9996 C.ar      1 RES1    0.0000
     14 C10        8.4061    7.7827    8.4208 C.ar      1 RES1    0.0000
     15 C11        7.6440    8.7726    7.8434 C.ar      1 RES1    0.0000
     16 O3         4.5835   10.8295    9.6247 O.3       1 RES1    0.0000
     17 C12        3.3776   10.0375    9.7793 C.3       1 RES1    0.0000
     18 C13        2.9928   10.0057   11.1764 C.3       1 RES1    0.0000
     19 C14        5.8872   13.2245    7.9488 C.2       1 RES1    0.0000
     20 O4         6.5602   13.9828    7.3138 O.2       1 RES1    0.0000
     21 O5         4.7297   13.5415    8.4685 O.3       1 RES1    0.0000
     22 C15        4.2482   14.9125    8.2549 C.3       1 RES1    0.0000
     23 C16        3.0449   15.0988    9.0769 C.3       1 RES1    0.0000
     24 C17        7.1345   10.6699    4.7241 C.2       1 RES1    0.0000
     25 O6         6.6529   10.2716    3.6868 O.2       1 RES1    0.0000
     26 O7         8.4060   11.0448    4.8029 O.3       1 RES1    0.0000
     27 C18        9.1441   10.9483    3.5671 C.3       1 RES1    0.0000
     28 C19       10.4962   11.5055    3.7899 C.3       1 RES1    0.0000
     29 C20        4.2181   10.0514    5.0567 C.3       1 RES1    0.0000
@<TRIPOS>BOND
     1    1    2 2
     2    2    3 1
     3    3    4 1
     4    4    5 1
     5    5    6 2
     6    6    1 1
     7    7    4 1
     8    8    7 ar
     9    9    8 ar
    10   10    9 1
    11   11   10 2
    12   12   10 2
    13   13    9 ar
    14   14   13 ar
    15   15    7 ar
    16   16    2 1
    17   17   16 1
    18   18   17 1
    19   19    3 1
    20   20   19 2
    21   21   19 1
    22   22   21 1
    23   23   22 1
    24   24    5 1
    25   25   24 2
    26   26   24 1
    27   27   26 1
    28   28   27 1
    29   29    6 1
    30   14   15 ar
@<TRIPOS>SUBSTRUCTURE
     1 RES1 1

@<TRIPOS>CRYSIN
  11.9600   12.2400    8.0490  75.4800  83.3800 112.0500   2 1

