# MOL2 file generated by ConQuest
# Please check atom types

@<TRIPOS>MOLECULE
JENHEP
    25    25     1
SMALL
NO_CHARGES
****
Generated from CSD

@<TRIPOS>ATOM
      1 C1         2.9578    6.5991    4.1115 C.2       1 RES1    0.0000
      2 C2         3.3373    5.1638    4.1426 C.3       1 RES1    0.0000
      3 C3         4.2400    5.0245    5.3522 C.3       1 RES1    0.0000
      4 C4         4.6985    6.3896    5.6832 C.3       1 RES1    0.0000
      5 C5         3.6354    7.3309    5.2416 C.3       1 RES1    0.0000
      6 N1         2.1881    7.2021    3.2998 N.2       1 RES1    0.0000
      7 O1         1.7009    6.2850    2.3171 O.3       1 RES1    0.0000
      8 C6         0.7829    6.9707    1.4710 C.3       1 RES1    0.0000
      9 C7        -0.5745    7.1231    2.1245 C.3       1 RES1    0.0000
     10 C8        -1.3211    5.8319    2.2512 C.2       1 RES1    0.0000
     11 O2        -1.1557    4.8897    1.4785 O.2       1 RES1    0.0000
     12 O3        -2.1725    5.7870    3.2381 O.3       1 RES1    0.0000
     13 H1        -2.6576    4.9285    3.1915 H         1 RES1    0.0000
     14 H2         3.7828    4.9243    3.2390 H         1 RES1    0.0000
     15 H3         2.5611    4.4558    4.0013 H         1 RES1    0.0000
     16 H4         5.0609    4.3625    5.3084 H         1 RES1    0.0000
     17 H5         3.6726    4.5788    6.2181 H         1 RES1    0.0000
     18 H6         4.8497    6.4784    6.7488 H         1 RES1    0.0000
     19 H7         5.6229    6.6054    5.1691 H         1 RES1    0.0000
     20 H8         2.9388    7.5313    6.0420 H         1 RES1    0.0000
     21 H9         4.0636    8.2607    4.8964 H         1 RES1    0.0000
     22 H10        1.1840    7.8551    1.2252 H         1 RES1    0.0000
     23 H11        0.7944    6.4921    0.7020 H         1 RES1    0.0000
     24 H12       -1.0336    7.6853    1.6207 H         1 RES1    0.0000
     25 H13       -0.4595    7.5485    2.9108 H         1 RES1    0.0000
@<TRIPOS>BOND
     1    1    2 1
     2    2    3 1
     3    3    4 1
     4    4    5 1
     5    5    1 1
     6    6    1 2
     7    7    6 1
     8    8    7 1
     9    9    8 1
    10   10    9 1
    11   11   10 2
    12   12   10 1
    13   13   12 1
    14   14    2 1
    15   15    2 1
    16   16    3 1
    17   17    3 1
    18   18    4 1
    19   19    4 1
    20   20    5 1
    21   21    5 1
    22   22    8 1
    23   23    8 1
    24   24    9 1
    25   25    9 1
@<TRIPOS>SUBSTRUCTURE
     1 RES1 1

@<TRIPOS>CRYSIN
  10.1510   10.1910    4.9290  97.4100 101.5400 111.5700   2 1

