# MOL2 file generated by ConQuest
# Please check atom types

@<TRIPOS>MOLECULE
JENNUL
    32    34     2
SMALL
NO_CHARGES
****
Generated from CSD

@<TRIPOS>ATOM
      1 C1         1.0405   -3.5762    7.6990 C.ar      1 RES1    0.0000
      2 C2        -0.0074   -4.1178    6.9545 C.ar      1 RES1    0.0000
      3 C3         0.0967   -4.2168    5.5636 C.ar      1 RES1    0.0000
      4 C4         1.2131   -3.7586    4.9211 C.ar      1 RES1    0.0000
      5 C5         2.2481   -3.2247    5.6503 C.ar      1 RES1    0.0000
      6 C6         2.1656   -3.1468    7.0208 C.ar      1 RES1    0.0000
      7 C7         0.9337   -3.4936    9.1652 C.2       1 RES1    0.0000
      8 C8         2.0868   -3.9604   10.0346 C.3       1 RES1    0.0000
      9 C9         1.9999   -5.3748   10.4796 C.ar      1 RES1    0.0000
     10 N1         3.0474   -5.7957   11.2088 N.ar      1 RES1    0.0000
     11 C10        3.0352   -7.0784   11.6423 C.ar      1 RES1    0.0000
     12 C11        2.0199   -7.9707   11.3465 C.ar      1 RES1    0.0000
     13 C12        0.9622   -7.5140   10.5930 C.ar      1 RES1    0.0000
     14 C13        0.9450   -6.2102   10.1557 C.ar      1 RES1    0.0000
     15 N2        -0.1812   -3.0463    9.6228 N.2       1 RES1    0.0000
     16 O1        -0.2251   -3.0439   11.0405 O.3       1 RES1    0.0000
     17 C14        3.9997    0.0709    4.8956 C.ar      2 RES2    0.0000
     18 C15        2.9352    0.7419    5.4603 C.ar      2 RES2    0.0000
     19 C16        2.8247    0.8674    6.8423 C.ar      2 RES2    0.0000
     20 C17        3.7518    0.2891    7.6735 C.ar      2 RES2    0.0000
     21 C18        4.8123   -0.3772    7.1215 C.ar      2 RES2    0.0000
     22 C19        4.9484   -0.5019    5.7497 C.ar      2 RES2    0.0000
     23 C20        4.1276   -0.0577    3.4409 C.2       2 RES2    0.0000
     24 C21        2.9938    0.3289    2.5294 C.3       2 RES2    0.0000
     25 C22        3.0186    1.7978    2.0959 C.ar      2 RES2    0.0000
     26 N3         1.8678    2.2132    1.4661 N.ar      2 RES2    0.0000
     27 C23        1.8879    3.4663    1.0352 C.ar      2 RES2    0.0000
     28 C24        2.8866    4.3617    1.2328 C.ar      2 RES2    0.0000
     29 C25        4.0120    3.9316    1.8894 C.ar      2 RES2    0.0000
     30 C26        4.0938    2.6262    2.3126 C.ar      2 RES2    0.0000
     31 N4         5.2368   -0.5019    3.0036 N.2       2 RES2    0.0000
     32 O2         5.3256   -0.5751    1.6000 O.3       2 RES2    0.0000
@<TRIPOS>BOND
     1    1    2 ar
     2    2    3 ar
     3    3    4 ar
     4    4    5 ar
     5    5    6 ar
     6    6    1 ar
     7    7    1 1
     8    8    7 1
     9    9    8 1
    10   10    9 ar
    11   11   10 ar
    12   12   11 ar
    13   13   12 ar
    14   14    9 ar
    15   15    7 2
    16   16   15 1
    17   17   18 ar
    18   18   19 ar
    19   19   20 ar
    20   20   21 ar
    21   21   22 ar
    22   22   17 ar
    23   23   17 1
    24   24   23 1
    25   25   24 1
    26   26   25 ar
    27   27   26 ar
    28   28   27 ar
    29   29   28 ar
    30   30   25 ar
    31   31   23 2
    32   32   31 1
    33   13   14 ar
    34   29   30 ar
@<TRIPOS>SUBSTRUCTURE
     1 RES1 1
     2 RES2 17

@<TRIPOS>CRYSIN
  11.4010    7.7930   12.7660  90.0000  92.9700  90.0000   4 1

