# MOL2 file generated by ConQuest
# Please check atom types

@<TRIPOS>MOLECULE
JEPBUB
    54    56     1
SMALL
NO_CHARGES
****
Generated from CSD

@<TRIPOS>ATOM
      1 C1        -0.5999    1.0240    6.8645 C.3       1 RES1    0.0000
      2 C2         0.8813    1.1930    6.8780 C.3       1 RES1    0.0000
      3 O1         1.2810    2.1612    7.9339 O.3       1 RES1    0.0000
      4 C3         1.3262    1.7427    5.5337 C.2       1 RES1    0.0000
      5 C4         0.0233    1.9289    4.7320 C.3       1 RES1    0.0000
      6 C5         0.0018    1.8822    3.1775 C.3       1 RES1    0.0000
      7 C6        -1.4497    1.8724    2.7204 C.3       1 RES1    0.0000
      8 C7        -2.3818    0.8159    3.3877 C.3       1 RES1    0.0000
      9 C8        -2.3083    0.9456    4.8664 C.2       1 RES1    0.0000
     10 C9        -0.8755    0.8468    5.3699 C.3       1 RES1    0.0000
     11 C10       -3.3614    1.0972    5.6571 C.2       1 RES1    0.0000
     12 C11        0.8339    2.9982    2.4882 C.3       1 RES1    0.0000
     13 C12        0.4564    4.4378    2.9428 C.3       1 RES1    0.0000
     14 C13        0.7637    2.9198    0.9422 C.3       1 RES1    0.0000
     15 C14        2.5910    1.8807    5.1634 C.2       1 RES1    0.0000
     16 C15        3.7801    1.5873    6.0763 C.3       1 RES1    0.0000
     17 C16        1.6521    1.6529    9.1059 C.2       1 RES1    0.0000
     18 O2         1.7487    0.4690    9.3478 O.2       1 RES1    0.0000
     19 C17        1.9579    2.7154   10.1275 C.ar      1 RES1    0.0000
     20 C18        1.8065    4.0705    9.8416 C.ar      1 RES1    0.0000
     21 C19        2.0611    5.0410   10.8070 C.ar      1 RES1    0.0000
     22 C20        2.4402    4.5916   12.0609 C.ar      1 RES1    0.0000
     23 N1         2.6926    5.6096   13.1082 N.pl3     1 RES1    0.0000
     24 O3         2.5373    6.7769   12.8430 O.2       1 RES1    0.0000
     25 O4         3.0569    5.2054   14.2069 O.2       1 RES1    0.0000
     26 C21        2.5813    3.2486   12.3725 C.ar      1 RES1    0.0000
     27 C22        2.3299    2.3045   11.3961 C.ar      1 RES1    0.0000
     28 H1        -0.9064    0.1455    7.4328 H         1 RES1    0.0000
     29 H2        -1.1035    1.9063    7.2605 H         1 RES1    0.0000
     30 H3         1.3435    0.2255    7.0759 H         1 RES1    0.0000
     31 H4        -0.2851    2.9711    4.8114 H         1 RES1    0.0000
     32 H5         0.5057    0.9690    2.8597 H         1 RES1    0.0000
     33 H6        -1.8706    2.8572    2.9220 H         1 RES1    0.0000
     34 H7        -1.4567    1.6876    1.6462 H         1 RES1    0.0000
     35 H8        -2.0627   -0.1840    3.0956 H         1 RES1    0.0000
     36 H9        -3.4083    0.9795    3.0601 H         1 RES1    0.0000
     37 H10       -0.6640   -0.1870    5.0974 H         1 RES1    0.0000
     38 H11       -4.3628    1.1311    5.2306 H         1 RES1    0.0000
     39 H12       -3.2244    1.1862    6.7350 H         1 RES1    0.0000
     40 H13        1.7582    2.8120    3.0589 H         1 RES1    0.0000
     41 H14        0.5506    4.5147    4.0256 H         1 RES1    0.0000
     42 H15       -0.5724    4.6489    2.6520 H         1 RES1    0.0000
     43 H16        1.1233    5.1572    2.4674 H         1 RES1    0.0000
     44 H17        0.8402    1.8777    0.6306 H         1 RES1    0.0000
     45 H18        1.5873    3.4891    0.5084 H         1 RES1    0.0000
     46 H19       -0.1844    3.3338    0.6001 H         1 RES1    0.0000
     47 H20        2.7939    2.2230    4.1478 H         1 RES1    0.0000
     48 H21        4.7065    1.7811    5.5361 H         1 RES1    0.0000
     49 H22        3.7529    0.5429    6.3867 H         1 RES1    0.0000
     50 H23        3.7320    2.2291    6.9550 H         1 RES1    0.0000
     51 H24        1.4847    4.3752    8.8455 H         1 RES1    0.0000
     52 H25        1.9642    6.1043   10.5858 H         1 RES1    0.0000
     53 H26        2.8874    2.9417   13.3734 H         1 RES1    0.0000
     54 H27        2.4210    1.2420   11.6234 H         1 RES1    0.0000
@<TRIPOS>BOND
     1    1    2 1
     2    2    3 1
     3    3   17 1
     4    4    2 1
     5    5    4 1
     6    6    5 1
     7    7    6 1
     8    8    7 1
     9    9    8 1
    10   10    1 1
    11   11    9 2
    12   12    6 1
    13   13   12 1
    14   14   12 1
    15   15    4 2
    16   16   15 1
    17   17   18 2
    18   19   17 1
    19   20   19 ar
    20   21   20 ar
    21   22   21 ar
    22   23   22 1
    23   24   23 2
    24   25   23 2
    25   26   22 ar
    26   27   19 ar
    27   28    1 1
    28   29    1 1
    29   30    2 1
    30   31    5 1
    31   32    6 1
    32   33    7 1
    33   34    7 1
    34   35    8 1
    35   36    8 1
    36   37   10 1
    37   38   11 1
    38   39   11 1
    39   40   12 1
    40   41   13 1
    41   42   13 1
    42   43   13 1
    43   44   14 1
    44   45   14 1
    45   46   14 1
    46   47   15 1
    47   48   16 1
    48   49   16 1
    49   50   16 1
    50   51   20 1
    51   52   21 1
    52   53   26 1
    53   54   27 1
    54    5   10 1
    55    9   10 1
    56   26   27 ar
@<TRIPOS>SUBSTRUCTURE
     1 RES1 1

@<TRIPOS>CRYSIN
  11.3314    7.5408   13.1701  90.0000 111.8850  90.0000   4 1

