# MOL2 file generated by ConQuest
# Please check atom types

@<TRIPOS>MOLECULE
JEPJOE
    48    49     1
SMALL
NO_CHARGES
****
Generated from CSD

@<TRIPOS>ATOM
      1 O1         0.6344   10.8023    2.8641 O.2       1 RES1    0.0000
      2 O2         1.2188   10.3023    0.8429 O.2       1 RES1    0.0000
      3 O3         1.7437    7.6532    1.5550 O.3       1 RES1    0.0000
      4 O4        -2.0802   10.2536    2.4049 O.3       1 RES1    0.0000
      5 O5         2.0803    7.8024    6.0620 O.3       1 RES1    0.0000
      6 O6         4.5573    6.8688    6.3327 O.3       1 RES1    0.0000
      7 O7         5.4870    4.8983    4.7743 O.3       1 RES1    0.0000
      8 N1         0.5940   10.0811    1.8728 N.pl3     1 RES1    0.0000
      9 C1        -0.3738    6.4787    1.7857 C.ar      1 RES1    0.0000
     10 C2         0.3822    7.6556    1.7288 C.ar      1 RES1    0.0000
     11 C3        -0.2320    8.8771    1.9392 C.ar      1 RES1    0.0000
     12 C4        -1.6076    9.0038    2.1883 C.ar      1 RES1    0.0000
     13 C5        -2.3702    7.8474    2.1550 C.ar      1 RES1    0.0000
     14 H1        -3.3118    7.8938    2.2770 H         1 RES1    0.0000
     15 C6        -1.7567    6.6265    1.9443 C.ar      1 RES1    0.0000
     16 H2        -2.3010    5.8497    1.9046 H         1 RES1    0.0000
     17 C7         0.1956    5.1258    1.6952 C.2       1 RES1    0.0000
     18 H3        -0.2195    4.5446    1.0685 H         1 RES1    0.0000
     19 C8         1.2209    4.6056    2.3771 C.2       1 RES1    0.0000
     20 H4         1.4445    3.7098    2.1509 H         1 RES1    0.0000
     21 C9         2.0564    5.2155    3.4298 C.ar      1 RES1    0.0000
     22 C10        1.5832    6.2286    4.2641 C.ar      1 RES1    0.0000
     23 H5         0.6871    6.5330    4.1839 H         1 RES1    0.0000
     24 C11        2.4267    6.7887    5.2110 C.ar      1 RES1    0.0000
     25 C12        3.7345    6.3213    5.3614 C.ar      1 RES1    0.0000
     26 C13        4.1956    5.2836    4.5605 C.ar      1 RES1    0.0000
     27 C14        3.3567    4.7303    3.5977 C.ar      1 RES1    0.0000
     28 H6         3.6698    4.0187    3.0517 H         1 RES1    0.0000
     29 C15        2.1722    7.2236    0.2480 C.3       1 RES1    0.0000
     30 H7         1.8652    6.3079    0.0879 H         1 RES1    0.0000
     31 H8         3.1505    7.2523    0.1989 H         1 RES1    0.0000
     32 H9         1.7932    7.8181   -0.4325 H         1 RES1    0.0000
     33 C16       -3.4992   10.4047    2.5474 C.3       1 RES1    0.0000
     34 H10       -3.9441   10.1014    1.7288 H         1 RES1    0.0000
     35 H11       -3.7125   11.3487    2.7060 H         1 RES1    0.0000
     36 H12       -3.8105    9.8683    3.3062 H         1 RES1    0.0000
     37 C17        0.7711    8.3417    5.9278 C.3       1 RES1    0.0000
     38 H13        0.6744    8.7466    5.0408 H         1 RES1    0.0000
     39 H14        0.6272    9.0235    6.6169 H         1 RES1    0.0000
     40 H15        0.1106    7.6249    6.0341 H         1 RES1    0.0000
     41 C18        5.0419    8.1650    5.9641 C.3       1 RES1    0.0000
     42 H16        5.5750    8.0931    5.1448 H         1 RES1    0.0000
     43 H17        5.5995    8.5234    6.6863 H         1 RES1    0.0000
     44 H18        4.2833    8.7665    5.8086 H         1 RES1    0.0000
     45 C19        5.8848    3.6441    4.2025 C.3       1 RES1    0.0000
     46 H19        5.2822    2.9368    4.5146 H         1 RES1    0.0000
     47 H20        6.8020    3.4369    4.4764 H         1 RES1    0.0000
     48 H21        5.8410    3.7019    3.2252 H         1 RES1    0.0000
@<TRIPOS>BOND
     1    1    8 2
     2    2    8 2
     3    3   10 1
     4    4   12 1
     5    5   24 1
     6    6   25 1
     7    7   26 1
     8    8   11 1
     9    9   10 ar
    10   10   11 ar
    11   11   12 ar
    12   12   13 ar
    13   13   14 1
    14   15    9 ar
    15   16   15 1
    16   17    9 1
    17   18   17 1
    18   19   17 2
    19   20   19 1
    20   21   19 1
    21   22   21 ar
    22   23   22 1
    23   24   22 ar
    24   25   24 ar
    25   26   25 ar
    26   27   21 ar
    27   28   27 1
    28   29    3 1
    29   30   29 1
    30   31   29 1
    31   32   29 1
    32   33    4 1
    33   34   33 1
    34   35   33 1
    35   36   33 1
    36   37    5 1
    37   38   37 1
    38   39   37 1
    39   40   37 1
    40   41    6 1
    41   42   41 1
    42   43   41 1
    43   44   41 1
    44   45    7 1
    45   46   45 1
    46   47   45 1
    47   48   45 1
    48   13   15 ar
    49   26   27 ar
@<TRIPOS>SUBSTRUCTURE
     1 RES1 1

@<TRIPOS>CRYSIN
   7.7311   19.9239   11.5725  90.0000  92.1930  90.0000  14 1

