# MOL2 file generated by ConQuest
# Please check atom types

@<TRIPOS>MOLECULE
JEQWEI
    58    62     2
SMALL
NO_CHARGES
****
Generated from CSD

@<TRIPOS>ATOM
      1 N1         0.0670    8.4006    2.0724 N.3       1 RES1    0.0000
      2 C1        -1.1354    9.6557    3.8211 C.ar      1 RES1    0.0000
      3 C2        -1.5256   11.9310    5.3093 C.ar      1 RES1    0.0000
      4 C3        -0.0580    8.6818    0.7502 C.ar      1 RES1    0.0000
      5 N2        -1.7681   13.0636    6.2058 N.pl3     1 RES1    0.0000
      6 N3         2.0906    8.3077    1.3039 N.2       1 RES1    0.0000
      7 C4        -0.2899   11.3163    5.3379 C.ar      1 RES1    0.0000
      8 H1         0.4255   11.6955    5.8534 H         1 RES1    0.0000
      9 N4         1.3676    8.1808    2.3853 N.2       1 RES1    0.0000
     10 C5        -1.1547    8.9592   -0.0663 C.ar      1 RES1    0.0000
     11 H2        -2.0338    8.9995    0.3170 H         1 RES1    0.0000
     12 C6        -0.1031   10.1721    4.5957 C.ar      1 RES1    0.0000
     13 H3         0.7480    9.7278    4.6233 H         1 RES1    0.0000
     14 C7         1.2411    8.6163    0.2620 C.ar      1 RES1    0.0000
     15 O1        -2.8704   13.5820    6.2042 O.2       1 RES1    0.0000
     16 O2        -0.8640   13.4095    6.9523 O.2       1 RES1    0.0000
     17 C8        -0.9631    8.3481    3.1010 C.3       1 RES1    0.0000
     18 H4        -1.8045    8.1141    2.7017 H         1 RES1    0.0000
     19 H5        -0.7234    7.6851    3.7531 H         1 RES1    0.0000
     20 C9        -2.3432   10.3251    3.7765 C.ar      1 RES1    0.0000
     21 H6        -3.0564    9.9949    3.2248 H         1 RES1    0.0000
     22 C10       -2.5472   11.4645    4.5197 C.ar      1 RES1    0.0000
     23 H7        -3.3800   11.9401    4.4902 H         1 RES1    0.0000
     24 C11        0.4298    9.0941   -1.9012 C.ar      1 RES1    0.0000
     25 H8         0.5941    9.2580   -2.8335 H         1 RES1    0.0000
     26 C12       -0.8772    9.1647   -1.3917 C.ar      1 RES1    0.0000
     27 H9        -1.5872    9.3376   -2.0142 H         1 RES1    0.0000
     28 C13        1.4994    8.8193   -1.1035 C.ar      1 RES1    0.0000
     29 H10        2.4014    8.7672   -1.4285 H         1 RES1    0.0000
     30 N5         1.3028    1.8051    4.3059 N.3       2 RES2    0.0000
     31 C14        2.8866    1.1631    2.5056 C.ar      2 RES2    0.0000
     32 C15        1.4464    3.1255    4.5818 C.ar      2 RES2    0.0000
     33 C16        4.0075    1.6459    0.0430 C.ar      2 RES2    0.0000
     34 N6         4.6071    1.8881   -1.2784 N.pl3     2 RES2    0.0000
     35 C17        2.7134    2.0579    0.2743 C.ar      2 RES2    0.0000
     36 H11        2.2167    2.4987   -0.4188 H         2 RES2    0.0000
     37 C18        2.1670    1.8092    1.5254 C.ar      2 RES2    0.0000
     38 H12        1.2702    2.0906    1.7207 H         2 RES2    0.0000
     39 C19       -0.0508    4.8511    5.3858 C.ar      2 RES2    0.0000
     40 H13       -0.9223    5.1092    5.6943 H         2 RES2    0.0000
     41 C20        0.1808    3.5288    4.9938 C.ar      2 RES2    0.0000
     42 C21        1.0056    5.7106    5.2998 C.ar      2 RES2    0.0000
     43 H14        0.8850    6.6288    5.5547 H         2 RES2    0.0000
     44 N7         0.0283    1.4163    4.5391 N.2       2 RES2    0.0000
     45 C22        4.7470    0.9912    0.9947 C.ar      2 RES2    0.0000
     46 H15        5.6434    0.7123    0.7945 H         2 RES2    0.0000
     47 O3         3.9181    2.3939   -2.1406 O.2       2 RES2    0.0000
     48 C23        4.1762    0.7499    2.2280 C.ar      2 RES2    0.0000
     49 H16        4.6819    0.2771    2.8935 H         2 RES2    0.0000
     50 C24        2.5224    3.9950    4.5096 C.ar      2 RES2    0.0000
     51 H17        3.3832    3.6754    4.2293 H         2 RES2    0.0000
     52 N8        -0.6616    2.4447    4.9506 N.2       2 RES2    0.0000
     53 C25        2.3066    0.8539    3.8785 C.3       2 RES2    0.0000
     54 H18        3.0283    0.8453    4.5111 H         2 RES2    0.0000
     55 H19        1.9137   -0.0198    3.8288 H         2 RES2    0.0000
     56 C26        2.2730    5.2864    4.8542 C.ar      2 RES2    0.0000
     57 H20        2.9940    5.9156    4.7837 H         2 RES2    0.0000
     58 O4         5.7558    1.5433   -1.4715 O.2       2 RES2    0.0000
@<TRIPOS>BOND
     1    1    4 1
     2    2   12 ar
     3    3    5 1
     4    4   10 ar
     5    5   15 2
     6    6    9 2
     7    7    3 ar
     8    8    7 1
     9    9    1 1
    10   10   11 1
    11   12    7 ar
    12   13   12 1
    13   14    4 ar
    14   16    5 2
    15   17    1 1
    16   18   17 1
    17   19   17 1
    18   20    2 ar
    19   21   20 1
    20   22    3 ar
    21   23   22 1
    22   24   25 1
    23   26   10 ar
    24   27   26 1
    25   28   14 ar
    26   29   28 1
    27   30   32 1
    28   31   37 ar
    29   32   41 ar
    30   33   34 1
    31   34   47 2
    32   35   33 ar
    33   36   35 1
    34   37   35 ar
    35   38   37 1
    36   39   40 1
    37   41   39 ar
    38   42   39 ar
    39   43   42 1
    40   44   30 1
    41   45   33 ar
    42   46   45 1
    43   48   31 ar
    44   49   48 1
    45   50   32 ar
    46   51   50 1
    47   52   41 1
    48   53   30 1
    49   54   53 1
    50   55   53 1
    51   56   42 ar
    52   57   56 1
    53   58   34 2
    54    2   17 1
    55    6   14 1
    56   20   22 ar
    57   24   26 ar
    58   24   28 ar
    59   31   53 1
    60   44   52 2
    61   45   48 ar
    62   50   56 ar
@<TRIPOS>SUBSTRUCTURE
     1 RES1 1
     2 RES2 30

@<TRIPOS>CRYSIN
   6.4140   14.1490   14.8590 116.3820  98.5870  93.6840   2 1

