# MOL2 file generated by ConQuest
# Please check atom types

@<TRIPOS>MOLECULE
JEQZIR
    36    37     1
SMALL
NO_CHARGES
****
Generated from CSD

@<TRIPOS>ATOM
      1 N1        -0.5914    2.8699    3.1904 N.pl3     1 RES1    0.0000
      2 O1        -1.7982    2.1727    3.2052 O.3       1 RES1    0.0000
      3 H1        -1.7258    1.4866    3.7935 H         1 RES1    0.0000
      4 C1         0.3472    2.7683    2.2074 C.2       1 RES1    0.0000
      5 C2         1.2909    3.7511    2.4212 C.2       1 RES1    0.0000
      6 C3         0.8754    4.4999    3.5880 C.ar      1 RES1    0.0000
      7 C4         1.3763    5.6035    4.2822 C.ar      1 RES1    0.0000
      8 H2         2.1958    6.0080    4.0233 H         1 RES1    0.0000
      9 C5         0.6557    6.0946    5.3529 C.ar      1 RES1    0.0000
     10 H3         0.9793    6.8558    5.8200 H         1 RES1    0.0000
     11 C6        -0.5483    5.4923    5.7673 C.ar      1 RES1    0.0000
     12 H4        -1.0129    5.8531    6.5128 H         1 RES1    0.0000
     13 C7        -1.0650    4.4029    5.1250 C.ar      1 RES1    0.0000
     14 H5        -1.8769    3.9963    5.4036 H         1 RES1    0.0000
     15 C8        -0.3316    3.9160    4.0319 C.ar      1 RES1    0.0000
     16 C9         2.4918    3.9385    1.6057 C.2       1 RES1    0.0000
     17 O2         2.9143    3.1691    0.7615 O.2       1 RES1    0.0000
     18 C10        4.3102    5.4296    1.1801 C.3       1 RES1    0.0000
     19 H6         4.1437    5.5258    0.2090 H         1 RES1    0.0000
     20 H7         4.9788    4.7125    1.3177 H         1 RES1    0.0000
     21 O3         3.0713    5.1145    1.8827 O.3       1 RES1    0.0000
     22 C11        4.7963    6.7110    1.7544 C.3       1 RES1    0.0000
     23 H8         4.1619    7.4266    1.5393 H         1 RES1    0.0000
     24 H9         5.6734    6.9273    1.3747 H         1 RES1    0.0000
     25 H10        4.8735    6.6245    2.7273 H         1 RES1    0.0000
     26 C12        0.2014    1.7670    1.1016 C.3       1 RES1    0.0000
     27 H11        0.6531    2.1055    0.2881 H         1 RES1    0.0000
     28 H12       -0.7584    1.6450    0.8909 H         1 RES1    0.0000
     29 C13        0.8024    0.4398    1.4963 C.2       1 RES1    0.0000
     30 O4         0.0854   -0.5016    1.8399 O.2       1 RES1    0.0000
     31 N2         2.1400    0.3587    1.4683 N.am      1 RES1    0.0000
     32 H13        2.5965    1.0623    1.2025 H         1 RES1    0.0000
     33 C14        2.8716   -0.8339    1.8568 C.3       1 RES1    0.0000
     34 H14        2.6903   -1.0365    2.7982 H         1 RES1    0.0000
     35 H15        3.8320   -0.6821    1.7341 H         1 RES1    0.0000
     36 H16        2.5864   -1.5879    1.2994 H         1 RES1    0.0000
@<TRIPOS>BOND
     1    1    2 1
     2    2    3 1
     3    4    1 1
     4    5    4 2
     5    6    5 1
     6    7    6 ar
     7    8    7 1
     8    9    7 ar
     9   10    9 1
    10   11    9 ar
    11   12   11 1
    12   13   11 ar
    13   14   13 1
    14   15    1 1
    15   16    5 1
    16   17   16 2
    17   18   19 1
    18   20   18 1
    19   21   16 1
    20   22   18 1
    21   23   22 1
    22   24   22 1
    23   25   22 1
    24   26    4 1
    25   27   26 1
    26   28   26 1
    27   29   26 1
    28   30   29 2
    29   31   29 1
    30   32   31 1
    31   33   31 1
    32   34   33 1
    33   35   33 1
    34   36   33 1
    35    6   15 ar
    36   13   15 ar
    37   18   21 1
@<TRIPOS>SUBSTRUCTURE
     1 RES1 1

@<TRIPOS>CRYSIN
   6.2144   30.7140    7.1614  90.0000 101.7260  90.0000  14 1

