# MOL2 file generated by ConQuest
# Please check atom types

@<TRIPOS>MOLECULE
JERHOE
    84    88     2
SMALL
NO_CHARGES
****
Generated from CSD

@<TRIPOS>ATOM
      1 O1         2.4950   10.7226   11.5010 O.2       1 RES1    0.0000
      2 O2         3.7720   10.4447    9.8150 O.2       1 RES1    0.0000
      3 N1         2.8683   10.0869   10.5337 N.pl3     1 RES1    0.0000
      4 C1         4.5387    6.3731   11.0356 C.ar      1 RES1    0.0000
      5 H1         4.0633    5.8189   10.4596 H         1 RES1    0.0000
      6 C2         5.8514    6.0785   11.3208 C.ar      1 RES1    0.0000
      7 H2         6.2510    5.3263   10.9463 H         1 RES1    0.0000
      8 C3         6.5684    6.8898   12.1541 C.ar      1 RES1    0.0000
      9 H3         7.4555    6.6896   12.3502 H         1 RES1    0.0000
     10 C4         5.9769    7.9976   12.6993 C.ar      1 RES1    0.0000
     11 H4         6.4668    8.5564   13.2591 H         1 RES1    0.0000
     12 C5         4.6540    8.2896   12.4219 C.ar      1 RES1    0.0000
     13 H5         4.2597    9.0417   12.8012 H         1 RES1    0.0000
     14 C6         3.9104    7.4736   11.5843 C.ar      1 RES1    0.0000
     15 C7         2.4435    7.7286   11.2975 C.3       1 RES1    0.0000
     16 H6         2.1085    6.8909   10.9161 H         1 RES1    0.0000
     17 C8         1.6023    7.9614   12.5466 C.3       1 RES1    0.0000
     18 H7         1.7260    7.2181   13.1573 H         1 RES1    0.0000
     19 H8         1.9081    8.7675   12.9910 H         1 RES1    0.0000
     20 C9         0.1247    8.1000   12.2212 C.3       1 RES1    0.0000
     21 H9        -0.2037    7.2612   11.8621 H         1 RES1    0.0000
     22 H10       -0.3661    8.2886   13.0363 H         1 RES1    0.0000
     23 C10       -0.1303    9.2072   11.2172 C.3       1 RES1    0.0000
     24 H11        0.0923   10.0623   11.6173 H         1 RES1    0.0000
     25 H12       -1.0723    9.2213   10.9862 H         1 RES1    0.0000
     26 C11        0.6977    9.0101    9.9525 C.3       1 RES1    0.0000
     27 H13        0.3704    8.1835    9.5411 H         1 RES1    0.0000
     28 C12        2.1985    8.7882   10.2137 C.3       1 RES1    0.0000
     29 H14        2.5936    8.4526    9.3816 H         1 RES1    0.0000
     30 C13        0.4841   10.0661    8.9597 C.1       1 RES1    0.0000
     31 C14        0.3099   10.9128    8.1418 C.1       1 RES1    0.0000
     32 C15        0.1148   11.9272    7.1351 C.ar      1 RES1    0.0000
     33 C16       -0.8757   12.8881    7.2686 C.ar      1 RES1    0.0000
     34 H15       -1.4468   12.8625    8.0025 H         1 RES1    0.0000
     35 C17       -1.0206   13.8807    6.3225 C.ar      1 RES1    0.0000
     36 H16       -1.6759   14.5310    6.4295 H         1 RES1    0.0000
     37 C18       -0.2030   13.9107    5.2268 C.ar      1 RES1    0.0000
     38 H17       -0.2994   14.5852    4.5939 H         1 RES1    0.0000
     39 C19        0.7586   12.9483    5.0604 C.ar      1 RES1    0.0000
     40 H18        1.3018   12.9620    4.3065 H         1 RES1    0.0000
     41 C20        0.9219   11.9623    6.0049 C.ar      1 RES1    0.0000
     42 H19        1.5778   11.3139    5.8864 H         1 RES1    0.0000
     43 O3        -0.1625    4.7701   11.4818 O.2       2 RES2    0.0000
     44 O4        -1.3609    4.4230    9.7388 O.2       2 RES2    0.0000
     45 N2        -0.4824    4.1041   10.5149 N.pl3     2 RES2    0.0000
     46 C21       -2.0623    0.3542   11.0313 C.ar      2 RES2    0.0000
     47 H20       -1.5311   -0.2048   10.5118 H         2 RES2    0.0000
     48 C22       -3.3853    0.0237   11.2399 C.ar      2 RES2    0.0000
     49 H21       -3.7322   -0.7571   10.8721 H         2 RES2    0.0000
     50 C23       -4.1863    0.8411   11.9849 C.ar      2 RES2    0.0000
     51 H22       -5.0780    0.6179   12.1288 H         2 RES2    0.0000
     52 C24       -3.6706    1.9886   12.5176 C.ar      2 RES2    0.0000
     53 H23       -4.2178    2.5530   13.0143 H         2 RES2    0.0000
     54 C25       -2.3408    2.3190   12.3241 C.ar      2 RES2    0.0000
     55 H24       -2.0009    3.0992   12.6981 H         2 RES2    0.0000
     56 C26       -1.5089    1.4960   11.5765 C.ar      2 RES2    0.0000
     57 C27       -0.0350    1.7883   11.3708 C.3       2 RES2    0.0000
     58 H25        0.3462    0.9485   11.0385 H         2 RES2    0.0000
     59 C28        0.7410    2.0960   12.6498 C.3       2 RES2    0.0000
     60 H26        0.4096    2.9199   13.0391 H         2 RES2    0.0000
     61 H27        0.6003    1.3834   13.2921 H         2 RES2    0.0000
     62 C29        2.2305    2.2340   12.3623 C.3       2 RES2    0.0000
     63 H28        2.6951    2.4527   13.1848 H         2 RES2    0.0000
     64 H29        2.5743    1.3854   12.0422 H         2 RES2    0.0000
     65 C30        2.5121    3.3084   11.3293 C.3       2 RES2    0.0000
     66 H30        3.4616    3.3239   11.1320 H         2 RES2    0.0000
     67 H31        2.2678    4.1745   11.6916 H         2 RES2    0.0000
     68 C31        1.7306    3.0604   10.0388 C.3       2 RES2    0.0000
     69 H32        2.0898    2.2325    9.6580 H         2 RES2    0.0000
     70 C32        0.2296    2.8140   10.2542 C.3       2 RES2    0.0000
     71 H33       -0.1301    2.4418    9.4215 H         2 RES2    0.0000
     72 C33        1.9489    4.1064    9.0244 C.1       2 RES2    0.0000
     73 C34        2.1074    4.9454    8.1958 C.1       2 RES2    0.0000
     74 C35        2.2826    5.9507    7.1805 C.ar      2 RES2    0.0000
     75 C36        3.2797    6.9049    7.2873 C.ar      2 RES2    0.0000
     76 H34        3.8681    6.8792    8.0066 H         2 RES2    0.0000
     77 C37        3.4051    7.8913    6.3361 C.ar      2 RES2    0.0000
     78 H35        4.0656    8.5393    6.4267 H         2 RES2    0.0000
     79 C38        2.5646    7.9225    5.2603 C.ar      2 RES2    0.0000
     80 H36        2.6490    8.5951    4.6241 H         2 RES2    0.0000
     81 C39        1.5963    6.9609    5.1184 C.ar      2 RES2    0.0000
     82 H37        1.0391    6.9716    4.3739 H         2 RES2    0.0000
     83 C40        1.4462    5.9781    6.0764 C.ar      2 RES2    0.0000
     84 H38        0.7833    5.3334    5.9799 H         2 RES2    0.0000
@<TRIPOS>BOND
     1    1    3 2
     2    2    3 2
     3    3   28 1
     4    4    5 1
     5    6    4 ar
     6    7    6 1
     7    8    6 ar
     8    9    8 1
     9   10    8 ar
    10   11   10 1
    11   12   10 ar
    12   13   12 1
    13   14    4 ar
    14   15   14 1
    15   16   15 1
    16   17   15 1
    17   18   17 1
    18   19   17 1
    19   20   17 1
    20   21   20 1
    21   22   20 1
    22   23   20 1
    23   24   23 1
    24   25   23 1
    25   26   23 1
    26   27   26 1
    27   28   15 1
    28   29   28 1
    29   30   26 1
    30   31   30 3
    31   32   31 1
    32   33   32 ar
    33   34   33 1
    34   35   33 ar
    35   36   35 1
    36   37   35 ar
    37   38   37 1
    38   39   37 ar
    39   40   39 1
    40   41   32 ar
    41   42   41 1
    42   43   45 2
    43   44   45 2
    44   45   70 1
    45   46   47 1
    46   48   46 ar
    47   49   48 1
    48   50   48 ar
    49   51   50 1
    50   52   50 ar
    51   53   52 1
    52   54   52 ar
    53   55   54 1
    54   56   46 ar
    55   57   56 1
    56   58   57 1
    57   59   57 1
    58   60   59 1
    59   61   59 1
    60   62   59 1
    61   63   62 1
    62   64   62 1
    63   65   62 1
    64   66   65 1
    65   67   65 1
    66   68   65 1
    67   69   68 1
    68   70   57 1
    69   71   70 1
    70   72   68 1
    71   73   72 3
    72   74   73 1
    73   75   74 ar
    74   76   75 1
    75   77   75 ar
    76   78   77 1
    77   79   77 ar
    78   80   79 1
    79   81   79 ar
    80   82   81 1
    81   83   74 ar
    82   84   83 1
    83   12   14 ar
    84   26   28 1
    85   39   41 ar
    86   54   56 ar
    87   68   70 1
    88   81   83 ar
@<TRIPOS>SUBSTRUCTURE
     1 RES1 1
     2 RES2 43

@<TRIPOS>CRYSIN
  10.0540   11.9320   14.1770  99.3600 100.4000  90.2900   2 1

