# MOL2 file generated by ConQuest
# Please check atom types

@<TRIPOS>MOLECULE
JERHUJ
    27    26     1
SMALL
NO_CHARGES
****
Generated from CSD

@<TRIPOS>ATOM
      1 O1         2.8107    5.8948    1.4976 O.3       1 RES1    0.0000
      2 O2         0.8061    8.0994    1.0555 O.3       1 RES1    0.0000
      3 O3         2.4760    7.1848   -1.0038 O.3       1 RES1    0.0000
      4 O4         3.0092   10.7042   -0.2942 O.3       1 RES1    0.0000
      5 O5         4.8908    9.4850   -2.0058 O.3       1 RES1    0.0000
      6 O6         3.8135    5.9442    4.3075 O.2       1 RES1    0.0000
      7 O7         1.8642    5.5066    5.0884 O.2       1 RES1    0.0000
      8 N1         2.5983    6.0953    4.3289 N.pl3     1 RES1    0.0000
      9 C1         1.9691    7.0747    3.3750 C.3       1 RES1    0.0000
     10 C2         2.7861    7.1865    2.1092 C.3       1 RES1    0.0000
     11 C3         2.2175    8.2709    1.1892 C.3       1 RES1    0.0000
     12 C4         2.9162    8.2649   -0.1765 C.3       1 RES1    0.0000
     13 C5         2.6637    9.5217   -1.0180 C.3       1 RES1    0.0000
     14 C6         3.4890    9.5260   -2.2892 C.3       1 RES1    0.0000
     15 H1         1.9673    7.8921    3.8332 H         1 RES1    0.0000
     16 H2         1.1756    6.6976    3.2449 H         1 RES1    0.0000
     17 H3         3.7428    7.4911    2.3534 H         1 RES1    0.0000
     18 H4         2.4292    9.1122    1.6581 H         1 RES1    0.0000
     19 H5         3.9047    8.1566    0.0178 H         1 RES1    0.0000
     20 H6         1.7094    9.5814   -1.3015 H         1 RES1    0.0000
     21 H7         3.3529   10.3664   -2.7813 H         1 RES1    0.0000
     22 H8         3.2629    8.7112   -2.8348 H         1 RES1    0.0000
     23 H9         3.6048    5.7335    1.3193 H         1 RES1    0.0000
     24 H10        0.5038    8.9074    0.8915 H         1 RES1    0.0000
     25 H11        2.7951    6.5270   -0.7310 H         1 RES1    0.0000
     26 H12        2.4712   10.8271    0.3744 H         1 RES1    0.0000
     27 H13        5.1283    8.7026   -1.9434 H         1 RES1    0.0000
@<TRIPOS>BOND
     1    1   10 1
     2    2   11 1
     3    3   12 1
     4    4   13 1
     5    5   14 1
     6    6    8 2
     7    7    8 2
     8    8    9 1
     9    9   10 1
    10   10   11 1
    11   11   12 1
    12   12   13 1
    13   13   14 1
    14   14   21 1
    15   15    9 1
    16   16    9 1
    17   17   10 1
    18   18   11 1
    19   19   12 1
    20   20   13 1
    21   22   14 1
    22   23    1 1
    23   24    2 1
    24   25    3 1
    25   26    4 1
    26   27    5 1
@<TRIPOS>SUBSTRUCTURE
     1 RES1 1

@<TRIPOS>CRYSIN
   5.9980    8.5320   17.8290  90.0000  90.0000  90.0000  19 1

