# MOL2 file generated by ConQuest
# Please check atom types

@<TRIPOS>MOLECULE
JERHET
    23    22     1
SMALL
NO_CHARGES
****
Generated from CSD

@<TRIPOS>ATOM
      1 O1         2.3285    6.5637    3.1033 O.3       1 RES1    0.0000
      2 O2        -0.1864    7.5722    4.0169 O.3       1 RES1    0.0000
      3 O3         2.4824    7.1658    6.4988 O.3       1 RES1    0.0000
      4 O4        -0.0223    8.2957    7.4446 O.3       1 RES1    0.0000
      5 O5         2.4501    3.4047    2.9217 O.2       1 RES1    0.0000
      6 O6         1.3797    4.1688    1.2373 O.2       1 RES1    0.0000
      7 N1         1.5629    4.0865    2.4267 N.pl3     1 RES1    0.0000
      8 C1         0.7004    4.8789    3.3499 C.3       1 RES1    0.0000
      9 C2         1.5675    5.8806    4.0904 C.3       1 RES1    0.0000
     10 C3         0.7057    6.8715    4.8800 C.3       1 RES1    0.0000
     11 C4         1.5764    7.8719    5.6466 C.3       1 RES1    0.0000
     12 C5         0.7689    8.8911    6.4205 C.3       1 RES1    0.0000
     13 H1         0.2973    4.3200    3.9908 H         1 RES1    0.0000
     14 H2         0.1488    5.3325    2.7941 H         1 RES1    0.0000
     15 H3         2.0981    5.4270    4.6832 H         1 RES1    0.0000
     16 H4         0.1684    6.3855    5.5215 H         1 RES1    0.0000
     17 H5         2.0792    8.3565    4.9869 H         1 RES1    0.0000
     18 H6         0.1935    9.3555    5.8191 H         1 RES1    0.0000
     19 H7         1.3850    9.5175    6.9003 H         1 RES1    0.0000
     20 H8         3.0935    6.8310    3.5716 H         1 RES1    0.0000
     21 H9         0.1446    7.8435    3.2558 H         1 RES1    0.0000
     22 H10        2.0932    7.0065    7.2587 H         1 RES1    0.0000
     23 H11       -0.8202    7.9785    7.0522 H         1 RES1    0.0000
@<TRIPOS>BOND
     1    1    9 1
     2    2   10 1
     3    3   11 1
     4    4   12 1
     5    5    7 2
     6    6    7 2
     7    7    8 1
     8    8    9 1
     9    9   10 1
    10   10   11 1
    11   11   12 1
    12   12   18 1
    13   13    8 1
    14   14    8 1
    15   15    9 1
    16   16   10 1
    17   17   11 1
    18   19   12 1
    19   20    1 1
    20   21    2 1
    21   22    3 1
    22   23    4 1
@<TRIPOS>SUBSTRUCTURE
     1 RES1 1

@<TRIPOS>CRYSIN
   4.8580   13.5000    6.0770  90.0000  91.7300  90.0000   4 1

