# MOL2 file generated by ConQuest
# Please check atom types

@<TRIPOS>MOLECULE
JESHAR
    39    41     1
SMALL
NO_CHARGES
****
Generated from CSD

@<TRIPOS>ATOM
      1 O1         8.0359    2.4791    1.1410 O.2       1 RES1    0.0000
      2 O2         7.9842    1.0575    2.8769 O.3       1 RES1    0.0000
      3 O3         6.9401   -1.3092    1.6044 O.3       1 RES1    0.0000
      4 C1         8.1630    1.3811    1.6032 C.2       1 RES1    0.0000
      5 C2        11.8977    1.2062    1.1819 C.ar      1 RES1    0.0000
      6 O4         9.0657   -1.9870    1.7341 O.2       1 RES1    0.0000
      7 C3        10.8987    1.3246    0.1618 C.ar      1 RES1    0.0000
      8 C4         9.9004    0.2253    0.0363 C.3       1 RES1    0.0000
      9 H1        10.3067   -0.6556   -0.1040 H         1 RES1    0.0000
     10 N1         8.1761   -0.6566   -1.6110 N.pl3     1 RES1    0.0000
     11 C5         8.2460   -1.1784    1.4202 C.2       1 RES1    0.0000
     12 C6         8.5836    0.1686    0.8126 C.3       1 RES1    0.0000
     13 C7        12.8933    2.2219    1.2813 C.ar      1 RES1    0.0000
     14 O5         8.0142   -0.3298   -2.7695 O.2       1 RES1    0.0000
     15 C8        10.9191    2.3903   -0.6948 C.ar      1 RES1    0.0000
     16 H2        10.2759    2.4525   -1.3632 H         1 RES1    0.0000
     17 C9        11.9372    0.1302    2.0983 C.ar      1 RES1    0.0000
     18 H3        11.2908   -0.5370    2.0520 H         1 RES1    0.0000
     19 C10        8.6037    0.3974   -0.6773 C.3       1 RES1    0.0000
     20 H4         8.4028    1.3140   -0.9614 H         1 RES1    0.0000
     21 C11       12.9173    0.0578    3.0553 C.ar      1 RES1    0.0000
     22 H5        12.9315   -0.6585    3.6475 H         1 RES1    0.0000
     23 C12       13.9026    1.0615    3.1476 C.ar      1 RES1    0.0000
     24 H6        14.5653    1.0009    3.7969 H         1 RES1    0.0000
     25 O6         8.0566   -1.7898   -1.1895 O.2       1 RES1    0.0000
     26 C13       13.8870    2.1172    2.2905 C.ar      1 RES1    0.0000
     27 H7        14.5353    2.7788    2.3665 H         1 RES1    0.0000
     28 C14       11.9028    3.3976   -0.5810 C.ar      1 RES1    0.0000
     29 H8        11.8947    4.1221   -1.1652 H         1 RES1    0.0000
     30 C15        7.4908    2.1013    3.7499 C.3       1 RES1    0.0000
     31 H9         8.1771    2.7583    3.8824 H         1 RES1    0.0000
     32 H10        7.2442    1.7208    4.5963 H         1 RES1    0.0000
     33 H11        6.7234    2.5169    3.3497 H         1 RES1    0.0000
     34 C16       12.8649    3.3136    0.3811 C.ar      1 RES1    0.0000
     35 H12       13.5098    3.9802    0.4463 H         1 RES1    0.0000
     36 C17        6.5465   -2.5391    2.2558 C.3       1 RES1    0.0000
     37 H13        6.7261   -3.2807    1.6736 H         1 RES1    0.0000
     38 H14        5.6079   -2.5096    2.4563 H         1 RES1    0.0000
     39 H15        7.0445   -2.6442    3.0704 H         1 RES1    0.0000
@<TRIPOS>BOND
     1    1    4 2
     2    2    4 1
     3    3   11 1
     4    4   12 1
     5    5    7 ar
     6    6   11 2
     7    7    8 1
     8    8    9 1
     9   10   14 2
    10   11   12 1
    11   12    8 1
    12   13    5 ar
    13   15    7 ar
    14   16   15 1
    15   17    5 ar
    16   18   17 1
    17   19    8 1
    18   20   19 1
    19   21   17 ar
    20   22   21 1
    21   23   21 ar
    22   24   23 1
    23   25   10 2
    24   26   13 ar
    25   27   26 1
    26   28   15 ar
    27   29   28 1
    28   30    2 1
    29   31   30 1
    30   32   30 1
    31   33   30 1
    32   34   13 ar
    33   35   34 1
    34   36    3 1
    35   37   36 1
    36   38   36 1
    37   39   36 1
    38   10   19 1
    39   12   19 1
    40   23   26 ar
    41   28   34 ar
@<TRIPOS>SUBSTRUCTURE
     1 RES1 1

@<TRIPOS>CRYSIN
  12.6090   14.6330    8.6593  90.0000 104.3530  90.0000  14 1

