# MOL2 file generated by ConQuest
# Please check atom types

@<TRIPOS>MOLECULE
JESHIZ
    33    35     1
SMALL
NO_CHARGES
****
Generated from CSD

@<TRIPOS>ATOM
      1 O1         6.2768    4.1709    8.1931 O.2       1 RES1    0.0000
      2 O2         5.1379    1.3190    4.7428 O.3       1 RES1    0.0000
      3 N1         6.2364    2.8986    8.0513 N.pl3     1 RES1    0.0000
      4 N2         5.9951    2.0371    9.0852 N.pl3     1 RES1    0.0000
      5 N3         5.9930    0.7605    8.6664 N.2       1 RES1    0.0000
      6 N4         5.9800    2.4152    4.5416 N.2       1 RES1    0.0000
      7 C1         6.2059    0.8206    7.3530 C.2       1 RES1    0.0000
      8 C2         6.3666    2.1472    6.9295 C.2       1 RES1    0.0000
      9 C3         5.8730    2.3954   10.4630 C.ar      1 RES1    0.0000
     10 C4         5.2801    3.5942   10.8453 C.ar      1 RES1    0.0000
     11 C5         5.1708    3.8718   12.2077 C.ar      1 RES1    0.0000
     12 C6         5.6393    2.9726   13.1591 C.ar      1 RES1    0.0000
     13 C7         6.2207    1.7754   12.7515 C.ar      1 RES1    0.0000
     14 C8         6.3510    1.4781   11.3971 C.ar      1 RES1    0.0000
     15 C9         6.5844    2.7868    5.6208 C.2       1 RES1    0.0000
     16 C10        7.5313    3.9215    5.4950 C.ar      1 RES1    0.0000
     17 C11        7.2966    4.9390    4.5633 C.ar      1 RES1    0.0000
     18 C12        8.1946    5.9993    4.4431 C.ar      1 RES1    0.0000
     19 C13        9.3295    6.0471    5.2450 C.ar      1 RES1    0.0000
     20 C14        9.5693    5.0337    6.1697 C.ar      1 RES1    0.0000
     21 C15        8.6718    3.9786    6.3020 C.ar      1 RES1    0.0000
     22 H1         4.6662    1.3599    4.0677 H         1 RES1    0.0000
     23 H2         6.2053    0.0310    6.8436 H         1 RES1    0.0000
     24 H3         4.8997    4.1978   10.1996 H         1 RES1    0.0000
     25 H4         4.7940    4.6449   12.5171 H         1 RES1    0.0000
     26 H5         5.5066    3.1608   14.1466 H         1 RES1    0.0000
     27 H6         6.5147    1.1488   13.3773 H         1 RES1    0.0000
     28 H7         6.7364    0.6396   11.0683 H         1 RES1    0.0000
     29 H8         6.5102    4.8747    4.0281 H         1 RES1    0.0000
     30 H9         8.0325    6.6693    3.8412 H         1 RES1    0.0000
     31 H10        9.9743    6.7687    5.1394 H         1 RES1    0.0000
     32 H11       10.3744    5.0734    6.8062 H         1 RES1    0.0000
     33 H12        8.8148    3.3160    6.9344 H         1 RES1    0.0000
@<TRIPOS>BOND
     1    1    3 1
     2    2    6 1
     3    3    4 1
     4    4    5 1
     5    5    7 2
     6    6   15 2
     7    7    8 1
     8    8    3 2
     9    9    4 1
    10   10    9 ar
    11   11   10 ar
    12   12   11 ar
    13   13   12 ar
    14   14    9 ar
    15   15    8 1
    16   16   15 1
    17   17   16 ar
    18   18   17 ar
    19   19   18 ar
    20   20   19 ar
    21   21   16 ar
    22   22    2 1
    23   23    7 1
    24   24   10 1
    25   25   11 1
    26   26   12 1
    27   27   13 1
    28   28   14 1
    29   29   17 1
    30   30   18 1
    31   31   19 1
    32   32   20 1
    33   33   21 1
    34   13   14 ar
    35   20   21 ar
@<TRIPOS>SUBSTRUCTURE
     1 RES1 1

