# MOL2 file generated by ConQuest
# Please check atom types

@<TRIPOS>MOLECULE
JESJAT
    27    27     1
SMALL
NO_CHARGES
****
Generated from CSD

@<TRIPOS>ATOM
      1 O1         2.6854    3.9871   -0.9988 O.2       1 RES1    0.0000
      2 O2         3.6632    5.1091    0.6933 O.3       1 RES1    0.0000
      3 O3         0.9248    4.1932    3.6689 O.2       1 RES1    0.0000
      4 O4        -0.0370    6.0536    3.0803 O.2       1 RES1    0.0000
      5 O5         1.2691    6.8157    0.7034 O.2       1 RES1    0.0000
      6 O6         2.5035    7.9590    2.0911 O.2       1 RES1    0.0000
      7 O7         2.6546    6.4910    4.6117 O.2       1 RES1    0.0000
      8 O8         4.3183    5.7769    3.4066 O.2       1 RES1    0.0000
      9 N1         0.8879    5.2812    3.1309 N.pl3     1 RES1    0.0000
     10 N2         1.9681    6.9523    1.6910 N.pl3     1 RES1    0.0000
     11 N3         3.1460    6.0077    3.6125 N.pl3     1 RES1    0.0000
     12 C1         2.1959    5.6740    2.4706 C.3       1 RES1    0.0000
     13 C2         2.6853    4.5634    1.5748 C.3       1 RES1    0.0000
     14 H1         3.0831    3.8379    2.1181 H         1 RES1    0.0000
     15 H2         1.9306    4.1872    1.0551 H         1 RES1    0.0000
     16 C3         3.5504    4.7239   -0.6145 C.2       1 RES1    0.0000
     17 C4         4.6199    5.3019   -1.4566 C.ar      1 RES1    0.0000
     18 C5         5.6870    6.0177   -0.9172 C.ar      1 RES1    0.0000
     19 H3         5.7498    6.1505    0.0217 H         1 RES1    0.0000
     20 C6         6.6528    6.5322   -1.7624 C.ar      1 RES1    0.0000
     21 H4         7.3876    7.0150   -1.4019 H         1 RES1    0.0000
     22 C7         6.5546    6.3473   -3.1318 C.ar      1 RES1    0.0000
     23 H5         7.2196    6.7066   -3.7071 H         1 RES1    0.0000
     24 C8         5.4885    5.6394   -3.6687 C.ar      1 RES1    0.0000
     25 H6         5.4214    5.5179   -4.6085 H         1 RES1    0.0000
     26 C9         4.5243    5.1114   -2.8299 C.ar      1 RES1    0.0000
     27 H7         3.7971    4.6186   -3.1919 H         1 RES1    0.0000
@<TRIPOS>BOND
     1    1   16 2
     2    2   13 1
     3    3    9 2
     4    4    9 2
     5    5   10 2
     6    6   10 2
     7    7   11 2
     8    8   11 2
     9    9   12 1
    10   10   12 1
    11   11   12 1
    12   12   13 1
    13   13   14 1
    14   15   13 1
    15   16    2 1
    16   17   16 1
    17   18   17 ar
    18   19   18 1
    19   20   18 ar
    20   21   20 1
    21   22   20 ar
    22   23   22 1
    23   24   22 ar
    24   25   24 1
    25   26   17 ar
    26   27   26 1
    27   24   26 ar
@<TRIPOS>SUBSTRUCTURE
     1 RES1 1

@<TRIPOS>CRYSIN
   7.7030    7.9720    9.9100  85.0800  84.9000  72.8800   2 1

