# MOL2 file generated by ConQuest
# Please check atom types

@<TRIPOS>MOLECULE
JESVAF
    20    20     1
SMALL
NO_CHARGES
****
Generated from CSD

@<TRIPOS>ATOM
      1 O1         9.1874    1.5126    3.9499 O.2       1 RES1    0.0000
      2 O2         8.2141   -0.4233    4.4729 O.3       1 RES1    0.0000
      3 O3         4.3445    5.2110    2.2583 O.2       1 RES1    0.0000
      4 O4         5.4132    7.0294    2.7509 O.2       1 RES1    0.0000
      5 N1         5.1983    5.8241    2.8940 N.pl3     1 RES1    0.0000
      6 C1         6.8342    2.9983    4.6868 C.ar      1 RES1    0.0000
      7 C2         6.0196    3.6998    3.8045 C.ar      1 RES1    0.0000
      8 C3         6.0166    5.0870    3.8618 C.ar      1 RES1    0.0000
      9 C4         6.7774    5.8120    4.7645 C.ar      1 RES1    0.0000
     10 C5         7.5699    5.0998    5.6532 C.ar      1 RES1    0.0000
     11 C6         7.5977    3.7114    5.6144 C.ar      1 RES1    0.0000
     12 C7         6.8678    1.4921    4.6627 C.3       1 RES1    0.0000
     13 C8         8.2082    0.8898    4.3243 C.2       1 RES1    0.0000
     14 H1         5.4759    3.2395    3.1759 H         1 RES1    0.0000
     15 H2         6.7574    6.7613    4.7750 H         1 RES1    0.0000
     16 H3         8.0978    5.5648    6.2922 H         1 RES1    0.0000
     17 H4         8.1446    3.2385    6.2295 H         1 RES1    0.0000
     18 H5         6.2048    1.1733    4.0011 H         1 RES1    0.0000
     19 H6         6.5888    1.1575    5.5512 H         1 RES1    0.0000
     20 H7         8.9656   -0.7265    4.2527 H         1 RES1    0.0000
@<TRIPOS>BOND
     1    1   13 2
     2    2   13 1
     3    3    5 2
     4    4    5 2
     5    5    8 1
     6    6    7 ar
     7    7    8 ar
     8    8    9 ar
     9    9   10 ar
    10   10   11 ar
    11   11    6 ar
    12   12    6 1
    13   13   12 1
    14   14    7 1
    15   15    9 1
    16   16   10 1
    17   17   11 1
    18   18   12 1
    19   19   12 1
    20   20    2 1
@<TRIPOS>SUBSTRUCTURE
     1 RES1 1

@<TRIPOS>CRYSIN
  21.9690    9.2901    7.9642  90.0000 106.2160  90.0000  15 1

