# MOL2 file generated by ConQuest
# Please check atom types

@<TRIPOS>MOLECULE
JETDOE
    49    53     1
SMALL
USER_CHARGES
****
Generated from CSD

@<TRIPOS>ATOM
      1 N1         4.6137    8.2671    4.6972 N.pl3     1 RES1    1.0000
      2 C1         4.1566    7.1643    4.0746 C.2       1 RES1    0.0000
      3 C2         4.5735    9.3891    3.8110 C.ar      1 RES1    0.0000
      4 C3         3.8521    7.5096    2.6974 C.2       1 RES1    0.0000
      5 C4         4.0166    8.9813    2.6055 C.ar      1 RES1    0.0000
      6 C5         3.8545    9.9427    1.6140 C.ar      1 RES1    0.0000
      7 H1         3.4870    9.7182    0.7900 H         1 RES1    0.0000
      8 C6         4.2540   11.2482    1.8824 C.ar      1 RES1    0.0000
      9 H2         4.1365   11.8982    1.2277 H         1 RES1    0.0000
     10 C7         4.9919   10.6731    4.0884 C.ar      1 RES1    0.0000
     11 H3         5.3709   10.8972    4.9077 H         1 RES1    0.0000
     12 C8         4.8200   11.6083    3.0902 C.ar      1 RES1    0.0000
     13 H4         5.0869   12.4882    3.2313 H         1 RES1    0.0000
     14 O1         4.9603    8.3965    5.9216 O.2       1 RES1   -1.0000
     15 O2         2.3196    7.9201    0.0999 O.2       1 RES1    0.0000
     16 C9         3.7736    5.9513    4.8049 C.ar      1 RES1    0.0000
     17 C10        2.6034    5.2848    4.4343 C.ar      1 RES1    0.0000
     18 H5         2.0795    5.6252    3.7450 H         1 RES1    0.0000
     19 C11        4.5198    5.4427    5.8590 C.ar      1 RES1    0.0000
     20 H6         5.2902    5.8839    6.1376 H         1 RES1    0.0000
     21 C12        2.2143    4.1293    5.0758 C.ar      1 RES1    0.0000
     22 H7         1.4379    3.6907    4.8113 H         1 RES1    0.0000
     23 C13        4.1214    4.2855    6.4950 C.ar      1 RES1    0.0000
     24 H8         4.6325    3.9467    7.1941 H         1 RES1    0.0000
     25 C14        2.9717    3.6234    6.1061 C.ar      1 RES1    0.0000
     26 H9         2.7131    2.8422    6.5385 H         1 RES1    0.0000
     27 N2         2.9103    5.7494   -0.3322 N.am      1 RES1    0.0000
     28 C15        4.0996    5.2252    1.5487 C.ar      1 RES1    0.0000
     29 C16        2.9211    6.9014    0.4059 C.2       1 RES1    0.0000
     30 C17        3.6684    6.6078    1.6708 C.2       1 RES1    0.0000
     31 C18        3.6415    4.7312    0.3125 C.ar      1 RES1    0.0000
     32 C19        2.1917    5.6765   -1.5974 C.3       1 RES1    0.0000
     33 H10        1.6620    6.4697   -1.7110 H         1 RES1    0.0000
     34 H11        1.6183    4.9068   -1.5962 H         1 RES1    0.0000
     35 H12        2.8202    5.6058   -2.3189 H         1 RES1    0.0000
     36 C20        4.9560    4.4522    2.3269 C.ar      1 RES1    0.0000
     37 H13        5.2997    4.7944    3.1197 H         1 RES1    0.0000
     38 C21        5.2959    3.1732    1.9196 C.ar      1 RES1    0.0000
     39 C22        4.7794    2.7036    0.7142 C.ar      1 RES1    0.0000
     40 H14        4.9949    1.8367    0.4562 H         1 RES1    0.0000
     41 C23        3.9621    3.4481   -0.1281 C.ar      1 RES1    0.0000
     42 C24        3.5033    2.8334   -1.4318 C.3       1 RES1    0.0000
     43 H15        3.9020    1.9660   -1.5344 H         1 RES1    0.0000
     44 H16        3.7711    3.3967   -2.1618 H         1 RES1    0.0000
     45 H17        2.5475    2.7486   -1.4260 H         1 RES1    0.0000
     46 C25        6.1876    2.3028    2.7588 C.3       1 RES1    0.0000
     47 H18        6.6586    2.8461    3.3939 H         1 RES1    0.0000
     48 H19        6.8183    1.8519    2.1932 H         1 RES1    0.0000
     49 H20        5.6542    1.6541    3.2248 H         1 RES1    0.0000
@<TRIPOS>BOND
     1    1    2 2
     2    2    4 1
     3    3    1 1
     4    4    5 1
     5    5    3 ar
     6    6    5 ar
     7    7    6 1
     8    8    6 ar
     9    9    8 1
    10   10    3 ar
    11   11   10 1
    12   12    8 ar
    13   13   12 1
    14   14    1 1
    15   15   29 2
    16   16    2 1
    17   17   16 ar
    18   18   17 1
    19   19   16 ar
    20   20   19 1
    21   21   17 ar
    22   22   21 1
    23   23   19 ar
    24   24   23 1
    25   25   21 ar
    26   26   25 1
    27   27   29 1
    28   28   30 1
    29   29   30 1
    30   30    4 2
    31   31   27 1
    32   32   27 1
    33   33   32 1
    34   34   32 1
    35   35   32 1
    36   36   28 ar
    37   37   36 1
    38   38   36 ar
    39   39   38 ar
    40   40   39 1
    41   41   31 ar
    42   42   41 1
    43   43   42 1
    44   44   42 1
    45   45   42 1
    46   46   38 1
    47   47   46 1
    48   48   46 1
    49   49   46 1
    50   10   12 ar
    51   23   25 ar
    52   28   31 ar
    53   39   41 ar
@<TRIPOS>SUBSTRUCTURE
     1 RES1 1

@<TRIPOS>CRYSIN
   8.5334   10.7746   11.3844  73.0970  80.9620  77.6690   2 1

