# MOL2 file generated by ConQuest
# Please check atom types

@<TRIPOS>MOLECULE
JETRUY
    38    38     2
SMALL
NO_CHARGES
****
Generated from CSD

@<TRIPOS>ATOM
      1 O1         0.0083   -0.0553    8.5613 O.2       1 RES1    0.0000
      2 O2         2.4584    0.4759    7.8383 O.2       1 RES1    0.0000
      3 O3         2.6179    2.6280    7.8931 O.2       1 RES1    0.0000
      4 O4        -0.8489    4.6589    4.6447 O.2       1 RES1    0.0000
      5 O5        -2.8595    4.0066    5.0683 O.2       1 RES1    0.0000
      6 N1        -0.2954    0.8426    7.7190 N.pl3     1 RES1    0.0000
      7 N2        -1.5635    0.8400    7.3422 N.ar      1 RES1    0.0000
      8 N3         1.9853    1.5909    7.7049 N.pl3     1 RES1    0.0000
      9 N4         1.1407    3.6345    5.9050 N.3       1 RES1    0.0000
     10 N5        -1.6412    3.8753    5.1945 N.pl3     1 RES1    0.0000
     11 N6        -3.2878    1.7011    6.2207 N.3       1 RES1    0.0000
     12 C1         0.6102    1.7480    7.2693 C.ar      1 RES1    0.0000
     13 C2         0.2407    2.7856    6.3696 C.ar      1 RES1    0.0000
     14 C3        -1.1303    2.8193    6.0112 C.ar      1 RES1    0.0000
     15 C4        -2.0002    1.8101    6.5016 C.ar      1 RES1    0.0000
     16 H1        -3.6838    1.0171    6.5260 H         1 RES1    0.0000
     17 H2         0.8528    4.2421    5.2896 H         1 RES1    0.0000
     18 H3        -3.6156    2.2712    5.6848 H         1 RES1    0.0000
     19 H4         1.9195    3.6677    6.2698 H         1 RES1    0.0000
     20 O6         3.9747   -0.7694    5.7706 O.2       2 RES2    0.0000
     21 O7         2.1080    0.6519    4.3702 O.2       2 RES2    0.0000
     22 O8         3.2905    0.4332    2.5613 O.2       2 RES2    0.0000
     23 O9         6.8082    4.3422    3.8290 O.2       2 RES2    0.0000
     24 O10        7.9989    3.8126    5.5502 O.2       2 RES2    0.0000
     25 N7         4.6498    0.2730    5.5361 N.pl3     2 RES2    0.0000
     26 N8         5.6805    0.4938    6.3369 N.ar      2 RES2    0.0000
     27 N9         3.1659    0.6877    3.7546 N.pl3     2 RES2    0.0000
     28 N10        4.8405    2.8715    3.0251 N.3       2 RES2    0.0000
     29 N11        7.0656    3.5792    4.7797 N.pl3     2 RES2    0.0000
     30 N12        7.5060    1.6457    6.9089 N.3       2 RES2    0.0000
     31 C5         4.3568    1.0687    4.4856 C.ar      2 RES2    0.0000
     32 C6         5.1554    2.1664    4.1064 C.ar      2 RES2    0.0000
     33 C7         6.2435    2.4367    4.9812 C.ar      2 RES2    0.0000
     34 C8         6.4935    1.5551    6.0705 C.ar      2 RES2    0.0000
     35 H5         7.5748    1.0434    7.4984 H         2 RES2    0.0000
     36 H6         8.0900    2.2923    6.8208 H         2 RES2    0.0000
     37 H7         5.3757    3.5202    2.8092 H         2 RES2    0.0000
     38 H8         4.1576    2.5927    2.4094 H         2 RES2    0.0000
@<TRIPOS>BOND
     1    1    6 1
     2    2    8 2
     3    3    8 2
     4    4   10 2
     5    5   10 2
     6    6    7 ar
     7    7   15 ar
     8    8   12 1
     9    9   13 1
    10   10   14 1
    11   11   15 1
    12   12    6 ar
    13   13   12 ar
    14   14   13 ar
    15   15   14 ar
    16   16   11 1
    17   17    9 1
    18   18   11 1
    19   19    9 1
    20   20   25 1
    21   21   27 2
    22   22   27 2
    23   23   29 2
    24   24   29 2
    25   25   26 ar
    26   26   34 ar
    27   27   31 1
    28   28   32 1
    29   29   33 1
    30   30   34 1
    31   31   25 ar
    32   32   31 ar
    33   33   32 ar
    34   34   33 ar
    35   35   30 1
    36   36   30 1
    37   37   28 1
    38   38   28 1
@<TRIPOS>SUBSTRUCTURE
     1 RES1 1
     2 RES2 20

@<TRIPOS>CRYSIN
  18.6988    5.2697   16.4946  90.0000 110.6470  90.0000  14 1

