# MOL2 file generated by ConQuest
# Please check atom types

@<TRIPOS>MOLECULE
JETYOZ
    98   100     2
SMALL
NO_CHARGES
****
Generated from CSD

@<TRIPOS>ATOM
      1 C1         1.9147    6.9616   15.0601 C.3       1 RES1    0.0000
      2 H1         1.3960    6.5645   15.8162 H         1 RES1    0.0000
      3 C2         3.0010    7.8124   15.7185 C.3       1 RES1    0.0000
      4 H2         3.6015    8.1772   15.0207 H         1 RES1    0.0000
      5 H3         2.5811    8.5742   16.1915 H         1 RES1    0.0000
      6 C3         3.8200    6.9880   16.7122 C.3       1 RES1    0.0000
      7 H4         4.5255    7.5596   17.1073 H         1 RES1    0.0000
      8 H5         3.2296    6.6814   17.4449 H         1 RES1    0.0000
      9 C4         4.4675    5.7766   16.0461 C.3       1 RES1    0.0000
     10 H6         5.1106    6.1059   15.3565 H         1 RES1    0.0000
     11 C5         3.3929    4.9520   15.3439 C.3       1 RES1    0.0000
     12 H7         2.7864    4.5679   16.0263 H         1 RES1    0.0000
     13 H8         3.8267    4.1996   14.8681 H         1 RES1    0.0000
     14 C6         2.5590    5.7636   14.3353 C.3       1 RES1    0.0000
     15 C7         5.2447    4.9286   17.0588 C.3       1 RES1    0.0000
     16 H9         4.6359    4.6222   17.7645 H         1 RES1    0.0000
     17 H10        5.9592    5.4682   17.4574 H         1 RES1    0.0000
     18 H11        5.6350    4.1533   16.6045 H         1 RES1    0.0000
     19 C8         1.5171    4.8507   13.6991 C.3       1 RES1    0.0000
     20 H12        1.0219    5.3476   13.0150 H         1 RES1    0.0000
     21 H13        0.8953    4.5345   14.3869 H         1 RES1    0.0000
     22 H14        1.9640    4.0828   13.2843 H         1 RES1    0.0000
     23 C9         0.8880    7.7882   14.2495 C.3       1 RES1    0.0000
     24 H15        0.1719    7.1538   13.9577 H         1 RES1    0.0000
     25 C10        0.2181    8.8302   15.1500 C.3       1 RES1    0.0000
     26 H16        0.8449    9.5635   15.3242 H         1 RES1    0.0000
     27 H17       -0.0389    8.4123   15.9994 H         1 RES1    0.0000
     28 H18       -0.5804    9.1826   14.7047 H         1 RES1    0.0000
     29 C11        1.3990    8.4915   12.9916 C.3       1 RES1    0.0000
     30 H19        0.8758    9.3164   12.8318 H         1 RES1    0.0000
     31 H20        2.3486    8.7451   13.1101 H         1 RES1    0.0000
     32 C12        1.3015    8.1613   10.6429 C.2       1 RES1    0.0000
     33 C13        1.1685    7.1650    9.5474 C.ar      1 RES1    0.0000
     34 C14        1.1554    5.7918    9.7923 C.ar      1 RES1    0.0000
     35 H21        1.2482    5.4694   10.6806 H         1 RES1    0.0000
     36 C15        1.0085    4.8940    8.7474 C.ar      1 RES1    0.0000
     37 H22        1.0003    3.9576    8.9047 H         1 RES1    0.0000
     38 C16        0.8742    5.4017    7.4664 C.ar      1 RES1    0.0000
     39 C17        0.8984    6.7668    7.1862 C.ar      1 RES1    0.0000
     40 H23        0.8099    7.0834    6.2956 H         1 RES1    0.0000
     41 C18        1.0535    7.6443    8.2367 C.ar      1 RES1    0.0000
     42 H24        1.0828    8.5791    8.0697 H         1 RES1    0.0000
     43 N1         0.6674    4.4610    6.3534 N.pl3     1 RES1    0.0000
     44 O1         3.4311    6.2999   13.3233 O.3       1 RES1    0.0000
     45 H25        3.7396    5.6716   12.8587 H         1 RES1    0.0000
     46 O2         1.2676    7.5954   11.8494 O.3       1 RES1    0.0000
     47 O3         1.4112    9.3544   10.4641 O.2       1 RES1    0.0000
     48 O4         0.5488    3.2688    6.6143 O.2       1 RES1    0.0000
     49 O5         0.6036    4.9111    5.2184 O.2       1 RES1    0.0000
     50 C19        4.2106    0.8407    2.8986 C.3       2 RES2    0.0000
     51 H26        3.6859    1.2741    2.1656 H         2 RES2    0.0000
     52 C20        5.2738   -0.0009    2.1824 C.3       2 RES2    0.0000
     53 H27        5.8842   -0.3991    2.8515 H         2 RES2    0.0000
     54 H28        4.8335   -0.7391    1.6915 H         2 RES2    0.0000
     55 C21        6.0808    0.8514    1.2018 C.3       2 RES2    0.0000
     56 H29        6.7679    0.2863    0.7685 H         2 RES2    0.0000
     57 H30        5.4779    1.1934    0.4956 H         2 RES2    0.0000
     58 C22        6.7623    2.0298    1.8926 C.3       2 RES2    0.0000
     59 H31        7.4033    1.6601    2.5660 H         2 RES2    0.0000
     60 C23        5.7042    2.8417    2.6522 C.3       2 RES2    0.0000
     61 H32        6.1541    3.5783    3.1370 H         2 RES2    0.0000
     62 H33        5.0830    3.2482    1.9968 H         2 RES2    0.0000
     63 C24        4.8931    2.0131    3.6526 C.3       2 RES2    0.0000
     64 C25        7.5493    2.8889    0.9266 C.3       2 RES2    0.0000
     65 H34        8.2453    2.3465    0.4992 H         2 RES2    0.0000
     66 H35        7.9660    3.6306    1.4132 H         2 RES2    0.0000
     67 H36        6.9466    3.2452    0.2406 H         2 RES2    0.0000
     68 C26        3.8831    2.9137    4.3617 C.3       2 RES2    0.0000
     69 H37        3.3894    2.3901    5.0279 H         2 RES2    0.0000
     70 H38        3.2554    3.2815    3.7045 H         2 RES2    0.0000
     71 H39        4.3559    3.6465    4.8088 H         2 RES2    0.0000
     72 C27        3.1796    0.0169    3.6967 C.3       2 RES2    0.0000
     73 H40        2.4831    0.6528    4.0295 H         2 RES2    0.0000
     74 C28        2.4766   -0.9878    2.7689 C.3       2 RES2    0.0000
     75 H41        3.0872   -1.7268    2.5660 H         2 RES2    0.0000
     76 H42        2.2196   -0.5382    1.9375 H         2 RES2    0.0000
     77 H43        1.6762   -1.3373    3.2124 H         2 RES2    0.0000
     78 C29        3.6952   -0.7604    4.8991 C.3       2 RES2    0.0000
     79 H44        3.0948   -1.5250    5.0853 H         2 RES2    0.0000
     80 H45        4.5985   -1.1153    4.7064 H         2 RES2    0.0000
     81 C30        3.9799   -0.4875    7.2256 C.2       2 RES2    0.0000
     82 C31        4.1113    0.5071    8.3421 C.ar      2 RES2    0.0000
     83 C32        4.1923    1.8787    8.0922 C.ar      2 RES2    0.0000
     84 H46        4.1509    2.1996    7.1988 H         2 RES2    0.0000
     85 C33        4.3314    2.7669    9.1309 C.ar      2 RES2    0.0000
     86 H47        4.3905    3.7018    8.9711 H         2 RES2    0.0000
     87 C34        4.3828    2.2551   10.4226 C.ar      2 RES2    0.0000
     88 C35        4.3090    0.9104   10.7074 C.ar      2 RES2    0.0000
     89 H48        4.3455    0.5969   11.6036 H         2 RES2    0.0000
     90 C36        4.1803    0.0299    9.6492 C.ar      2 RES2    0.0000
     91 H49        4.1391   -0.9049    9.8133 H         2 RES2    0.0000
     92 N2         4.4860    3.2046   11.5420 N.pl3     2 RES2    0.0000
     93 O6         5.7945    1.4269    4.6089 O.3       2 RES2    0.0000
     94 H50        6.2068    2.0359    5.0153 H         2 RES2    0.0000
     95 O7         3.7484    0.1171    6.0598 O.3       2 RES2    0.0000
     96 O8         4.0725   -1.6841    7.3750 O.2       2 RES2    0.0000
     97 O9         4.5562    4.3978   11.2951 O.2       2 RES2    0.0000
     98 O10        4.4947    2.7584   12.6855 O.2       2 RES2    0.0000
@<TRIPOS>BOND
     1    1    2 1
     2    3    1 1
     3    4    3 1
     4    5    3 1
     5    6    3 1
     6    7    6 1
     7    8    6 1
     8    9    6 1
     9   10    9 1
    10   11    9 1
    11   12   11 1
    12   13   11 1
    13   14    1 1
    14   15    9 1
    15   16   15 1
    16   17   15 1
    17   18   15 1
    18   19   14 1
    19   20   19 1
    20   21   19 1
    21   22   19 1
    22   23    1 1
    23   24   23 1
    24   25   23 1
    25   26   25 1
    26   27   25 1
    27   28   25 1
    28   29   23 1
    29   30   29 1
    30   31   29 1
    31   32   33 1
    32   33   34 ar
    33   34   35 1
    34   36   34 ar
    35   37   36 1
    36   38   36 ar
    37   39   38 ar
    38   40   39 1
    39   41   33 ar
    40   42   41 1
    41   43   38 1
    42   44   14 1
    43   45   44 1
    44   46   29 1
    45   47   32 2
    46   48   43 2
    47   49   43 2
    48   50   51 1
    49   52   50 1
    50   53   52 1
    51   54   52 1
    52   55   52 1
    53   56   55 1
    54   57   55 1
    55   58   55 1
    56   59   58 1
    57   60   58 1
    58   61   60 1
    59   62   60 1
    60   63   50 1
    61   64   58 1
    62   65   64 1
    63   66   64 1
    64   67   64 1
    65   68   63 1
    66   69   68 1
    67   70   68 1
    68   71   68 1
    69   72   50 1
    70   73   72 1
    71   74   72 1
    72   75   74 1
    73   76   74 1
    74   77   74 1
    75   78   72 1
    76   79   78 1
    77   80   78 1
    78   81   82 1
    79   82   83 ar
    80   83   84 1
    81   85   83 ar
    82   86   85 1
    83   87   85 ar
    84   88   87 ar
    85   89   88 1
    86   90   82 ar
    87   91   90 1
    88   92   87 1
    89   93   63 1
    90   94   93 1
    91   95   78 1
    92   96   81 2
    93   97   92 2
    94   98   92 2
    95   11   14 1
    96   32   46 1
    97   39   41 ar
    98   60   63 1
    99   81   95 1
   100   88   90 ar
@<TRIPOS>SUBSTRUCTURE
     1 RES1 1
     2 RES2 50

@<TRIPOS>CRYSIN
   6.5555    7.2872   17.9836  88.7670  87.0770  88.1710   1 1

