# MOL2 file generated by ConQuest
# Please check atom types

@<TRIPOS>MOLECULE
JEVGAT
    76    84     1
SMALL
NO_CHARGES
****
Generated from CSD

@<TRIPOS>ATOM
      1 O1        -0.8109    3.4044    3.9904 O.3       1 RES1    0.0000
      2 O2         0.6076   -2.2850    3.4590 O.2       1 RES1    0.0000
      3 N1        -0.0819    2.2722    3.3737 N.3       1 RES1    0.0000
      4 N2         1.1696   -1.3365    4.1513 N.pl3     1 RES1    0.0000
      5 C1        -0.4093    4.6909    3.3723 C.3       1 RES1    0.0000
      6 C2         1.1326    4.7029    3.2926 C.ar      1 RES1    0.0000
      7 C3         1.9648    5.6665    3.8195 C.ar      1 RES1    0.0000
      8 H1         1.6125    6.3905    4.3236 H         1 RES1    0.0000
      9 C4         3.3522    5.5542    3.5945 C.ar      1 RES1    0.0000
     10 H2         3.9465    6.2178    3.9235 H         1 RES1    0.0000
     11 C5         3.8445    4.4573    2.8810 C.ar      1 RES1    0.0000
     12 H3         4.7828    4.3717    2.7528 H         1 RES1    0.0000
     13 C6         3.0060    3.4936    2.3569 C.ar      1 RES1    0.0000
     14 H4         3.3572    2.7528    1.8770 H         1 RES1    0.0000
     15 C7         1.6417    3.6314    2.5478 C.ar      1 RES1    0.0000
     16 C8         0.5536    2.7083    2.0650 C.3       1 RES1    0.0000
     17 C9        -0.4162    3.5290    1.2276 C.ar      1 RES1    0.0000
     18 C10       -0.7730    3.3169   -0.0940 C.ar      1 RES1    0.0000
     19 H5        -0.4356    2.5664   -0.5682 H         1 RES1    0.0000
     20 C11       -1.6307    4.2153   -0.7149 C.ar      1 RES1    0.0000
     21 H6        -1.8767    4.0837   -1.6235 H         1 RES1    0.0000
     22 C12       -2.1206    5.2870   -0.0285 C.ar      1 RES1    0.0000
     23 H7        -2.7149    5.8861   -0.4643 H         1 RES1    0.0000
     24 C13       -1.7695    5.5211    1.2974 C.ar      1 RES1    0.0000
     25 H8        -2.1054    6.2779    1.7631 H         1 RES1    0.0000
     26 C14       -0.9091    4.6163    1.9268 C.ar      1 RES1    0.0000
     27 C15       -1.0009    5.7572    4.2581 C.3       1 RES1    0.0000
     28 H9        -1.9789    5.7132    4.2126 H         1 RES1    0.0000
     29 H10       -0.6994    6.6393    3.9534 H         1 RES1    0.0000
     30 H11       -0.7095    5.6129    5.1824 H         1 RES1    0.0000
     31 C16        0.9147    1.3268    1.5452 C.3       1 RES1    0.0000
     32 H12        1.6867    0.9510    2.0379 H         1 RES1    0.0000
     33 H13        1.1289    1.3532    0.5796 H         1 RES1    0.0000
     34 C17       -0.3667    0.5069    1.8086 C.3       1 RES1    0.0000
     35 H14       -0.1494   -0.4522    1.9211 H         1 RES1    0.0000
     36 H15       -1.0025    0.6030    1.0567 H         1 RES1    0.0000
     37 C18       -0.9707    1.0852    3.1103 C.3       1 RES1    0.0000
     38 C19       -2.4565    1.4060    2.9180 C.3       1 RES1    0.0000
     39 H16       -2.5536    2.1101    2.2430 H         1 RES1    0.0000
     40 H17       -2.8376    1.7120    3.7668 H         1 RES1    0.0000
     41 H18       -2.9287    0.6013    2.6190 H         1 RES1    0.0000
     42 C20        0.6431   -0.2248    4.5914 C.2       1 RES1    0.0000
     43 C21        1.5744    0.5319    5.4515 C.3       1 RES1    0.0000
     44 H19        1.3494    0.4194    6.4100 H         1 RES1    0.0000
     45 H20        1.5656    1.4967    5.2279 H         1 RES1    0.0000
     46 C22        2.9300   -0.1001    5.1226 C.3       1 RES1    0.0000
     47 H21        3.5044   -0.1340    5.9272 H         1 RES1    0.0000
     48 H22        3.3963    0.4187    4.4190 H         1 RES1    0.0000
     49 C23        2.6081   -1.5205    4.6255 C.3       1 RES1    0.0000
     50 C24        2.5933   -2.5656    5.7421 C.ar      1 RES1    0.0000
     51 C25        1.4582   -2.8137    6.4926 C.ar      1 RES1    0.0000
     52 H23        0.6534   -2.3466    6.2989 H         1 RES1    0.0000
     53 C26        1.4824   -3.7341    7.5222 C.ar      1 RES1    0.0000
     54 H24        0.7001   -3.8903    8.0377 H         1 RES1    0.0000
     55 C27        2.6508   -4.4325    7.8056 C.ar      1 RES1    0.0000
     56 H25        2.6647   -5.0728    8.5077 H         1 RES1    0.0000
     57 C28        3.7885   -4.1921    7.0651 C.ar      1 RES1    0.0000
     58 H26        4.5841   -4.6754    7.2573 H         1 RES1    0.0000
     59 C29        3.7872   -3.2422    6.0326 C.ar      1 RES1    0.0000
     60 C30        4.9985   -3.0041    5.1966 C.2       1 RES1    0.0000
     61 C31        4.7479   -2.5640    3.8067 C.ar      1 RES1    0.0000
     62 C32        5.6508   -2.8125    2.7856 C.ar      1 RES1    0.0000
     63 H27        6.4824   -3.2242    2.9921 H         1 RES1    0.0000
     64 C33        5.3753   -2.4828    1.4953 C.ar      1 RES1    0.0000
     65 H28        6.0040   -2.6858    0.8132 H         1 RES1    0.0000
     66 C34        4.1825   -1.8494    1.1664 C.ar      1 RES1    0.0000
     67 H29        3.9935   -1.6165    0.2649 H         1 RES1    0.0000
     68 C35        3.2730   -1.5624    2.1704 C.ar      1 RES1    0.0000
     69 H30        2.4678   -1.1080    1.9539 H         1 RES1    0.0000
     70 C36        3.5169   -1.9251    3.4820 C.ar      1 RES1    0.0000
     71 C37        6.2322   -3.1903    5.6694 C.2       1 RES1    0.0000
     72 H31        6.9833   -3.0382    5.1069 H         1 RES1    0.0000
     73 H32        6.3592   -3.4733    6.5666 H         1 RES1    0.0000
     74 C38       -0.7821    0.1293    4.3137 C.3       1 RES1    0.0000
     75 H33       -1.1613    0.5613    5.0556 H         1 RES1    0.0000
     76 H34       -1.3152   -0.6530    4.0872 H         1 RES1    0.0000
@<TRIPOS>BOND
     1    1    3 1
     2    2    4 1
     3    3   16 1
     4    4   42 2
     5    5    1 1
     6    6    5 1
     7    7    6 ar
     8    8    7 1
     9    9    7 ar
    10   10    9 1
    11   11    9 ar
    12   12   11 1
    13   13   11 ar
    14   14   13 1
    15   15    6 ar
    16   16   15 1
    17   17   16 1
    18   18   17 ar
    19   19   18 1
    20   20   18 ar
    21   21   20 1
    22   22   20 ar
    23   23   22 1
    24   24   22 ar
    25   25   24 1
    26   26    5 1
    27   27    5 1
    28   28   27 1
    29   29   27 1
    30   30   27 1
    31   31   16 1
    32   32   31 1
    33   33   31 1
    34   34   31 1
    35   35   34 1
    36   36   34 1
    37   37    3 1
    38   38   37 1
    39   39   38 1
    40   40   38 1
    41   41   38 1
    42   42   43 1
    43   43   44 1
    44   45   43 1
    45   46   43 1
    46   47   46 1
    47   48   46 1
    48   49    4 1
    49   50   49 1
    50   51   50 ar
    51   52   51 1
    52   53   51 ar
    53   54   53 1
    54   55   53 ar
    55   56   55 1
    56   57   55 ar
    57   58   57 1
    58   59   50 ar
    59   60   59 1
    60   61   60 1
    61   62   61 ar
    62   63   62 1
    63   64   62 ar
    64   65   64 1
    65   66   64 ar
    66   67   66 1
    67   68   66 ar
    68   69   68 1
    69   70   49 1
    70   71   60 2
    71   72   71 1
    72   73   71 1
    73   74   37 1
    74   75   74 1
    75   76   74 1
    76   13   15 ar
    77   17   26 ar
    78   24   26 ar
    79   34   37 1
    80   42   74 1
    81   46   49 1
    82   57   59 ar
    83   61   70 ar
    84   68   70 ar
@<TRIPOS>SUBSTRUCTURE
     1 RES1 1

@<TRIPOS>CRYSIN
   8.5060   11.7070   14.3510  93.2790  96.1290  92.5400   2 1

