# MOL2 file generated by ConQuest
# Please check atom types

@<TRIPOS>MOLECULE
JEVXIR
    26    26     1
SMALL
NO_CHARGES
****
Generated from CSD

@<TRIPOS>ATOM
      1 O1        -3.7046    0.4918    4.8449 O.3       1 RES1    0.0000
      2 O2        -4.6764    2.9991    0.7847 O.2       1 RES1    0.0000
      3 O3        -1.8238   -0.6333    1.5705 O.2       1 RES1    0.0000
      4 N1        -3.2174    0.4014    3.5421 N.3       1 RES1    0.0000
      5 C1        -3.2816    1.1771    1.2605 C.2       1 RES1    0.0000
      6 C2        -3.8519    2.1502    0.3728 C.2       1 RES1    0.0000
      7 C3        -3.4600    2.1464   -1.0936 C.3       1 RES1    0.0000
      8 C4        -2.0522    1.5843   -1.3537 C.3       1 RES1    0.0000
      9 C5        -1.9543    0.2137   -0.6796 C.3       1 RES1    0.0000
     10 C6        -2.3168    0.2031    0.7923 C.2       1 RES1    0.0000
     11 C7        -3.6628    1.2147    2.6164 C.2       1 RES1    0.0000
     12 C8        -1.8467    1.4389   -2.8711 C.3       1 RES1    0.0000
     13 C9        -0.9960    2.5179   -0.7609 C.3       1 RES1    0.0000
     14 H1        -3.5363    3.0704   -1.4415 H         1 RES1    0.0000
     15 H2        -1.0193   -0.1540   -0.7804 H         1 RES1    0.0000
     16 H3        -4.3030    1.8961    2.9264 H         1 RES1    0.0000
     17 H4        -0.9089    1.0972   -3.0565 H         1 RES1    0.0000
     18 H5        -0.0873    2.1656   -0.8454 H         1 RES1    0.0000
     19 H6        -1.0109    3.3976   -1.2139 H         1 RES1    0.0000
     20 H7        -2.9221    1.0106    5.3651 H         1 RES1    0.0000
     21 H8        -4.1574    1.6074   -1.5824 H         1 RES1    0.0000
     22 H9        -2.5639   -0.4139   -1.1164 H         1 RES1    0.0000
     23 H10       -1.8856    2.3485   -3.3383 H         1 RES1    0.0000
     24 H11       -2.4646    0.7892   -3.3274 H         1 RES1    0.0000
     25 H12       -1.0691    2.6661    0.1951 H         1 RES1    0.0000
     26 H13       -2.7028   -0.3657    3.4575 H         1 RES1    0.0000
@<TRIPOS>BOND
     1    1    4 1
     2    2    6 2
     3    3   10 2
     4    4   11 1
     5    5    6 1
     6    6    7 1
     7    7    8 1
     8    8    9 1
     9    9   10 1
    10   10    5 1
    11   11    5 2
    12   12    8 1
    13   13    8 1
    14   14    7 1
    15   15    9 1
    16   16   11 1
    17   17   12 1
    18   18   13 1
    19   19   13 1
    20   20    1 1
    21   21    7 1
    22   22    9 1
    23   23   12 1
    24   24   12 1
    25   25   13 1
    26   26    4 1
@<TRIPOS>SUBSTRUCTURE
     1 RES1 1

@<TRIPOS>CRYSIN
   8.8560    9.6250   16.2930  90.0000 138.3000  90.0000  14 1

