# MOL2 file generated by ConQuest
# Please check atom types

@<TRIPOS>MOLECULE
JEVYUH
    86    88     2
SMALL
USER_CHARGES
****
Generated from CSD

@<TRIPOS>ATOM
      1 O1        11.2326    3.8119    2.4019 O.2       1 RES1   -1.0000
      2 N1         8.9419    4.7021    3.0747 N.am      1 RES1    0.0000
      3 H1         9.5151    4.0688    2.9761 H         1 RES1    0.0000
      4 N2        11.5357    4.9724    1.8944 N.pl3     1 RES1    1.0000
      5 O2         6.9096    5.1335    3.9619 O.2       1 RES1    0.0000
      6 C1        10.6040    6.0376    1.9050 C.ar      1 RES1    0.0000
      7 C2         9.3056    5.9089    2.4992 C.ar      1 RES1    0.0000
      8 C3         7.8346    2.9321    4.3230 C.3       1 RES1    0.0000
      9 C4        10.9895    7.2622    1.2976 C.ar      1 RES1    0.0000
     10 C5        12.7708    5.1115    1.3602 C.ar      1 RES1    0.0000
     11 C6         7.8239    4.3572    3.7701 C.2       1 RES1    0.0000
     12 C7         8.4777    7.0166    2.4606 C.ar      1 RES1    0.0000
     13 H2         7.6273    6.9561    2.8322 H         1 RES1    0.0000
     14 C8         8.8737    8.2133    1.8824 C.ar      1 RES1    0.0000
     15 H3         8.2955    8.9421    1.8850 H         1 RES1    0.0000
     16 C9         8.8180    2.9228    5.4953 C.3       1 RES1    0.0000
     17 H4         9.7037    3.1210    5.1542 H         1 RES1    0.0000
     18 H5         8.5740    3.6374    6.1041 H         1 RES1    0.0000
     19 C10       12.2621    7.3594    0.7061 C.ar      1 RES1    0.0000
     20 H6        12.5162    8.1466    0.2811 H         1 RES1    0.0000
     21 C11       10.0897    8.3291    1.3215 C.ar      1 RES1    0.0000
     22 H7        10.3379    9.1398    0.9392 H         1 RES1    0.0000
     23 C12        8.8866    1.6322    6.2799 C.3       1 RES1    0.0000
     24 H8         8.0388    1.4658    6.6982 H         1 RES1    0.0000
     25 H9         9.5683    1.7021    6.9527 H         1 RES1    0.0000
     26 H10        9.0968    0.9071    5.6858 H         1 RES1    0.0000
     27 C13        8.2156    1.9224    3.2452 C.3       1 RES1    0.0000
     28 H11        9.1037    2.1084    2.9321 H         1 RES1    0.0000
     29 H12        7.5978    1.9871    2.5138 H         1 RES1    0.0000
     30 H13        8.1840    1.0356    3.6129 H         1 RES1    0.0000
     31 C14       13.1178    6.3146    0.7580 C.ar      1 RES1    0.0000
     32 H14       13.9622    6.4016    0.3783 H         1 RES1    0.0000
     33 C15        6.4139    2.6212    4.8092 C.3       1 RES1    0.0000
     34 H15        6.3694    1.7089    5.1049 H         1 RES1    0.0000
     35 H16        5.7923    2.7543    4.0898 H         1 RES1    0.0000
     36 H17        6.1905    3.2050    5.5379 H         1 RES1    0.0000
     37 C16       13.6499    3.9240    1.4894 C.3       1 RES1    0.0000
     38 H18       13.2270    3.1756    1.0418 H         1 RES1    0.0000
     39 H19       13.7279    3.6969    2.4299 H         1 RES1    0.0000
     40 C17       15.0467    4.1066    0.9165 C.3       1 RES1    0.0000
     41 H20       14.9862    4.2666   -0.0280 H         1 RES1    0.0000
     42 H21       15.5638    3.3140    1.0751 H         1 RES1    0.0000
     43 H22       15.4708    4.8562    1.3415 H         1 RES1    0.0000
     44 O3         1.3549   10.1778    4.2470 O.2       2 RES2   -1.0000
     45 N3         3.6825    9.4185    3.5263 N.am      2 RES2    0.0000
     46 H23        3.0650   10.0136    3.5982 H         2 RES2    0.0000
     47 N4         1.1008    8.9784    4.7106 N.pl3     2 RES2    1.0000
     48 C18        2.0727    7.9727    4.6413 C.ar      2 RES2    0.0000
     49 O4         5.7693    9.1083    2.6764 O.2       2 RES2    0.0000
     50 C19       -0.1166    8.7935    5.2462 C.ar      2 RES2    0.0000
     51 C20        1.7558    6.7147    5.1929 C.ar      2 RES2    0.0000
     52 C21        3.3634    8.1741    4.0392 C.ar      2 RES2    0.0000
     53 C22        0.4868    6.5443    5.8017 C.ar      2 RES2    0.0000
     54 H24        0.2744    5.7328    6.2040 H         2 RES2    0.0000
     55 C23        4.8392    9.8443    2.9215 C.2       2 RES2    0.0000
     56 C24        4.2161    7.1096    4.0419 C.ar      2 RES2    0.0000
     57 H25        5.0573    7.2189    3.6595 H         2 RES2    0.0000
     58 C25        3.8953    5.8734    4.5854 C.ar      2 RES2    0.0000
     59 H26        4.5133    5.1792    4.5561 H         2 RES2    0.0000
     60 C26       -0.4214    7.5522    5.8030 C.ar      2 RES2    0.0000
     61 H27       -1.2601    7.4140    6.1814 H         2 RES2    0.0000
     62 C27        2.6810    5.6743    5.1609 C.ar      2 RES2    0.0000
     63 H28        2.4694    4.8488    5.5326 H         2 RES2    0.0000
     64 C28        4.8412   11.3424    2.5991 C.3       2 RES2    0.0000
     65 C29        3.7904   11.6618    1.5413 C.3       2 RES2    0.0000
     66 H29        3.7637   12.6229    1.4161 H         2 RES2    0.0000
     67 H30        2.9225   11.3873    1.8784 H         2 RES2    0.0000
     68 C30       -1.0452    9.9485    5.1955 C.3       2 RES2    0.0000
     69 H31       -1.1467   10.2233    4.2710 H         2 RES2    0.0000
     70 H32       -0.6469   10.6883    5.6791 H         2 RES2    0.0000
     71 C31        6.2517   11.6833    2.0716 C.3       2 RES2    0.0000
     72 H33        6.8978   11.5255    2.7630 H         2 RES2    0.0000
     73 H34        6.2813   12.6058    1.8091 H         2 RES2    0.0000
     74 H35        6.4511   11.1287    1.3135 H         2 RES2    0.0000
     75 C32        4.5459   12.1817    3.8447 C.3       2 RES2    0.0000
     76 H36        3.6652   11.9758    4.1684 H         2 RES2    0.0000
     77 H37        4.5943   13.1137    3.6209 H         2 RES2    0.0000
     78 H38        5.1915   11.9813    4.5254 H         2 RES2    0.0000
     79 C33       -2.4309    9.6717    5.7777 C.3       2 RES2    0.0000
     80 H39       -2.8355    8.9394    5.3074 H         2 RES2    0.0000
     81 H40       -2.9789   10.4546    5.6858 H         2 RES2    0.0000
     82 H41       -2.3474    9.4482    6.7076 H         2 RES2    0.0000
     83 C34        4.0138   10.9968    0.1745 C.3       2 RES2    0.0000
     84 H42        4.7623   11.4094   -0.2624 H         2 RES2    0.0000
     85 H43        3.2275   11.1037   -0.3664 H         2 RES2    0.0000
     86 H44        4.1918   10.0619    0.2984 H         2 RES2    0.0000
@<TRIPOS>BOND
     1    1    4 1
     2    2    3 1
     3    4    6 ar
     4    5   11 2
     5    6    7 ar
     6    7    2 1
     7    8   11 1
     8    9    6 ar
     9   10    4 ar
    10   11    2 1
    11   12    7 ar
    12   13   12 1
    13   14   12 ar
    14   15   14 1
    15   16    8 1
    16   17   16 1
    17   18   16 1
    18   19    9 ar
    19   20   19 1
    20   21    9 ar
    21   22   21 1
    22   23   16 1
    23   24   23 1
    24   25   23 1
    25   26   23 1
    26   27    8 1
    27   28   27 1
    28   29   27 1
    29   30   27 1
    30   31   10 ar
    31   32   31 1
    32   33    8 1
    33   34   33 1
    34   35   33 1
    35   36   33 1
    36   37   10 1
    37   38   37 1
    38   39   37 1
    39   40   37 1
    40   41   40 1
    41   42   40 1
    42   43   40 1
    43   44   47 1
    44   45   46 1
    45   47   48 ar
    46   48   51 ar
    47   49   55 2
    48   50   47 ar
    49   51   53 ar
    50   52   45 1
    51   53   54 1
    52   55   45 1
    53   56   52 ar
    54   57   56 1
    55   58   56 ar
    56   59   58 1
    57   60   50 ar
    58   61   60 1
    59   62   51 ar
    60   63   62 1
    61   64   55 1
    62   65   64 1
    63   66   65 1
    64   67   65 1
    65   68   50 1
    66   69   68 1
    67   70   68 1
    68   71   64 1
    69   72   71 1
    70   73   71 1
    71   74   71 1
    72   75   64 1
    73   76   75 1
    74   77   75 1
    75   78   75 1
    76   79   68 1
    77   80   79 1
    78   81   79 1
    79   82   79 1
    80   83   65 1
    81   84   83 1
    82   85   83 1
    83   86   83 1
    84   14   21 ar
    85   19   31 ar
    86   48   52 ar
    87   53   60 ar
    88   58   62 ar
@<TRIPOS>SUBSTRUCTURE
     1 RES1 1
     2 RES2 44

@<TRIPOS>CRYSIN
   9.7920   11.7250   14.0630  71.9950  82.2170  80.2190   2 1

