# MOL2 file generated by ConQuest
# Please check atom types

@<TRIPOS>MOLECULE
JEWHAX
   123   112     3
SMALL
NO_CHARGES
****
Generated from CSD

@<TRIPOS>ATOM
      1 O1         4.7742    4.8463    2.8439 O.2       1 RES1    0.0000
      2 C1         4.3936    3.8906    2.2512 C.2       1 RES1    0.0000
      3 N1         3.7385    2.6253    0.4467 N.2       1 RES1    0.0000
      4 O2         4.2443    3.8968    0.8860 O.3       1 RES1    0.0000
      5 C2         4.0001    2.5204    2.7728 C.3       1 RES1    0.0000
      6 C3         3.5936    1.8640    1.4725 C.2       1 RES1    0.0000
      7 O3        -1.3838    5.9234    1.8681 O.3       1 RES1    0.0000
      8 C4         5.2674    1.9289    3.4517 C.3       1 RES1    0.0000
      9 H1         5.6121    2.5759    4.1168 H         1 RES1    0.0000
     10 H2         5.0217    1.0997    3.9333 H         1 RES1    0.0000
     11 C5         6.3570    1.6161    2.4596 C.2       1 RES1    0.0000
     12 H3         6.2934    0.8137    1.9542 H         1 RES1    0.0000
     13 C6         7.4083    2.4154    2.2562 C.2       1 RES1    0.0000
     14 H4         7.4472    3.2055    2.7815 H         1 RES1    0.0000
     15 C7         8.5106    2.2056    1.3078 C.ar      1 RES1    0.0000
     16 C8         8.5978    1.0802    0.4842 C.ar      1 RES1    0.0000
     17 H5         7.8957    0.4393    0.4954 H         1 RES1    0.0000
     18 C9         9.6818    0.8847   -0.3444 C.ar      1 RES1    0.0000
     19 H6         9.7254    0.1090   -0.8910 H         1 RES1    0.0000
     20 C10       10.7090    1.8188   -0.3819 C.ar      1 RES1    0.0000
     21 H7        11.4612    1.6799   -0.9459 H         1 RES1    0.0000
     22 C11       10.6286    2.9432    0.4018 C.ar      1 RES1    0.0000
     23 H8        11.3240    3.5882    0.3706 H         1 RES1    0.0000
     24 C12        9.5387    3.1458    1.2392 C.ar      1 RES1    0.0000
     25 H9         9.4925    3.9328    1.7695 H         1 RES1    0.0000
     26 C13        3.0294    0.5154    1.2878 C.ar      1 RES1    0.0000
     27 C14        2.2768    0.2438    0.1535 C.ar      1 RES1    0.0000
     28 H10        2.1390    0.9186   -0.5004 H         1 RES1    0.0000
     29 C15        1.7302   -1.0195   -0.0212 C.ar      1 RES1    0.0000
     30 H11        1.2296   -1.2077   -0.8061 H         1 RES1    0.0000
     31 C16        1.8979   -1.9885    0.9097 C.ar      1 RES1    0.0000
     32 H12        1.4920   -2.8393    0.7899 H         1 RES1    0.0000
     33 C17        2.6508   -1.7375    2.0191 C.ar      1 RES1    0.0000
     34 H13        2.7885   -2.4257    2.6605 H         1 RES1    0.0000
     35 C18        3.2097   -0.5061    2.2175 C.ar      1 RES1    0.0000
     36 H14        3.7274   -0.3456    2.9987 H         1 RES1    0.0000
     37 C19        2.8446    2.6582    3.7873 C.3       1 RES1    0.0000
     38 H15        2.5110    1.7550    4.0219 H         1 RES1    0.0000
     39 H16        3.1903    3.0759    4.6159 H         1 RES1    0.0000
     40 C20        1.6864    3.4894    3.2670 C.ar      1 RES1    0.0000
     41 C21        0.6603    2.9216    2.5182 C.ar      1 RES1    0.0000
     42 H17        0.6694    1.9885    2.3398 H         1 RES1    0.0000
     43 C22       -0.3868    3.7085    2.0266 C.ar      1 RES1    0.0000
     44 H18       -1.0880    3.3094    1.5224 H         1 RES1    0.0000
     45 C23       -0.3991    5.0490    2.2724 C.ar      1 RES1    0.0000
     46 C24        0.6151    5.6333    3.0261 C.ar      1 RES1    0.0000
     47 H19        0.6017    6.5653    3.2133 H         1 RES1    0.0000
     48 C25        1.6398    4.8422    3.4991 C.ar      1 RES1    0.0000
     49 H20        2.3385    5.2454    4.0007 H         1 RES1    0.0000
     50 C26       -2.4572    5.3452    1.0819 C.3       1 RES1    0.0000
     51 H21       -2.0880    4.9533    0.2633 H         1 RES1    0.0000
     52 H22       -3.1047    6.0437    0.8473 H         1 RES1    0.0000
     53 H23       -2.9042    4.6478    1.6048 H         1 RES1    0.0000
     54 O4         8.7092    5.5777    3.3805 O.2       2 RES2    0.0000
     55 N2         9.9910    7.7205    5.7353 N.2       2 RES2    0.0000
     56 C27        9.1484    6.5293    3.9670 C.2       2 RES2    0.0000
     57 O5         9.3811    6.4830    5.3210 O.3       2 RES2    0.0000
     58 C28        9.5491    7.8913    3.4392 C.3       2 RES2    0.0000
     59 C29       10.1151    8.4756    4.7120 C.2       2 RES2    0.0000
     60 O6         4.0343    8.9169    6.7498 O.3       2 RES2    0.0000
     61 C30       10.5979    7.7123    2.3223 C.3       2 RES2    0.0000
     62 H24       10.2980    7.0097    1.6934 H         2 RES2    0.0000
     63 H25       10.6950    8.5590    1.8182 H         2 RES2    0.0000
     64 C31       11.9299    7.3224    2.9300 C.2       2 RES2    0.0000
     65 H26       12.4997    7.9860    3.3007 H         2 RES2    0.0000
     66 C32       12.2887    6.0468    2.9388 C.2       2 RES2    0.0000
     67 H27       11.7325    5.3967    2.5270 H         2 RES2    0.0000
     68 C33       13.5394    5.6302    3.5777 C.ar      2 RES2    0.0000
     69 C34       14.0163    4.3577    3.2819 C.ar      2 RES2    0.0000
     70 H28       13.5434    3.7929    2.6830 H         2 RES2    0.0000
     71 C35       15.2116    3.9205    3.8872 C.ar      2 RES2    0.0000
     72 H29       15.5415    3.0502    3.7012 H         2 RES2    0.0000
     73 C36       15.9040    4.7486    4.7470 C.ar      2 RES2    0.0000
     74 H30       16.7422    4.4698    5.0976 H         2 RES2    0.0000
     75 C37       15.3865    5.9727    5.1014 C.ar      2 RES2    0.0000
     76 H31       15.7969    6.4861    5.7889 H         2 RES2    0.0000
     77 C38       14.2323    6.4624    4.4200 C.ar      2 RES2    0.0000
     78 H32       13.9414    7.3584    4.5510 H         2 RES2    0.0000
     79 C39       10.7896    9.7883    4.8705 C.ar      2 RES2    0.0000
     80 C40       10.7923   10.7512    3.8784 C.ar      2 RES2    0.0000
     81 H33       10.3370   10.5866    3.0623 H         2 RES2    0.0000
     82 C41       11.4564   11.9630    4.0669 C.ar      2 RES2    0.0000
     83 H34       11.4418   12.6214    3.3818 H         2 RES2    0.0000
     84 C42       12.1389   12.2109    5.2461 C.ar      2 RES2    0.0000
     85 H35       12.6030   13.0308    5.3734 H         2 RES2    0.0000
     86 C43       12.1332   11.2480    6.2319 C.ar      2 RES2    0.0000
     87 H36       12.5812   11.4188    7.0518 H         2 RES2    0.0000
     88 C44       11.4887   10.0403    6.0572 C.ar      2 RES2    0.0000
     89 H37       11.5191    9.3819    6.7411 H         2 RES2    0.0000
     90 C45        8.2568    8.5950    2.9300 C.3       2 RES2    0.0000
     91 H38        8.4872    9.5187    2.6555 H         2 RES2    0.0000
     92 H39        7.9334    8.1166    2.1251 H         2 RES2    0.0000
     93 C46        7.1414    8.6587    3.9321 C.ar      2 RES2    0.0000
     94 C47        7.0861    9.5908    4.9753 C.ar      2 RES2    0.0000
     95 H40        7.7881   10.2244    5.0627 H         2 RES2    0.0000
     96 C48        6.0314    9.6226    5.8950 C.ar      2 RES2    0.0000
     97 H41        6.0358   10.2697    6.5901 H         2 RES2    0.0000
     98 C49        5.0313    8.7626    5.8102 C.ar      2 RES2    0.0000
     99 C50        5.0228    7.8018    4.8293 C.ar      2 RES2    0.0000
    100 H42        4.3057    7.1815    4.7644 H         2 RES2    0.0000
    101 C51        6.1079    7.7576    3.9159 C.ar      2 RES2    0.0000
    102 H43        6.1170    7.0694    3.2620 H         2 RES2    0.0000
    103 C52        2.8488    8.2010    6.5801 C.3       2 RES2    0.0000
    104 H44        2.5286    8.3131    5.6604 H         2 RES2    0.0000
    105 H45        2.1727    8.5353    7.2053 H         2 RES2    0.0000
    106 H46        3.0129    7.2504    6.7548 H         2 RES2    0.0000
    107 H47       11.0355    8.5826    2.1451 Du        3 SUP3    0.0000
    108 H48       10.1435    7.4263    1.4912 Du        3 SUP3    0.0000
    109 C53       11.6812    6.6620    2.7004 Du        3 SUP3    0.0000
    110 H49       11.5264    5.7536    2.4671 Du        3 SUP3    0.0000
    111 C54       12.7685    6.9562    3.3119 Du        3 SUP3    0.0000
    112 H50       12.9275    7.8707    3.5190 Du        3 SUP3    0.0000
    113 C55       13.7562    6.0108    3.7000 Du        3 SUP3    0.0000
    114 C56       13.6789    4.6776    3.3256 Du        3 SUP3    0.0000
    115 H51       12.9252    4.3474    2.8489 Du        3 SUP3    0.0000
    116 C57       14.7748    3.8011    3.6825 Du        3 SUP3    0.0000
    117 H52       14.8081    2.9113    3.3518 Du        3 SUP3    0.0000
    118 C58       15.7704    4.2754    4.5099 Du        3 SUP3    0.0000
    119 H53       16.4459    3.6797    4.8156 Du        3 SUP3    0.0000
    120 C59       15.8084    5.6117    4.9079 Du        3 SUP3    0.0000
    121 H54       16.5221    5.9347    5.4420 Du        3 SUP3    0.0000
    122 C60       14.7643    6.4799    4.5049 Du        3 SUP3    0.0000
    123 H55       14.7626    7.3862    4.7906 Du        3 SUP3    0.0000
@<TRIPOS>BOND
     1    1    2 2
     2    2    4 1
     3    3    4 1
     4    5    2 1
     5    6    3 2
     6    7   45 1
     7    8    5 1
     8    9    8 1
     9   10    8 1
    10   11    8 1
    11   12   11 1
    12   13   11 2
    13   14   13 1
    14   15   13 1
    15   16   15 ar
    16   17   16 1
    17   18   16 ar
    18   19   18 1
    19   20   18 ar
    20   21   20 1
    21   22   20 ar
    22   23   22 1
    23   24   15 ar
    24   25   24 1
    25   26    6 1
    26   27   26 ar
    27   28   27 1
    28   29   27 ar
    29   30   29 1
    30   31   29 ar
    31   32   31 1
    32   33   31 ar
    33   34   33 1
    34   35   26 ar
    35   36   35 1
    36   37    5 1
    37   38   37 1
    38   39   37 1
    39   40   37 1
    40   41   40 ar
    41   42   41 1
    42   43   41 ar
    43   44   43 1
    44   45   43 ar
    45   46   45 ar
    46   47   46 1
    47   48   40 ar
    48   49   48 1
    49   50    7 1
    50   51   50 1
    51   52   50 1
    52   53   50 1
    53   54   56 2
    54   55   57 1
    55   56   57 1
    56   58   56 1
    57   59   55 2
    58   60   98 1
    59   61   58 1
    60   62   61 1
    61   63   61 1
    62   64   61 1
    63   65   64 1
    64   66   64 2
    65   67   66 1
    66   68   66 1
    67   69   68 ar
    68   70   69 1
    69   71   69 ar
    70   72   71 1
    71   73   71 ar
    72   74   73 1
    73   75   73 ar
    74   76   75 1
    75   77   68 ar
    76   78   77 1
    77   79   59 1
    78   80   79 ar
    79   81   80 1
    80   82   80 ar
    81   83   82 1
    82   84   82 ar
    83   85   84 1
    84   86   84 ar
    85   87   86 1
    86   88   79 ar
    87   89   88 1
    88   90   58 1
    89   91   90 1
    90   92   90 1
    91   93   90 1
    92   94   93 ar
    93   95   94 1
    94   96   94 ar
    95   97   96 1
    96   98   96 ar
    97   99   98 ar
    98  100   99 1
    99  101   93 ar
   100  102  101 1
   101  103   60 1
   102  104  103 1
   103  105  103 1
   104  106  103 1
   105    5    6 1
   106   22   24 ar
   107   33   35 ar
   108   46   48 ar
   109   58   59 1
   110   75   77 ar
   111   86   88 ar
   112   99  101 ar
@<TRIPOS>SUBSTRUCTURE
     1 RES1 1
     2 RES2 54
     3 SUP3 107

@<TRIPOS>CRYSIN
  32.9480   10.2872   13.4847  90.0000 112.2700  90.0000   5 1

