# MOL2 file generated by ConQuest
# Please check atom types

@<TRIPOS>MOLECULE
JEXBEW
    54    55     1
SMALL
NO_CHARGES
****
Generated from CSD

@<TRIPOS>ATOM
      1 C1         2.8194    2.0027   -0.4088 C.3       1 RES1    0.0000
      2 C2         3.1982    2.2823    1.0935 C.3       1 RES1    0.0000
      3 H1         4.0450    2.7749    1.0785 H         1 RES1    0.0000
      4 C3         2.7291    3.3238   -1.0674 C.1       1 RES1    0.0000
      5 C4         2.1839    3.1886    1.7933 C.3       1 RES1    0.0000
      6 H2         1.3434    2.7303    1.8686 H         1 RES1    0.0000
      7 H3         2.0666    3.9918    1.2805 H         1 RES1    0.0000
      8 H4         2.5056    3.4132    2.6698 H         1 RES1    0.0000
      9 C5         2.5744    0.3521    2.5778 C.2       1 RES1    0.0000
     10 H5         2.8234   -0.4227    3.0265 H         1 RES1    0.0000
     11 H6         1.7000    0.6648    2.6391 H         1 RES1    0.0000
     12 C6         1.4700    1.2842   -0.5671 C.3       1 RES1    0.0000
     13 H7         1.5414    0.4059   -0.1616 H         1 RES1    0.0000
     14 H8         0.7989    1.7800   -0.0711 H         1 RES1    0.0000
     15 C7         6.6699   -0.7185    2.1528 C.ar      1 RES1    0.0000
     16 C8         3.4607    1.0085    1.8518 C.2       1 RES1    0.0000
     17 C9         5.1938   -0.5903    2.2545 C.3       1 RES1    0.0000
     18 H9         4.7712   -1.3263    1.7863 H         1 RES1    0.0000
     19 H10        4.9280   -0.6330    3.1867 H         1 RES1    0.0000
     20 C10        0.9851    1.1153   -1.9940 C.3       1 RES1    0.0000
     21 H11        1.0266    1.9606   -2.4468 H         1 RES1    0.0000
     22 H12        0.0778    0.7988   -1.9884 H         1 RES1    0.0000
     23 H13        1.5437    0.4803   -2.4482 H         1 RES1    0.0000
     24 C11        7.5017    0.3288    1.8142 C.ar      1 RES1    0.0000
     25 H14        7.1325    1.1528    1.5941 H         1 RES1    0.0000
     26 C12        7.2429   -1.9335    2.4691 C.ar      1 RES1    0.0000
     27 H15        6.6994   -2.6571    2.6865 H         1 RES1    0.0000
     28 C13        8.6190   -2.0843    2.4649 C.ar      1 RES1    0.0000
     29 H16        8.9957   -2.9063    2.6809 H         1 RES1    0.0000
     30 C14        8.8680    0.1754    1.7989 C.ar      1 RES1    0.0000
     31 H17        9.4135    0.8868    1.5537 H         1 RES1    0.0000
     32 C15        9.4232   -1.0311    2.1458 C.ar      1 RES1    0.0000
     33 H18       10.3482   -1.1302    2.1640 H         1 RES1    0.0000
     34 C16        9.7566    3.5355   -1.3297 C.ar      1 RES1    0.0000
     35 C17        7.4358    2.0940   -1.4497 C.ar      1 RES1    0.0000
     36 C18        7.4166    3.4203   -1.0536 C.ar      1 RES1    0.0000
     37 H19        6.6106    3.8210   -0.8207 H         1 RES1    0.0000
     38 C19        9.8088    2.2209   -1.7055 C.ar      1 RES1    0.0000
     39 H20       10.6230    1.8189   -1.9104 H         1 RES1    0.0000
     40 C20        6.2081    1.2661   -1.5453 C.2       1 RES1    0.0000
     41 C21        8.6397    1.5062   -1.7724 C.ar      1 RES1    0.0000
     42 H21        8.6589    0.6156   -2.0386 H         1 RES1    0.0000
     43 C22        8.5833    4.1498   -1.0005 C.ar      1 RES1    0.0000
     44 H22        8.5711    5.0443   -0.7469 H         1 RES1    0.0000
     45 O1         4.7624    0.6441    1.6917 O.3       1 RES1    0.0000
     46 C23        3.8938    1.1807   -1.1175 C.3       1 RES1    0.0000
     47 H23        3.9919    0.3198   -0.6828 H         1 RES1    0.0000
     48 H24        3.6396    1.0292   -2.0413 H         1 RES1    0.0000
     49 O2         5.1351    1.9050   -1.0621 O.3       1 RES1    0.0000
     50 O3        12.0531    3.7381   -1.4851 O.2       1 RES1    0.0000
     51 O4         6.1605    0.1566   -1.9991 O.2       1 RES1    0.0000
     52 O5        10.9226    5.5207   -1.1139 O.2       1 RES1    0.0000
     53 N1        10.9970    4.3200   -1.2984 N.pl3     1 RES1    0.0000
     54 N2         2.6336    4.3524   -1.5592 N.1       1 RES1    0.0000
@<TRIPOS>BOND
     1    1    2 1
     2    2    3 1
     3    4    1 1
     4    5    2 1
     5    6    5 1
     6    7    5 1
     7    8    5 1
     8    9   10 1
     9   11    9 1
    10   12    1 1
    11   13   12 1
    12   14   12 1
    13   15   17 1
    14   16    2 1
    15   17   18 1
    16   19   17 1
    17   20   12 1
    18   21   20 1
    19   22   20 1
    20   23   20 1
    21   24   15 ar
    22   25   24 1
    23   26   15 ar
    24   27   26 1
    25   28   26 ar
    26   29   28 1
    27   30   24 ar
    28   31   30 1
    29   32   28 ar
    30   33   32 1
    31   34   38 ar
    32   35   36 ar
    33   36   37 1
    34   38   39 1
    35   40   35 1
    36   41   35 ar
    37   42   41 1
    38   43   34 ar
    39   44   43 1
    40   45   16 1
    41   46    1 1
    42   47   46 1
    43   48   46 1
    44   49   40 1
    45   50   53 2
    46   51   40 2
    47   52   53 2
    48   53   34 1
    49   54    4 3
    50    9   16 2
    51   17   45 1
    52   30   32 ar
    53   36   43 ar
    54   38   41 ar
    55   46   49 1
@<TRIPOS>SUBSTRUCTURE
     1 RES1 1

@<TRIPOS>CRYSIN
  23.4903    6.4729   14.3144  90.0000 103.2370  90.0000  14 1

