# MOL2 file generated by ConQuest
# Please check atom types

@<TRIPOS>MOLECULE
JEXFOH
    66    68     1
SMALL
NO_CHARGES
****
Generated from CSD

@<TRIPOS>ATOM
      1 C1        -0.1682    0.9819    4.5343 C.3       1 RES1    0.0000
      2 C2        -0.6353    0.2536    3.2894 C.3       1 RES1    0.0000
      3 O1         0.4289   -0.2599    2.4933 O.3       1 RES1    0.0000
      4 C3         1.3512   -1.1254    3.1527 C.3       1 RES1    0.0000
      5 C4         2.5240   -0.3439    3.7154 C.3       1 RES1    0.0000
      6 C5         2.1605    0.6715    4.7986 C.3       1 RES1    0.0000
      7 N1         1.5067   -0.0442    5.9023 N.3       1 RES1    0.0000
      8 O2         0.0920    0.0000    5.5777 O.3       1 RES1    0.0000
      9 C6         1.1447    1.7247    4.3441 C.3       1 RES1    0.0000
     10 C7         1.7751   -2.1119    2.0434 C.3       1 RES1    0.0000
     11 C8         2.8779   -3.0911    2.4147 C.3       1 RES1    0.0000
     12 C9         2.5293   -3.9836    3.5821 C.3       1 RES1    0.0000
     13 O3         0.5828   -2.8519    1.7267 O.3       1 RES1    0.0000
     14 C10        0.1359   -2.7788    0.4533 C.2       1 RES1    0.0000
     15 O4         0.7817   -2.3131   -0.4385 O.2       1 RES1    0.0000
     16 C11       -1.2353   -3.3735    0.3531 C.3       1 RES1    0.0000
     17 O5         3.1019   -3.9529    1.2871 O.3       1 RES1    0.0000
     18 C12        3.9365   -3.5125    0.3178 C.2       1 RES1    0.0000
     19 O6         4.5648   -2.4999    0.4089 O.2       1 RES1    0.0000
     20 C13        3.9581   -4.4547   -0.8406 C.3       1 RES1    0.0000
     21 O7         3.7226   -4.7138    3.9797 O.3       1 RES1    0.0000
     22 C14        4.1131   -4.6993    5.1859 C.2       1 RES1    0.0000
     23 O8         3.3781   -4.3419    6.0560 O.2       1 RES1    0.0000
     24 C15        5.3407   -5.4457    5.4433 C.3       1 RES1    0.0000
     25 O9         3.1176    0.3574    2.5924 O.3       1 RES1    0.0000
     26 C16        4.4503    0.4801    2.5126 C.2       1 RES1    0.0000
     27 O10        5.1711    0.0199    3.3202 O.2       1 RES1    0.0000
     28 C17        4.8329    1.2202    1.3007 C.3       1 RES1    0.0000
     29 C18        1.6305    0.6742    7.1950 C.3       1 RES1    0.0000
     30 C19        3.0030    0.4630    7.7850 C.ar      1 RES1    0.0000
     31 C20        3.8181    1.5352    8.1028 C.ar      1 RES1    0.0000
     32 C21        5.0562    1.3276    8.7008 C.ar      1 RES1    0.0000
     33 C22        5.4653    0.1029    8.9673 C.ar      1 RES1    0.0000
     34 C23        4.6879   -0.9422    8.6780 C.ar      1 RES1    0.0000
     35 C24        3.4637   -0.7897    8.0846 C.ar      1 RES1    0.0000
     36 H1        -0.9256    1.6678    4.7701 H         1 RES1    0.0000
     37 H2        -1.1946    0.9215    2.7028 H         1 RES1    0.0000
     38 H3        -1.2457   -0.5487    3.5833 H         1 RES1    0.0000
     39 H4         0.9406   -1.6200    3.9819 H         1 RES1    0.0000
     40 H5         3.1690   -1.0243    4.1858 H         1 RES1    0.0000
     41 H6         3.0575    1.1489    5.0606 H         1 RES1    0.0000
     42 H7         1.1885    2.5848    4.9432 H         1 RES1    0.0000
     43 H8         1.2917    1.9909    3.3384 H         1 RES1    0.0000
     44 H9         2.1793   -1.5550    1.2495 H         1 RES1    0.0000
     45 H10        3.7145   -2.5171    2.6812 H         1 RES1    0.0000
     46 H11        1.7783   -4.6605    3.2985 H         1 RES1    0.0000
     47 H12        2.1880   -3.3988    4.3851 H         1 RES1    0.0000
     48 H13       -1.5711   -3.3104   -0.6378 H         1 RES1    0.0000
     49 H14       -1.2009   -4.3798    0.6492 H         1 RES1    0.0000
     50 H15       -1.8918   -2.8456    0.9795 H         1 RES1    0.0000
     51 H16        3.3103   -5.2589   -0.6492 H         1 RES1    0.0000
     52 H17        3.6447   -3.9511   -1.7074 H         1 RES1    0.0000
     53 H18        4.9340   -4.8166   -0.9784 H         1 RES1    0.0000
     54 H19        5.8231   -5.6506    4.5332 H         1 RES1    0.0000
     55 H20        5.9753   -4.8753    6.0549 H         1 RES1    0.0000
     56 H21        5.1069   -6.3482    5.9262 H         1 RES1    0.0000
     57 H22        5.8776    1.3041    1.2586 H         1 RES1    0.0000
     58 H23        4.4880    0.7040    0.4533 H         1 RES1    0.0000
     59 H24        4.4042    2.1777    1.3258 H         1 RES1    0.0000
     60 H25        0.9073    0.3105    7.8636 H         1 RES1    0.0000
     61 H26        1.4762    1.7003    7.0367 H         1 RES1    0.0000
     62 H27        3.5131    2.4656    7.9001 H         1 RES1    0.0000
     63 H28        5.6364    2.1091    8.9286 H         1 RES1    0.0000
     64 H29        6.3606   -0.0424    9.3865 H         1 RES1    0.0000
     65 H30        5.0079   -1.8628    8.8990 H         1 RES1    0.0000
     66 H31        2.9048   -1.5920    7.8705 H         1 RES1    0.0000
@<TRIPOS>BOND
     1    1    2 1
     2    2    3 1
     3    3    4 1
     4    4    5 1
     5    5    6 1
     6    6    7 1
     7    7    8 1
     8    8    1 1
     9    9    1 1
    10   10    4 1
    11   11   10 1
    12   12   11 1
    13   13   10 1
    14   14   13 1
    15   15   14 2
    16   16   14 1
    17   17   11 1
    18   18   17 1
    19   19   18 2
    20   20   18 1
    21   21   12 1
    22   22   21 1
    23   23   22 2
    24   24   22 1
    25   25    5 1
    26   26   25 1
    27   27   26 2
    28   28   26 1
    29   29    7 1
    30   30   29 1
    31   31   30 ar
    32   32   31 ar
    33   33   32 ar
    34   34   33 ar
    35   35   30 ar
    36   36    1 1
    37   37    2 1
    38   38    2 1
    39   39    4 1
    40   40    5 1
    41   41    6 1
    42   42    9 1
    43   43    9 1
    44   44   10 1
    45   45   11 1
    46   46   12 1
    47   47   12 1
    48   48   16 1
    49   49   16 1
    50   50   16 1
    51   51   20 1
    52   52   20 1
    53   53   20 1
    54   54   24 1
    55   55   24 1
    56   56   24 1
    57   57   28 1
    58   58   28 1
    59   59   28 1
    60   60   29 1
    61   61   29 1
    62   62   31 1
    63   63   32 1
    64   64   33 1
    65   65   34 1
    66   66   35 1
    67    6    9 1
    68   34   35 ar
@<TRIPOS>SUBSTRUCTURE
     1 RES1 1

@<TRIPOS>CRYSIN
  12.5710    9.0250   11.3900  90.0000  90.1400  90.0000   4 1

