# MOL2 file generated by ConQuest
# Please check atom types

@<TRIPOS>MOLECULE
JEXKUS
    46    46     2
SMALL
NO_CHARGES
****
Generated from CSD

@<TRIPOS>ATOM
      1 N1         7.1800    5.0066    4.6146 N.3       1 RES1    0.0000
      2 C1         6.4220    4.0707    3.9422 C.2       1 RES1    0.0000
      3 C2         6.8985    3.5951    2.7618 C.2       1 RES1    0.0000
      4 C3         8.1526    4.1808    2.1398 C.3       1 RES1    0.0000
      5 C4         9.0455    4.8292    3.1962 C.2       1 RES1    0.0000
      6 C5         8.5021    5.2712    4.3482 C.2       1 RES1    0.0000
      7 C6         7.8236    5.2069    1.0421 C.ar      1 RES1    0.0000
      8 C7         8.5979    5.2589   -0.1112 C.ar      1 RES1    0.0000
      9 C8         8.3156    6.2177   -1.0706 C.ar      1 RES1    0.0000
     10 C9         7.2864    7.1077   -0.9464 C.ar      1 RES1    0.0000
     11 C10        6.5255    7.0756    0.2030 C.ar      1 RES1    0.0000
     12 C11        6.8028    6.1306    1.1999 C.ar      1 RES1    0.0000
     13 C12        6.2992    2.5247    1.9640 C.2       1 RES1    0.0000
     14 C13        4.6252    0.8778    1.6847 C.3       1 RES1    0.0000
     15 C14        3.4479    0.4481    2.3739 C.3       1 RES1    0.0000
     16 C15       10.4617    5.0097    2.8911 C.2       1 RES1    0.0000
     17 C16       12.1579    4.6427    1.2542 C.3       1 RES1    0.0000
     18 C17        5.1659    3.7114    4.6521 C.3       1 RES1    0.0000
     19 C18        9.2097    6.0113    5.4511 C.3       1 RES1    0.0000
     20 N2         9.1911    6.2835   -2.2485 N.pl3     1 RES1    0.0000
     21 O1        10.2574    5.6565   -2.2213 O.2       1 RES1    0.0000
     22 O2         8.8307    6.9686   -3.1988 O.2       1 RES1    0.0000
     23 O3         6.7285    2.1883    0.8727 O.2       1 RES1    0.0000
     24 O4         5.2317    1.9268    2.5070 O.3       1 RES1    0.0000
     25 O5        11.2818    5.6015    3.5711 O.2       1 RES1    0.0000
     26 O6        10.8049    4.4377    1.7274 O.3       1 RES1    0.0000
     27 H1         8.6783    3.3765    1.7313 H         1 RES1    0.0000
     28 H2         9.3384    4.6671   -0.1978 H         1 RES1    0.0000
     29 H3         7.1356    7.7286   -1.6615 H         1 RES1    0.0000
     30 H4         5.7736    7.6949    0.3581 H         1 RES1    0.0000
     31 H5         6.2151    6.1581    1.9705 H         1 RES1    0.0000
     32 H6         5.2534    3.1150    5.2533 H         1 RES1    0.0000
     33 H7         4.4641    3.5095    4.1620 H         1 RES1    0.0000
     34 H8         4.8163    4.4056    4.9921 H         1 RES1    0.0000
     35 H9         5.2914    0.1575    1.5593 H         1 RES1    0.0000
     36 H10        4.0272    1.3381    0.8378 H         1 RES1    0.0000
     37 H11        2.4969    1.3457    2.4308 H         1 RES1    0.0000
     38 H12        2.9543   -0.3594    1.8800 H         1 RES1    0.0000
     39 H13       12.7016    4.2940    1.7636 H         1 RES1    0.0000
     40 H14       12.1762    4.4913    0.2935 H         1 RES1    0.0000
     41 H15       12.2840    5.5281    1.0732 H         1 RES1    0.0000
     42 H16       10.0341    5.5617    5.7459 H         1 RES1    0.0000
     43 H17        9.5378    6.8875    5.1563 H         1 RES1    0.0000
     44 H18        8.5625    6.2453    6.1596 H         1 RES1    0.0000
     45 H19        6.8531    5.2452    5.3037 H         1 RES1    0.0000
     46 H20       12.3880   -0.0153    3.6074 Du        2 SUP2    0.0000
@<TRIPOS>BOND
     1    1    2 1
     2    2    3 2
     3    3    4 1
     4    4    5 1
     5    5    6 2
     6    6    1 1
     7    7    4 1
     8    8    7 ar
     9    9    8 ar
    10   10    9 ar
    11   11   10 ar
    12   12    7 ar
    13   13    3 1
    14   14   15 1
    15   15   37 1
    16   16    5 1
    17   17   26 1
    18   18    2 1
    19   19    6 1
    20   20    9 1
    21   21   20 2
    22   22   20 2
    23   23   13 2
    24   24   13 1
    25   25   16 2
    26   26   16 1
    27   27    4 1
    28   28    8 1
    29   29   10 1
    30   30   11 1
    31   31   12 1
    32   32   18 1
    33   33   18 1
    34   34   18 1
    35   35   14 1
    36   36   14 1
    37   38   15 1
    38   39   17 1
    39   40   17 1
    40   41   17 1
    41   42   19 1
    42   43   19 1
    43   44   19 1
    44   45    1 1
    45   11   12 ar
    46   14   24 1
@<TRIPOS>SUBSTRUCTURE
     1 RES1 1
     2 SUP2 46

@<TRIPOS>CRYSIN
   8.8120   15.2920   12.9560  90.0000  93.6600  90.0000  14 1

