# MOL2 file generated by ConQuest
# Please check atom types

@<TRIPOS>MOLECULE
JEXKIG
    33    34     1
SMALL
NO_CHARGES
****
Generated from CSD

@<TRIPOS>ATOM
      1 C1         4.8550   11.2599    1.0216 C.ar      1 RES1    0.0000
      2 C2         4.4842   12.6075    1.0348 C.ar      1 RES1    0.0000
      3 C3         4.4647   13.3431    2.2311 C.ar      1 RES1    0.0000
      4 C4         4.8022   12.7255    3.4262 C.ar      1 RES1    0.0000
      5 C5         5.2113   11.3722    3.4238 C.ar      1 RES1    0.0000
      6 C6         5.2208   10.6811    2.2275 C.ar      1 RES1    0.0000
      7 C7         4.8406   10.4810   -0.2277 C.ar      1 RES1    0.0000
      8 C8         4.5118    9.1047   -0.1940 C.ar      1 RES1    0.0000
      9 C9         4.4285    8.3575   -1.3481 C.ar      1 RES1    0.0000
     10 C10        4.6928    8.9578   -2.5263 C.ar      1 RES1    0.0000
     11 C11        5.0556   10.3025   -2.6347 C.ar      1 RES1    0.0000
     12 C12        5.0984   11.0396   -1.4733 C.ar      1 RES1    0.0000
     13 C13        4.0794   14.8131    2.1685 C.3       1 RES1    0.0000
     14 C14        4.8420   13.4972    4.7562 C.3       1 RES1    0.0000
     15 C15        5.6089   10.6667    4.7007 C.3       1 RES1    0.0000
     16 N1         4.6045    8.1645   -3.7659 N.pl3     1 RES1    0.0000
     17 O1         4.2554    6.9883   -3.6779 O.2       1 RES1    0.0000
     18 O2         4.8659    8.6943   -4.8429 O.2       1 RES1    0.0000
     19 H1         4.2380   13.0379    0.2120 H         1 RES1    0.0000
     20 H2         5.4931    9.7612    2.2311 H         1 RES1    0.0000
     21 H3         4.3430    8.6828    0.6517 H         1 RES1    0.0000
     22 H4         4.1866    7.4289   -1.3131 H         1 RES1    0.0000
     23 H5         5.2657   10.6970   -3.4840 H         1 RES1    0.0000
     24 H6         5.3142   11.9740   -1.5264 H         1 RES1    0.0000
     25 H7         3.6138   14.9873    1.3469 H         1 RES1    0.0000
     26 H8         4.8724   15.3544    2.2070 H         1 RES1    0.0000
     27 H9         3.5095   15.0276    2.9106 H         1 RES1    0.0000
     28 H10        4.9854   14.4186    4.5959 H         1 RES1    0.0000
     29 H11        5.4119   13.1185    5.3609 H         1 RES1    0.0000
     30 H12        3.8926   13.4353    5.1405 H         1 RES1    0.0000
     31 H13        6.2875   11.1778    5.1489 H         1 RES1    0.0000
     32 H14        5.9508    9.7943    4.4923 H         1 RES1    0.0000
     33 H15        4.8420   10.5832    5.2718 H         1 RES1    0.0000
@<TRIPOS>BOND
     1    1    2 ar
     2    2    3 ar
     3    3    4 ar
     4    4    5 ar
     5    5    6 ar
     6    6    1 ar
     7    7    1 1
     8    8    7 ar
     9    9    8 ar
    10   10    9 ar
    11   11   10 ar
    12   12    7 ar
    13   13    3 1
    14   14    4 1
    15   15    5 1
    16   16   10 1
    17   17   16 2
    18   18   16 2
    19   19    2 1
    20   20    6 1
    21   21    8 1
    22   22    9 1
    23   23   11 1
    24   24   12 1
    25   25   13 1
    26   26   13 1
    27   27   13 1
    28   28   14 1
    29   29   14 1
    30   30   14 1
    31   31   15 1
    32   32   15 1
    33   33   15 1
    34   11   12 ar
@<TRIPOS>SUBSTRUCTURE
     1 RES1 1

@<TRIPOS>CRYSIN
   7.2420   14.3970   12.0470  90.0000  90.0000  90.0000  19 1

