# MOL2 file generated by ConQuest
# Please check atom types

@<TRIPOS>MOLECULE
JEXLUT
    32    33     1
SMALL
NO_CHARGES
****
Generated from CSD

@<TRIPOS>ATOM
      1 C1         6.8703    7.6261    1.2355 C.3       1 RES1    0.0000
      2 H1         7.5854    7.7918    0.6168 H         1 RES1    0.0000
      3 H2         7.2260    7.5554    2.1243 H         1 RES1    0.0000
      4 C2         5.2122    8.8250   -0.1043 C.3       1 RES1    0.0000
      5 H3         4.6040    9.5672   -0.0764 H         1 RES1    0.0000
      6 H4         5.8461    8.9571   -0.8130 H         1 RES1    0.0000
      7 C3         4.5084    7.5331   -2.8177 C.3       1 RES1    0.0000
      8 H5         3.9310    7.4829   -3.5830 H         1 RES1    0.0000
      9 H6         5.0639    8.3129   -2.8867 H         1 RES1    0.0000
     10 C4         6.2391    6.2312   -1.6046 C.3       1 RES1    0.0000
     11 H7         6.7118    5.3960   -1.6312 H         1 RES1    0.0000
     12 H8         6.8688    6.9558   -1.6151 H         1 RES1    0.0000
     13 C5         5.3723    6.3057   -0.3368 C.3       1 RES1    0.0000
     14 H9         4.8499    5.5004   -0.3423 H         1 RES1    0.0000
     15 C6         4.4398    7.5329   -0.3374 C.3       1 RES1    0.0000
     16 H10        3.8158    7.4340    0.3855 H         1 RES1    0.0000
     17 N1         6.1832    6.3717    0.8751 N.3       1 RES1    0.0000
     18 N2         6.8088    5.2076    1.2616 N.pl3     1 RES1    0.0000
     19 N3         5.9171    8.7114    1.1783 N.3       1 RES1    0.0000
     20 N4         5.0782    8.7949    2.3060 N.pl3     1 RES1    0.0000
     21 N5         3.7139    7.6005   -1.6049 N.3       1 RES1    0.0000
     22 N6         2.4881    6.9216   -1.6434 N.pl3     1 RES1    0.0000
     23 N7         5.3432    6.3335   -2.7461 N.3       1 RES1    0.0000
     24 N8         5.6720    5.6936   -3.8982 N.pl3     1 RES1    0.0000
     25 O1         6.3881    4.1608    0.7917 O.2       1 RES1    0.0000
     26 O2         7.7293    5.3052    2.0595 O.2       1 RES1    0.0000
     27 O3         5.4704    8.2985    3.3385 O.2       1 RES1    0.0000
     28 O4         4.0333    9.4134    2.1688 O.2       1 RES1    0.0000
     29 O5         1.9820    6.6188   -0.5701 O.2       1 RES1    0.0000
     30 O6         1.9911    6.7342   -2.7338 O.2       1 RES1    0.0000
     31 O7         5.0849    6.0370   -4.9249 O.2       1 RES1    0.0000
     32 O8         6.5127    4.8099   -3.8345 O.2       1 RES1    0.0000
@<TRIPOS>BOND
     1    1    2 1
     2    3    1 1
     3    4    5 1
     4    6    4 1
     5    7    8 1
     6    9    7 1
     7   10   11 1
     8   12   10 1
     9   13   10 1
    10   14   13 1
    11   15    4 1
    12   16   15 1
    13   17    1 1
    14   18   17 1
    15   19    1 1
    16   20   19 1
    17   21    7 1
    18   22   21 1
    19   23    7 1
    20   24   23 1
    21   25   18 2
    22   26   18 2
    23   27   20 2
    24   28   20 2
    25   29   22 2
    26   30   22 2
    27   31   24 2
    28   32   24 2
    29    4   19 1
    30   10   23 1
    31   13   15 1
    32   13   17 1
    33   15   21 1
@<TRIPOS>SUBSTRUCTURE
     1 RES1 1

@<TRIPOS>CRYSIN
   7.4710   10.7770    7.6420  90.0000 103.8400  90.0000   4 1

