# MOL2 file generated by ConQuest
# Please check atom types

@<TRIPOS>MOLECULE
JEXMII
    32    33     1
SMALL
NO_CHARGES
****
Generated from CSD

@<TRIPOS>ATOM
      1 C1         0.6287    1.6394    1.2766 C.3       1 RES1    0.0000
      2 H1         0.9218    2.0009    0.4286 H         1 RES1    0.0000
      3 H2        -0.0866    1.0174    1.1192 H         1 RES1    0.0000
      4 C2         0.1102    2.7874    2.1687 C.3       1 RES1    0.0000
      5 H3        -0.8106    2.9567    1.9509 H         1 RES1    0.0000
      6 H4         0.6290    3.5762    1.9966 H         1 RES1    0.0000
      7 C3         1.6379    0.4694    3.2876 C.3       1 RES1    0.0000
      8 H5         2.4142    0.8110    3.7463 H         1 RES1    0.0000
      9 N1         1.7419    0.9345    1.9104 N.3       1 RES1    0.0000
     10 N2         3.0086    1.0448    1.3994 N.pl3     1 RES1    0.0000
     11 N3         0.9817    3.2865    4.3998 N.pl3     1 RES1    0.0000
     12 N4         0.2215    2.4422    3.6211 N.3       1 RES1    0.0000
     13 O1         3.8927    0.5017    2.0467 O.2       1 RES1    0.0000
     14 O2         3.1417    1.6284    0.3266 O.2       1 RES1    0.0000
     15 O3         0.9824    4.4748    4.0792 O.2       1 RES1    0.0000
     16 O4         1.5549    2.8236    5.3819 O.2       1 RES1    0.0000
     17 C3A        0.3141    0.9954    3.8486 C.3       1 RES1    0.0000
     18 N4A        1.7305   -0.9774    3.5151 N.3       1 RES1    0.0000
     19 C2A        1.8418   -1.3226    4.9675 C.3       1 RES1    0.0000
     20 C1A        1.3233   -0.1747    5.8596 C.3       1 RES1    0.0000
     21 H1A        1.0302   -0.5361    6.7076 H         1 RES1    0.0000
     22 H2A        2.0386    0.4474    6.0170 H         1 RES1    0.0000
     23 N1A        0.2101    0.5302    5.2259 N.3       1 RES1    0.0000
     24 H5A       -0.4622    0.6538    3.3899 H         1 RES1    0.0000
     25 N2A       -1.0566    0.4200    5.7368 N.pl3     1 RES1    0.0000
     26 O1A       -1.9406    0.9631    5.0896 O.2       1 RES1    0.0000
     27 O2A       -1.1897   -0.1636    6.8097 O.2       1 RES1    0.0000
     28 H3A        2.7626   -1.4920    5.1853 H         1 RES1    0.0000
     29 H4A        1.3230   -2.1115    5.1397 H         1 RES1    0.0000
     30 N3A        0.9703   -1.8217    2.7365 N.pl3     1 RES1    0.0000
     31 O3A        0.9696   -3.0100    3.0570 O.2       1 RES1    0.0000
     32 O4A        0.3971   -1.3589    1.7543 O.2       1 RES1    0.0000
@<TRIPOS>BOND
     1    1    2 1
     2    3    1 1
     3    4    1 1
     4    5    4 1
     5    6    4 1
     6    7    8 1
     7    9    1 1
     8   10    9 1
     9   11   12 1
    10   12    4 1
    11   13   10 2
    12   14   10 2
    13   15   11 2
    14   16   11 2
    15   17    7 1
    16   18    7 1
    17   19   18 1
    18   20   19 1
    19   21   20 1
    20   22   20 1
    21   23   17 1
    22   24   17 1
    23   25   23 1
    24   26   25 2
    25   27   25 2
    26   28   19 1
    27   29   19 1
    28   30   18 1
    29   31   30 2
    30   32   30 2
    31    7    9 1
    32   12   17 1
    33   20   23 1
@<TRIPOS>SUBSTRUCTURE
     1 RES1 1

@<TRIPOS>CRYSIN
   6.4610    6.8450    7.5420  74.0100  75.0000  68.5300   2 1

