# MOL2 file generated by ConQuest
# Please check atom types

@<TRIPOS>MOLECULE
JEXMAA
    32    33     1
SMALL
NO_CHARGES
****
Generated from CSD

@<TRIPOS>ATOM
      1 C1         4.5653    5.0829   14.8799 C.3       1 RES1    0.0000
      2 H1         5.1632    4.9139   15.6117 H         1 RES1    0.0000
      3 H2         3.6776    5.2221   15.2176 H         1 RES1    0.0000
      4 C2         4.2525    5.1696    9.2709 C.3       1 RES1    0.0000
      5 H3         3.9752    4.6180    8.5358 H         1 RES1    0.0000
      6 H4         4.6782    5.9614    8.9341 H         1 RES1    0.0000
      7 C3         5.3257    4.3701   12.6721 C.3       1 RES1    0.0000
      8 H5         6.1405    3.8856   12.5206 H         1 RES1    0.0000
      9 C4         4.4494    4.0252   11.4493 C.3       1 RES1    0.0000
     10 H6         4.3229    3.0777   11.5371 H         1 RES1    0.0000
     11 C5         5.6249    5.8515   12.8460 C.3       1 RES1    0.0000
     12 H7         5.2485    6.3632   12.1261 H         1 RES1    0.0000
     13 H8         6.5715    6.0054   12.8873 H         1 RES1    0.0000
     14 C6         3.1157    4.7464   11.3959 C.3       1 RES1    0.0000
     15 H9         3.0203    5.3426   12.1424 H         1 RES1    0.0000
     16 H10        2.3896    4.1184   11.3932 H         1 RES1    0.0000
     17 N1         5.0054    6.1799   14.0769 N.3       1 RES1    0.0000
     18 N2         3.1602    5.4769   10.1654 N.3       1 RES1    0.0000
     19 N3         5.1289    7.3829   14.6290 N.pl3     1 RES1    0.0000
     20 N4         2.0649    6.0572    9.6601 N.pl3     1 RES1    0.0000
     21 N5         4.6056    4.0233   13.9015 N.3       1 RES1    0.0000
     22 N6         5.0989    4.4485   10.2059 N.3       1 RES1    0.0000
     23 N7         4.6821    2.7569   14.3708 N.pl3     1 RES1    0.0000
     24 N8         6.0653    3.6809    9.6337 N.pl3     1 RES1    0.0000
     25 O1         5.6602    8.2584   13.9613 O.2       1 RES1    0.0000
     26 O2         1.1058    6.1730   10.4031 O.2       1 RES1    0.0000
     27 O3         4.7168    7.5101   15.7652 O.2       1 RES1    0.0000
     28 O4         2.1410    6.4573    8.4908 O.2       1 RES1    0.0000
     29 O5         5.0610    1.8932   13.5992 O.2       1 RES1    0.0000
     30 O6         6.3695    3.9266    8.4674 O.2       1 RES1    0.0000
     31 O7         4.3206    2.5807   15.5156 O.2       1 RES1    0.0000
     32 O8         6.5878    2.8380   10.3697 O.2       1 RES1    0.0000
@<TRIPOS>BOND
     1    1    2 1
     2    3    1 1
     3    4    5 1
     4    6    4 1
     5    7    8 1
     6    9    7 1
     7   10    9 1
     8   11    7 1
     9   12   11 1
    10   13   11 1
    11   14    9 1
    12   15   14 1
    13   16   14 1
    14   17    1 1
    15   18    4 1
    16   19   17 1
    17   20   18 1
    18   21    1 1
    19   22    4 1
    20   23   21 1
    21   24   22 1
    22   25   19 2
    23   26   20 2
    24   27   19 2
    25   28   20 2
    26   29   23 2
    27   30   24 2
    28   31   23 2
    29   32   24 2
    30    7   21 1
    31    9   22 1
    32   11   17 1
    33   14   18 1
@<TRIPOS>SUBSTRUCTURE
     1 RES1 1

@<TRIPOS>CRYSIN
   6.5480    9.8960   19.2990  90.0000  90.0000  90.0000  19 1

