# MOL2 file generated by ConQuest
# Please check atom types

@<TRIPOS>MOLECULE
JEXMEE
    32    33     1
SMALL
NO_CHARGES
****
Generated from CSD

@<TRIPOS>ATOM
      1 C1        -0.4988   -0.0231   -1.0217 C.3       1 RES1    0.0000
      2 C2         0.8323    0.7053   -0.8615 C.3       1 RES1    0.0000
      3 H1         0.6814    1.6133   -0.5888 H         1 RES1    0.0000
      4 H2         1.3156    0.6964   -1.6910 H         1 RES1    0.0000
      5 C3         0.9574   -0.0938    1.4822 C.3       1 RES1    0.0000
      6 H3         0.8044    0.7885    1.8281 H         1 RES1    0.0000
      7 H4         1.5241   -0.5803    2.0854 H         1 RES1    0.0000
      8 C4        -1.2082   -0.1981    0.3282 C.3       1 RES1    0.0000
      9 H5        -1.9661   -0.7762    0.2133 H         1 RES1    0.0000
     10 H6        -1.5046    0.6598    0.6409 H         1 RES1    0.0000
     11 C5        -0.3139   -1.4032   -1.7183 C.3       1 RES1    0.0000
     12 H7        -0.8018   -2.0885   -1.2556 H         1 RES1    0.0000
     13 H8         0.6145   -1.6440   -1.7598 H         1 RES1    0.0000
     14 C6        -1.7203   -0.0469   -3.1838 C.3       1 RES1    0.0000
     15 H9        -2.6457   -0.3019   -3.2013 H         1 RES1    0.0000
     16 H10       -1.5136    0.4621   -3.9710 H         1 RES1    0.0000
     17 N1         1.5887   -0.0115    0.1665 N.3       1 RES1    0.0000
     18 N2         2.9489    0.1184    0.1473 N.pl3     1 RES1    0.0000
     19 N3        -0.3009   -0.7852    1.3239 N.3       1 RES1    0.0000
     20 N4        -0.2688   -2.1664    1.4186 N.pl3     1 RES1    0.0000
     21 N5        -1.3805    0.6602   -1.9770 N.3       1 RES1    0.0000
     22 N6        -1.8544    1.9138   -1.8422 N.pl3     1 RES1    0.0000
     23 N7        -0.8465   -1.1934   -3.0309 N.3       1 RES1    0.0000
     24 N8        -1.1040   -2.2667   -3.8033 N.pl3     1 RES1    0.0000
     25 O1         3.5531   -0.2123    1.1653 O.2       1 RES1    0.0000
     26 O2         3.4729    0.4753   -0.8890 O.2       1 RES1    0.0000
     27 O3        -1.2647   -2.7702    1.0686 O.2       1 RES1    0.0000
     28 O4         0.7074   -2.6716    1.9218 O.2       1 RES1    0.0000
     29 O5        -2.5610    2.3307   -2.7444 O.2       1 RES1    0.0000
     30 O6        -1.5342    2.5396   -0.8346 O.2       1 RES1    0.0000
     31 O7        -1.8562   -2.1044   -4.7466 O.2       1 RES1    0.0000
     32 O8        -0.5437   -3.3101   -3.4977 O.2       1 RES1    0.0000
@<TRIPOS>BOND
     1    1    2 1
     2    2    3 1
     3    4    2 1
     4    5    6 1
     5    7    5 1
     6    8    1 1
     7    9    8 1
     8   10    8 1
     9   11    1 1
    10   12   11 1
    11   13   11 1
    12   14   15 1
    13   16   14 1
    14   17    2 1
    15   18   17 1
    16   19    5 1
    17   20   19 1
    18   21    1 1
    19   22   21 1
    20   23   11 1
    21   24   23 1
    22   25   18 2
    23   26   18 2
    24   27   20 2
    25   28   20 2
    26   29   22 2
    27   30   22 2
    28   31   24 2
    29   32   24 2
    30    5   17 1
    31    8   19 1
    32   14   21 1
    33   14   23 1
@<TRIPOS>SUBSTRUCTURE
     1 RES1 1

@<TRIPOS>CRYSIN
   7.8630   10.9890   14.4700  90.0000  90.0000  90.0000  19 1

