# MOL2 file generated by ConQuest
# Please check atom types

@<TRIPOS>MOLECULE
JEXNUY
    39    41     1
SMALL
NO_CHARGES
****
Generated from CSD

@<TRIPOS>ATOM
      1 O1        -5.1395  -25.9551   -4.1552 O.3       1 RES1    0.0000
      2 O2        -8.7427  -12.2860   -4.3939 O.3       1 RES1    0.0000
      3 O3        -9.6385  -17.7179   -2.1735 O.2       1 RES1    0.0000
      4 O4       -10.5869  -19.0510   -3.6069 O.2       1 RES1    0.0000
      5 N1        -9.6105  -18.4955   -3.1381 N.pl3     1 RES1    0.0000
      6 C1        -5.5616  -24.6462   -4.1779 C.ar      1 RES1    0.0000
      7 C2        -6.8000  -24.2581   -4.6687 C.ar      1 RES1    0.0000
      8 H1        -7.3992  -24.9042   -5.0240 H         1 RES1    0.0000
      9 C3        -7.1527  -22.9169   -4.6346 C.ar      1 RES1    0.0000
     10 H2        -8.0139  -22.6556   -4.9397 H         1 RES1    0.0000
     11 C4        -6.2771  -21.9447   -4.1659 C.ar      1 RES1    0.0000
     12 C5        -5.0241  -22.3558   -3.6942 C.ar      1 RES1    0.0000
     13 H3        -4.4054  -21.7081   -3.3778 H         1 RES1    0.0000
     14 C6        -4.6781  -23.6932   -3.6857 C.ar      1 RES1    0.0000
     15 H4        -3.8347  -23.9622   -3.3423 H         1 RES1    0.0000
     16 C7        -6.6668  -20.5190   -4.1346 C.ar      1 RES1    0.0000
     17 C8        -7.9567  -20.1366   -3.7752 C.ar      1 RES1    0.0000
     18 H5        -8.6134  -20.7953   -3.5810 H         1 RES1    0.0000
     19 C9        -8.2747  -18.7973   -3.7035 C.ar      1 RES1    0.0000
     20 C10       -7.4058  -17.7579   -4.0281 C.ar      1 RES1    0.0000
     21 C11       -6.1103  -18.1710   -4.3924 C.ar      1 RES1    0.0000
     22 H6        -5.4613  -17.5133   -4.6177 H         1 RES1    0.0000
     23 C12       -5.7575  -19.5044   -4.4315 C.ar      1 RES1    0.0000
     24 H7        -4.8677  -19.7385   -4.6672 H         1 RES1    0.0000
     25 C13       -7.7685  -16.3245   -4.0671 C.ar      1 RES1    0.0000
     26 C14       -8.9678  -15.8902   -4.6531 C.ar      1 RES1    0.0000
     27 H8        -9.5858  -16.5284   -4.9898 H         1 RES1    0.0000
     28 C15       -9.2589  -14.5414   -4.7440 C.ar      1 RES1    0.0000
     29 H9       -10.0785  -14.2587   -5.1332 H         1 RES1    0.0000
     30 C16       -8.3586  -13.5980   -4.2688 C.ar      1 RES1    0.0000
     31 C17       -7.1639  -14.0034   -3.6963 C.ar      1 RES1    0.0000
     32 H10       -6.5416  -13.3612   -3.3738 H         1 RES1    0.0000
     33 C18       -6.8885  -15.3676   -3.6012 C.ar      1 RES1    0.0000
     34 H11       -6.0714  -15.6459   -3.2046 H         1 RES1    0.0000
     35 C19       -7.8055  -11.2903   -3.9833 C.3       1 RES1    0.0000
     36 H12       -6.9987  -11.3538   -4.5364 H         1 RES1    0.0000
     37 H13       -7.5685  -11.4324   -3.0430 H         1 RES1    0.0000
     38 H14       -8.2048  -10.4019   -4.0890 H         1 RES1    0.0000
     39 H15       -5.7441  -26.5349   -4.4535 H         1 RES1    0.0000
@<TRIPOS>BOND
     1    1    6 1
     2    2   30 1
     3    3    5 2
     4    4    5 2
     5    5   19 1
     6    6    7 ar
     7    7    8 1
     8    9    7 ar
     9   10    9 1
    10   11    9 ar
    11   12   11 ar
    12   13   12 1
    13   14    6 ar
    14   15   14 1
    15   16   11 1
    16   17   16 ar
    17   18   17 1
    18   19   17 ar
    19   20   19 ar
    20   21   20 ar
    21   22   21 1
    22   23   16 ar
    23   24   23 1
    24   25   20 1
    25   26   25 ar
    26   27   26 1
    27   28   26 ar
    28   29   28 1
    29   30   28 ar
    30   31   30 ar
    31   32   31 1
    32   33   25 ar
    33   34   33 1
    34   35    2 1
    35   36   35 1
    36   37   35 1
    37   38   35 1
    38   39    1 1
    39   12   14 ar
    40   21   23 ar
    41   31   33 ar
@<TRIPOS>SUBSTRUCTURE
     1 RES1 1

@<TRIPOS>CRYSIN
  11.1971   19.2143    7.1029  90.0000  90.0000  90.0000  33 1

