# MOL2 file generated by ConQuest
# Please check atom types

@<TRIPOS>MOLECULE
JEYKEG
    47    48     1
SMALL
NO_CHARGES
****
Generated from CSD

@<TRIPOS>ATOM
      1 O1         3.3680    1.3412    3.9976 O.2       1 RES1    0.0000
      2 C1         3.0886    4.3551    2.0568 C.ar      1 RES1    0.0000
      3 N1         4.4473    3.4970    5.5180 N.am      1 RES1    0.0000
      4 H1         5.2639    3.7672    5.3313 H         1 RES1    0.0000
      5 N2         8.1234    2.7812   10.8293 N.pl3     1 RES1    0.0000
      6 O2         1.4264    2.4028    4.2549 O.3       1 RES1    0.0000
      7 C2         2.5250    5.5596    1.6943 C.ar      1 RES1    0.0000
      8 H2         2.6987    6.3394    2.2108 H         1 RES1    0.0000
      9 O3         3.0906    2.3368    6.9296 O.2       1 RES1    0.0000
     10 C3         1.6945    5.6413    0.5618 C.ar      1 RES1    0.0000
     11 H3         1.3365    6.4823    0.2899 H         1 RES1    0.0000
     12 O4         7.6903    2.6104   11.9800 O.2       1 RES1    0.0000
     13 C4         1.9381    3.2868    0.1993 C.ar      1 RES1    0.0000
     14 H4         1.7424    2.5165   -0.3189 H         1 RES1    0.0000
     15 O5         9.3192    2.8397   10.5829 O.2       1 RES1    0.0000
     16 C5         1.4055    4.5116   -0.1468 C.ar      1 RES1    0.0000
     17 H5         0.8247    4.5702   -0.8970 H         1 RES1    0.0000
     18 C6         5.3134    3.6474    2.8813 C.2       1 RES1    0.0000
     19 H6         5.2801    2.7206    2.6783 H         1 RES1    0.0000
     20 C7         4.0369    4.2871    3.2455 C.3       1 RES1    0.0000
     21 H7         4.2669    5.2371    3.4576 H         1 RES1    0.0000
     22 C8         2.7640    3.1983    1.3156 C.ar      1 RES1    0.0000
     23 H8         3.1113    2.3531    1.5784 H         1 RES1    0.0000
     24 C9         6.4606    4.2054    2.8052 C.2       1 RES1    0.0000
     25 H9         6.5509    5.1343    2.9973 H         1 RES1    0.0000
     26 H10        7.2228    3.6971    2.5587 H         1 RES1    0.0000
     27 C10        3.3711    3.7087    4.5775 C.3       1 RES1    0.0000
     28 C11        2.3607    4.7226    5.0885 C.3       1 RES1    0.0000
     29 H11        1.6671    4.8635    4.4107 H         1 RES1    0.0000
     30 H12        2.8144    5.5705    5.2733 H         1 RES1    0.0000
     31 H13        1.9480    4.3858    5.9130 H         1 RES1    0.0000
     32 C12        2.7529    2.3409    4.2640 C.2       1 RES1    0.0000
     33 C13        0.7210    1.1568    3.9740 C.3       1 RES1    0.0000
     34 H14        0.8859    0.8894    3.0462 H         1 RES1    0.0000
     35 H15       -0.2402    1.2868    4.1117 H         1 RES1    0.0000
     36 H16        1.0453    0.4552    4.5775 H         1 RES1    0.0000
     37 C14        4.1694    2.8649    6.7085 C.2       1 RES1    0.0000
     38 C15        5.2308    2.8914    7.7360 C.ar      1 RES1    0.0000
     39 C16        4.8554    2.9465    9.0879 C.ar      1 RES1    0.0000
     40 H17        3.9399    2.9989    9.3253 H         1 RES1    0.0000
     41 C17        5.8133    2.9329   10.0664 C.ar      1 RES1    0.0000
     42 H18        5.5519    2.9894   10.9779 H         1 RES1    0.0000
     43 C18        7.1145    2.8513    9.7529 C.ar      1 RES1    0.0000
     44 C19        7.6099    2.8200    8.4373 C.ar      1 RES1    0.0000
     45 H19        8.5375    2.7989    8.2307 H         1 RES1    0.0000
     46 C20        6.5908    2.8240    7.4425 C.ar      1 RES1    0.0000
     47 H20        6.8522    2.7832    6.5291 H         1 RES1    0.0000
@<TRIPOS>BOND
     1    1   32 2
     2    2    7 ar
     3    3    4 1
     4    5   12 2
     5    6   32 1
     6    7    8 1
     7    9   37 2
     8   10    7 ar
     9   11   10 1
    10   13   14 1
    11   15    5 2
    12   16   10 ar
    13   17   16 1
    14   18   19 1
    15   20    2 1
    16   21   20 1
    17   22    2 ar
    18   23   22 1
    19   24   18 2
    20   25   24 1
    21   26   24 1
    22   27    3 1
    23   28   27 1
    24   29   28 1
    25   30   28 1
    26   31   28 1
    27   32   27 1
    28   33    6 1
    29   34   33 1
    30   35   33 1
    31   36   33 1
    32   37    3 1
    33   38   37 1
    34   39   38 ar
    35   40   39 1
    36   41   39 ar
    37   42   41 1
    38   43    5 1
    39   44   43 ar
    40   45   44 1
    41   46   38 ar
    42   47   46 1
    43   13   16 ar
    44   13   22 ar
    45   18   20 1
    46   20   27 1
    47   41   43 ar
    48   44   46 ar
@<TRIPOS>SUBSTRUCTURE
     1 RES1 1

@<TRIPOS>CRYSIN
   7.3510    6.8049   18.1326  90.0000  92.0150  90.0000   4 1

