# MOL2 file generated by ConQuest
# Please check atom types

@<TRIPOS>MOLECULE
JEZZUJ
    24    29     1
SMALL
NO_CHARGES
****
Generated from CSD

@<TRIPOS>ATOM
      1 C1        11.4680    2.2198    2.3926 C.3       1 RES1    0.0000
      2 C2        12.3283    1.8788    1.1706 C.3       1 RES1    0.0000
      3 C3        13.1019    3.2201    1.3149 C.3       1 RES1    0.0000
      4 C4        14.1000    2.4629    2.2417 C.3       1 RES1    0.0000
      5 C5        13.3367    1.1168    2.0660 C.3       1 RES1    0.0000
      6 C6        12.4603    1.4655    3.3228 C.3       1 RES1    0.0000
      7 C7        13.2318    2.8068    3.4753 C.3       1 RES1    0.0000
      8 C8        12.2139    3.5659    2.5717 C.3       1 RES1    0.0000
      9 N1        10.1362    1.9325    1.9665 N.am      1 RES1    0.0000
     10 N2         9.0459    2.2341    2.7906 N.pl3     1 RES1    0.0000
     11 O1         9.3502    2.6342    3.8915 O.2       1 RES1    0.0000
     12 O2         7.9311    2.0681    2.3445 O.2       1 RES1    0.0000
     13 C9        10.0276    1.5838    0.6019 C.2       1 RES1    0.0000
     14 O3         9.0443    1.4351   -0.0448 O.2       1 RES1    0.0000
     15 N3        11.3766    1.4584    0.1940 N.am      1 RES1    0.0000
     16 N4        11.7720    1.0803   -1.0894 N.pl3     1 RES1    0.0000
     17 O4        12.9774    0.9866   -1.2203 O.2       1 RES1    0.0000
     18 O5        10.9220    0.9000   -1.9234 O.2       1 RES1    0.0000
     19 H1        13.2857    3.8591    0.6168 H         1 RES1    0.0000
     20 H2        15.0221    2.5029    2.1572 H         1 RES1    0.0000
     21 H3        13.7264    0.2771    1.8653 H         1 RES1    0.0000
     22 H4        12.2279    0.8886    4.0805 H         1 RES1    0.0000
     23 H5        13.5039    3.1186    4.3409 H         1 RES1    0.0000
     24 H6        11.7790    4.4008    2.7574 H         1 RES1    0.0000
@<TRIPOS>BOND
     1    1    2 1
     2    2    3 1
     3    3    4 1
     4    4    5 1
     5    5    2 1
     6    6    1 1
     7    7    4 1
     8    8    1 1
     9    9    1 1
    10   10    9 1
    11   11   10 2
    12   12   10 2
    13   13    9 1
    14   14   13 2
    15   15    2 1
    16   16   15 1
    17   17   16 2
    18   18   16 2
    19   19    3 1
    20   20    4 1
    21   21    5 1
    22   22    6 1
    23   23    7 1
    24   24    8 1
    25    3    8 1
    26    5    6 1
    27    6    7 1
    28    7    8 1
    29   13   15 1
@<TRIPOS>SUBSTRUCTURE
     1 RES1 1

@<TRIPOS>CRYSIN
   9.6690    5.9720   16.5840  90.0000  91.1200  90.0000  14 1

