# MOL2 file generated by ConQuest
# Please check atom types

@<TRIPOS>MOLECULE
JIBYOL
    88    92     2
SMALL
NO_CHARGES
****
Generated from CSD

@<TRIPOS>ATOM
      1 N1         5.1088    9.7201   12.7659 N.am      1 RES1    0.0000
      2 O1         4.4093    6.9187   11.9767 O.2       1 RES1    0.0000
      3 O2         3.7257    9.4518   12.6767 O.3       1 RES1    0.0000
      4 O3         4.6624   11.9082   13.3323 O.2       1 RES1    0.0000
      5 O4         6.7033   11.2005   12.6839 O.3       1 RES1    0.0000
      6 C1         4.1916    7.1243   13.1573 C.2       1 RES1    0.0000
      7 C2         4.6081    6.1822   14.1921 C.2       1 RES1    0.0000
      8 C3         4.5482    6.5695   15.4719 C.2       1 RES1    0.0000
      9 H1         4.8316    5.9623   16.1156 H         1 RES1    0.0000
     10 C4         4.0820    7.8518   15.9317 C.ar      1 RES1    0.0000
     11 C5         4.1317    8.1867   17.2874 C.ar      1 RES1    0.0000
     12 H2         4.4821    7.5825   17.9007 H         1 RES1    0.0000
     13 C6         3.6630    9.4068   17.7196 C.ar      1 RES1    0.0000
     14 H3         3.6914    9.6213   18.6235 H         1 RES1    0.0000
     15 C7         3.1615   10.2928   16.8294 C.ar      1 RES1    0.0000
     16 H4         2.8483   11.1167   17.1246 H         1 RES1    0.0000
     17 C8         3.1105    9.9822   15.4841 C.ar      1 RES1    0.0000
     18 H5         2.7657   10.6030   14.8830 H         1 RES1    0.0000
     19 C9         3.5621    8.7650   15.0209 C.ar      1 RES1    0.0000
     20 C10        3.4021    8.3690   13.5749 C.3       1 RES1    0.0000
     21 C11        1.9318    8.0736   13.2653 C.3       1 RES1    0.0000
     22 H6         1.4003    8.8464   13.4677 H         1 RES1    0.0000
     23 H7         1.6343    7.3313   13.7980 H         1 RES1    0.0000
     24 H8         1.8377    7.8556   12.3340 H         1 RES1    0.0000
     25 C12        5.1725    4.8634   13.7614 C.3       1 RES1    0.0000
     26 H9         5.3526    4.3235   14.5345 H         1 RES1    0.0000
     27 H10        5.9883    5.0078   13.2760 H         1 RES1    0.0000
     28 H11        4.5393    4.4133   13.1984 H         1 RES1    0.0000
     29 C13        5.3920   11.0482   12.9491 C.2       1 RES1    0.0000
     30 C14        7.2334   12.5380   12.8332 C.3       1 RES1    0.0000
     31 H12        6.8578   12.9596   13.6214 H         1 RES1    0.0000
     32 H13        7.0043   13.0754   12.0586 H         1 RES1    0.0000
     33 C15        8.7065   12.4351   12.9624 C.ar      1 RES1    0.0000
     34 C16        9.3440   13.1669   13.9349 C.ar      1 RES1    0.0000
     35 H14        8.8490   13.6987   14.5163 H         1 RES1    0.0000
     36 C17       10.7150   13.1144   14.0536 C.ar      1 RES1    0.0000
     37 H15       11.1376   13.6012   14.7232 H         1 RES1    0.0000
     38 C18       11.4506   12.3709   13.2136 C.ar      1 RES1    0.0000
     39 H16       12.3771   12.3653   13.2867 H         1 RES1    0.0000
     40 C19       10.8374   11.6178   12.2458 C.ar      1 RES1    0.0000
     41 H17       11.3453   11.0904   11.6720 H         1 RES1    0.0000
     42 C20        9.4628   11.6463   12.1286 C.ar      1 RES1    0.0000
     43 H18        9.0459   11.1287   11.4788 H         1 RES1    0.0000
     44 H19        5.5553    9.3547   12.0403 H         1 RES1    0.0000
     45 N2         3.9644    8.7509    9.5203 N.am      2 RES2    0.0000
     46 O5         6.7553    8.4828   10.5443 O.2       2 RES2    0.0000
     47 O6         4.7082    9.9637    9.5851 O.3       2 RES2    0.0000
     48 O7         1.8649    7.9707    9.5189 O.2       2 RES2    0.0000
     49 O8         2.2657   10.0860    8.8383 O.3       2 RES2    0.0000
     50 C21        6.7665    8.7009    9.3468 C.2       2 RES2    0.0000
     51 C22        7.6388    7.9606    8.4335 C.2       2 RES2    0.0000
     52 C23        7.4603    8.1111    7.1128 C.2       2 RES2    0.0000
     53 H20        8.0301    7.6453    6.5437 H         2 RES2    0.0000
     54 C24        6.4383    8.9498    6.5073 C.ar      2 RES2    0.0000
     55 C25        6.2518    8.9625    5.1260 C.ar      2 RES2    0.0000
     56 H21        6.8133    8.4597    4.5821 H         2 RES2    0.0000
     57 C26        5.2476    9.7072    4.5585 C.ar      2 RES2    0.0000
     58 H22        5.1373    9.7123    3.6355 H         2 RES2    0.0000
     59 C27        4.4111   10.4436    5.3521 C.ar      2 RES2    0.0000
     60 H23        3.7180   10.9314    4.9686 H         2 RES2    0.0000
     61 C28        4.5921   10.4626    6.7200 C.ar      2 RES2    0.0000
     62 H24        4.0279   10.9755    7.2528 H         2 RES2    0.0000
     63 C29        5.6051    9.7284    7.3070 C.ar      2 RES2    0.0000
     64 C30        5.8957    9.8365    8.7854 C.3       2 RES2    0.0000
     65 C31        6.6534   11.1381    9.0652 C.3       2 RES2    0.0000
     66 H25        6.1226   11.8858    8.7791 H         2 RES2    0.0000
     67 H26        7.4847   11.1347    8.5844 H         2 RES2    0.0000
     68 H27        6.8282   11.2112   10.0057 H         2 RES2    0.0000
     69 C32        8.6345    7.0089    9.0196 C.3       2 RES2    0.0000
     70 H28        9.1650    6.6271    8.3165 H         2 RES2    0.0000
     71 H29        8.1727    6.3101    9.4883 H         2 RES2    0.0000
     72 H30        9.2054    7.4802    9.6313 H         2 RES2    0.0000
     73 C33        2.6136    8.8894    9.3185 C.2       2 RES2    0.0000
     74 C34        0.8646   10.2719    8.4687 C.3       2 RES2    0.0000
     75 H31        0.5534   11.1271    8.8020 H         2 RES2    0.0000
     76 H32        0.3275    9.5758    8.8781 H         2 RES2    0.0000
     77 C35        0.6915   10.2252    6.9758 C.ar      2 RES2    0.0000
     78 C36        0.6458    9.0249    6.3047 C.ar      2 RES2    0.0000
     79 H33        0.7500    8.2270    6.7719 H         2 RES2    0.0000
     80 C37        0.4468    9.0053    4.9671 C.ar      2 RES2    0.0000
     81 H34        0.4181    8.1895    4.5212 H         2 RES2    0.0000
     82 C38        0.2883   10.1748    4.2503 C.ar      2 RES2    0.0000
     83 H35        0.1335   10.1463    3.3342 H         2 RES2    0.0000
     84 C39        0.3614   11.3772    4.9017 C.ar      2 RES2    0.0000
     85 H36        0.2733   12.1745    4.4299 H         2 RES2    0.0000
     86 C40        0.5669   11.3913    6.2591 C.ar      2 RES2    0.0000
     87 H37        0.6221   12.2078    6.7019 H         2 RES2    0.0000
     88 H38        4.1271    8.2520   10.2720 H         2 RES2    0.0000
@<TRIPOS>BOND
     1    1    3 1
     2    2    6 2
     3    3   20 1
     4    4   29 2
     5    5   29 1
     6    6    7 1
     7    7    8 2
     8    8    9 1
     9   10    8 1
    10   11   10 ar
    11   12   11 1
    12   13   11 ar
    13   14   13 1
    14   15   13 ar
    15   16   15 1
    16   17   15 ar
    17   18   17 1
    18   19   10 ar
    19   20    6 1
    20   21   20 1
    21   22   21 1
    22   23   21 1
    23   24   21 1
    24   25    7 1
    25   26   25 1
    26   27   25 1
    27   28   25 1
    28   29    1 1
    29   30    5 1
    30   31   30 1
    31   32   30 1
    32   33   30 1
    33   34   33 ar
    34   35   34 1
    35   36   34 ar
    36   37   36 1
    37   38   36 ar
    38   39   38 1
    39   40   38 ar
    40   41   40 1
    41   42   33 ar
    42   43   42 1
    43   44    1 1
    44   45   47 1
    45   46   50 2
    46   47   64 1
    47   48   73 2
    48   49   73 1
    49   50   51 1
    50   51   52 2
    51   52   53 1
    52   54   52 1
    53   55   54 ar
    54   56   55 1
    55   57   55 ar
    56   58   57 1
    57   59   57 ar
    58   60   59 1
    59   61   59 ar
    60   62   61 1
    61   63   54 ar
    62   64   50 1
    63   65   64 1
    64   66   65 1
    65   67   65 1
    66   68   65 1
    67   69   51 1
    68   70   69 1
    69   71   69 1
    70   72   69 1
    71   73   45 1
    72   74   49 1
    73   75   74 1
    74   76   74 1
    75   77   74 1
    76   78   77 ar
    77   79   78 1
    78   80   78 ar
    79   81   80 1
    80   82   80 ar
    81   83   82 1
    82   84   82 ar
    83   85   84 1
    84   86   77 ar
    85   87   86 1
    86   88   45 1
    87   17   19 ar
    88   19   20 1
    89   40   42 ar
    90   61   63 ar
    91   63   64 1
    92   84   86 ar
@<TRIPOS>SUBSTRUCTURE
     1 RES1 1
     2 RES2 45

@<TRIPOS>CRYSIN
  10.1377   11.6324   15.3503  82.4850  88.3700  81.5060   2 1

