# MOL2 file generated by ConQuest
# Please check atom types

@<TRIPOS>MOLECULE
JICDAD
    88    90     2
SMALL
NO_CHARGES
****
Generated from CSD

@<TRIPOS>ATOM
      1 O1         1.9472   18.6634    4.4526 O.3       1 RES1    0.0000
      2 O2         3.1096   19.4805    2.2249 O.2       1 RES1    0.0000
      3 O3         3.6821   18.3357   -0.2434 O.3       1 RES1    0.0000
      4 O4        -3.6420   15.9871    3.3518 O.3       1 RES1    0.0000
      5 N1         1.3198   18.4979    3.1993 N.am      1 RES1    0.0000
      6 C1         2.0282   18.8915    2.1226 C.2       1 RES1    0.0000
      7 C2         1.4551   18.5548    0.7593 C.3       1 RES1    0.0000
      8 C3         2.4713   17.6301    0.0505 C.3       1 RES1    0.0000
      9 C4         2.7709   16.3593    0.8453 C.3       1 RES1    0.0000
     10 C5         1.5656   15.4168    1.0130 C.3       1 RES1    0.0000
     11 C6         1.5245   14.6707    2.3468 C.3       1 RES1    0.0000
     12 C7         1.2940   15.5867    3.5681 C.3       1 RES1    0.0000
     13 C8         0.0360   16.4178    3.4375 C.ar      1 RES1    0.0000
     14 C9        -1.2131   15.7861    3.4847 C.ar      1 RES1    0.0000
     15 C10       -2.3900   16.5118    3.3185 C.ar      1 RES1    0.0000
     16 C11       -2.3362   17.8928    3.1111 C.ar      1 RES1    0.0000
     17 C12       -1.1116   18.5309    3.0808 C.ar      1 RES1    0.0000
     18 C13        0.0675   17.8016    3.2339 C.ar      1 RES1    0.0000
     19 C14        1.7027   19.9904    4.9460 C.3       1 RES1    0.0000
     20 C15        1.1680   19.8482   -0.0072 C.3       1 RES1    0.0000
     21 C16       -3.7591   14.5757    3.5425 C.3       1 RES1    0.0000
     22 H1         3.8802   18.7790    0.4722 H         1 RES1    0.0000
     23 H2         0.6338   18.0553    0.8510 H         1 RES1    0.0000
     24 H3         2.0978   17.3897   -0.8110 H         1 RES1    0.0000
     25 H4         3.1226   16.6271    1.7400 H         1 RES1    0.0000
     26 H5         3.4736   15.8969    0.3860 H         1 RES1    0.0000
     27 H6         0.7191   15.9292    0.9423 H         1 RES1    0.0000
     28 H7         1.5816   14.7499    0.2741 H         1 RES1    0.0000
     29 H8         0.7836   13.9906    2.2881 H         1 RES1    0.0000
     30 H9         2.3687   14.1747    2.4647 H         1 RES1    0.0000
     31 H10        1.2267   15.0278    4.3894 H         1 RES1    0.0000
     32 H11        2.0617   16.1780    3.6832 H         1 RES1    0.0000
     33 H12       -1.2254   14.8339    3.6339 H         1 RES1    0.0000
     34 H13       -3.1529   18.3816    3.0098 H         1 RES1    0.0000
     35 H14       -1.0476   19.4802    2.9482 H         1 RES1    0.0000
     36 H15        2.1259   20.6531    4.3997 H         1 RES1    0.0000
     37 H16        2.1419   19.9713    5.8152 H         1 RES1    0.0000
     38 H17        0.7432   20.1458    5.0197 H         1 RES1    0.0000
     39 H18        1.9410   20.4398    0.0082 H         1 RES1    0.0000
     40 H19        0.3914   20.3396    0.4086 H         1 RES1    0.0000
     41 H20        0.9581   19.6708   -0.9249 H         1 RES1    0.0000
     42 H21       -3.3704   14.0875    2.7675 H         1 RES1    0.0000
     43 H22       -4.7243   14.4042    3.6134 H         1 RES1    0.0000
     44 H23       -3.3253   14.3040    4.3822 H         1 RES1    0.0000
     45 O5         4.5830   26.9149    6.0337 O.3       2 RES2    0.0000
     46 O6         2.5411   25.3649    5.3484 O.2       2 RES2    0.0000
     47 O7         1.6497   22.8386    6.1557 O.3       2 RES2    0.0000
     48 O8         5.0274   27.7469   12.2298 O.3       2 RES2    0.0000
     49 N2         3.6854   26.4021    7.0010 N.am      2 RES2    0.0000
     50 C17        2.7352   25.5533    6.5511 C.2       2 RES2    0.0000
     51 C18        1.9398   24.8014    7.6047 C.3       2 RES2    0.0000
     52 C19        2.2029   23.2912    7.4013 C.3       2 RES2    0.0000
     53 C20        3.6885   22.9403    7.4765 C.3       2 RES2    0.0000
     54 C21        4.3375   23.1869    8.8492 C.3       2 RES2    0.0000
     55 C22        5.7921   23.6425    8.7736 C.3       2 RES2    0.0000
     56 C23        5.9884   25.0531    8.1852 C.3       2 RES2    0.0000
     57 C24        5.1824   26.0978    8.9203 C.ar      2 RES2    0.0000
     58 C25        5.5312   26.4464   10.2302 C.ar      2 RES2    0.0000
     59 C26        4.7535   27.3424   10.9559 C.ar      2 RES2    0.0000
     60 C27        3.6048   27.9001   10.3861 C.ar      2 RES2    0.0000
     61 C28        3.2654   27.5866    9.0871 C.ar      2 RES2    0.0000
     62 C29        4.0515   26.6968    8.3572 C.ar      2 RES2    0.0000
     63 C30        4.0276   28.0849    5.4166 C.3       2 RES2    0.0000
     64 C31        0.4558   25.1459    7.5139 C.3       2 RES2    0.0000
     65 C32        6.2400   27.2790   12.8334 C.3       2 RES2    0.0000
     66 H24        1.9571   23.4350    5.5617 H         2 RES2    0.0000
     67 H25        2.2499   25.0247    8.4883 H         2 RES2    0.0000
     68 H26        1.7272   22.8082    8.1136 H         2 RES2    0.0000
     69 H27        4.1763   23.4576    6.7473 H         2 RES2    0.0000
     70 H28        3.8014   22.0230    7.2472 H         2 RES2    0.0000
     71 H29        3.8349   23.8809    9.3670 H         2 RES2    0.0000
     72 H30        4.3037   22.3526    9.3814 H         2 RES2    0.0000
     73 H31        6.3016   23.0118    8.2419 H         2 RES2    0.0000
     74 H32        6.1977   23.6547    9.6647 H         2 RES2    0.0000
     75 H33        5.7633   25.0409    7.2236 H         2 RES2    0.0000
     76 H34        6.9312   25.2832    8.2471 H         2 RES2    0.0000
     77 H35        6.3307   26.0780   10.6132 H         2 RES2    0.0000
     78 H36        3.0630   28.5175   10.9160 H         2 RES2    0.0000
     79 H37        2.4868   27.9747    8.6700 H         2 RES2    0.0000
     80 H38        3.8972   28.7857    6.0606 H         2 RES2    0.0000
     81 H39        4.7092   28.3366    4.8000 H         2 RES2    0.0000
     82 H40        3.1586   27.8616    4.9858 H         2 RES2    0.0000
     83 H41       -0.0548   24.5950    8.1958 H         2 RES2    0.0000
     84 H42        0.1072   24.9116    6.6457 H         2 RES2    0.0000
     85 H43        0.3307   26.1330    7.6712 H         2 RES2    0.0000
     86 H44        6.3063   27.7614   13.6918 H         2 RES2    0.0000
     87 H45        7.0015   27.4997   12.2834 H         2 RES2    0.0000
     88 H46        6.2201   26.2913   12.9835 H         2 RES2    0.0000
@<TRIPOS>BOND
     1    1    5 1
     2    2    6 2
     3    3    8 1
     4    4   15 1
     5    5    6 1
     6    6    7 1
     7    7    8 1
     8    8    9 1
     9    9   10 1
    10   10   11 1
    11   11   12 1
    12   12   13 1
    13   13   14 ar
    14   14   15 ar
    15   15   16 ar
    16   16   17 ar
    17   17   18 ar
    18   18    5 1
    19   19    1 1
    20   20    7 1
    21   21    4 1
    22   22    3 1
    23   23    7 1
    24   24    8 1
    25   25    9 1
    26   26    9 1
    27   27   10 1
    28   28   10 1
    29   29   11 1
    30   30   11 1
    31   31   12 1
    32   32   12 1
    33   33   14 1
    34   34   16 1
    35   35   17 1
    36   36   19 1
    37   37   19 1
    38   38   19 1
    39   39   20 1
    40   40   20 1
    41   41   20 1
    42   42   21 1
    43   43   21 1
    44   44   21 1
    45   45   49 1
    46   46   50 2
    47   47   52 1
    48   48   59 1
    49   49   50 1
    50   50   51 1
    51   51   52 1
    52   52   53 1
    53   53   54 1
    54   54   55 1
    55   55   56 1
    56   56   57 1
    57   57   58 ar
    58   58   59 ar
    59   59   60 ar
    60   60   61 ar
    61   61   62 ar
    62   62   49 1
    63   63   45 1
    64   64   51 1
    65   65   48 1
    66   66   47 1
    67   67   51 1
    68   68   52 1
    69   69   53 1
    70   70   53 1
    71   71   54 1
    72   72   54 1
    73   73   55 1
    74   74   55 1
    75   75   56 1
    76   76   56 1
    77   77   58 1
    78   78   60 1
    79   79   61 1
    80   80   63 1
    81   81   63 1
    82   82   63 1
    83   83   64 1
    84   84   64 1
    85   85   64 1
    86   86   65 1
    87   87   65 1
    88   88   65 1
    89   13   18 ar
    90   57   62 ar
@<TRIPOS>SUBSTRUCTURE
     1 RES1 1
     2 RES2 45

@<TRIPOS>CRYSIN
   9.2770   32.3108   11.1622  90.0000 113.1263  90.0000  14 1

