# MOL2 file generated by ConQuest
# Please check atom types

@<TRIPOS>MOLECULE
JIFMAP
    54    46     2
SMALL
USER_CHARGES
****
Generated from CSD

@<TRIPOS>ATOM
      1 O1        -5.8404    6.5667    1.7143 Du        2 SUP2    0.0000
      2 O2        -1.9083    6.7266   -0.7218 O.2       1 RES1    0.0000
      3 O3        -9.0062    6.9591   -8.2469 O.2       1 RES1    0.0000
      4 N1        -4.5794    6.9947    1.3685 N.pl3     1 RES1    1.0000
      5 N2        -2.7290    6.8828    0.2352 N.3       1 RES1    0.0000
      6 N3        -7.0277    6.7411   -4.6996 N.pl3     1 RES1    0.0000
      7 C1        -4.8384    6.8799   -1.1020 C.ar      1 RES1    0.0000
      8 C2        -4.2232    7.1887   -2.3167 C.ar      1 RES1    0.0000
      9 H1        -3.3243    7.4277   -2.3300 H         1 RES1    0.0000
     10 C3        -4.9350    7.1444   -3.4990 C.ar      1 RES1    0.0000
     11 H2        -4.5187    7.3558   -4.3032 H         1 RES1    0.0000
     12 C4        -6.2796    6.7818   -3.4834 C.ar      1 RES1    0.0000
     13 C5        -6.9052    6.4737   -2.2830 C.ar      1 RES1    0.0000
     14 H3        -7.8024    6.2296   -2.2745 H         1 RES1    0.0000
     15 C6        -6.1933    6.5319   -1.1036 C.ar      1 RES1    0.0000
     16 H4        -6.6193    6.3364   -0.2998 H         1 RES1    0.0000
     17 C7        -4.0778    6.9169    0.1428 C.2       1 RES1    0.0000
     18 C8        -3.5347    7.0085    2.4427 C.3       1 RES1    0.0000
     19 C9        -2.2059    7.3144    1.5972 C.3       1 RES1    0.0000
     20 C10       -3.7560    8.2284    3.2913 C.3       1 RES1    0.0000
     21 H5        -3.7095    9.0138    2.7411 H         1 RES1    0.0000
     22 H6        -3.0785    8.2735    3.9697 H         1 RES1    0.0000
     23 H7        -4.6215    8.1783    3.7050 H         1 RES1    0.0000
     24 C11       -3.7296    5.7486    3.2673 C.3       1 RES1    0.0000
     25 H8        -4.5944    5.7682    3.6816 H         1 RES1    0.0000
     26 H9        -3.0510    5.7021    3.9448 H         1 RES1    0.0000
     27 H10       -3.6655    4.9799    2.6972 H         1 RES1    0.0000
     28 C12       -6.4523    6.2797   -5.8513 C.2       1 RES1    0.0000
     29 H11       -5.5872    5.9397   -5.8215 H         1 RES1    0.0000
     30 C13       -7.1049    6.3059   -7.0257 C.2       1 RES1    0.0000
     31 H12       -6.6837    5.9659   -7.7829 H         1 RES1    0.0000
     32 C14       -8.4327    6.8436   -7.1488 C.2       1 RES1    0.0000
     33 C15       -9.0197    7.2424   -5.8931 C.2       1 RES1    0.0000
     34 H13       -9.9015    7.5389   -5.8785 H         1 RES1    0.0000
     35 C16       -8.3261    7.1974   -4.7449 C.2       1 RES1    0.0000
     36 H14       -8.7334    7.4815   -3.9595 H         1 RES1    0.0000
     37 C17       -1.6904    8.7225    1.4320 C.3       1 RES1    0.0000
     38 H15       -0.9727    8.7276    0.7928 H         1 RES1    0.0000
     39 H16       -1.3694    9.0465    2.2759 H         1 RES1    0.0000
     40 H17       -2.4003    9.2892    1.1204 H         1 RES1    0.0000
     41 C18       -1.0868    6.3488    2.0068 C.3       1 RES1    0.0000
     42 H18       -1.4275    5.4507    2.0156 H         1 RES1    0.0000
     43 H19       -0.7706    6.5798    2.8829 H         1 RES1    0.0000
     44 H20       -0.3644    6.4120    1.3778 H         1 RES1    0.0000
     45 O4        -5.8113    7.2672    1.6733 O.2       1 RES1   -1.0000
     46 C19       -1.6741    5.1645    1.5417 Du        2 SUP2    0.0000
     47 H21       -2.3598    4.5541    1.2594 Du        2 SUP2    0.0000
     48 H22       -1.3628    4.9145    2.4134 Du        2 SUP2    0.0000
     49 H23       -0.9444    5.1339    0.9200 Du        2 SUP2    0.0000
     50 C20       -1.1621    7.5665    1.9658 Du        2 SUP2    0.0000
     51 H24       -0.3672    7.3514    1.4729 Du        2 SUP2    0.0000
     52 H25       -0.9846    7.4960    2.9063 Du        2 SUP2    0.0000
     53 H26       -1.4334    8.4638    1.7581 Du        2 SUP2    0.0000
     54 C21       -2.2556    6.6132    1.5914 Du        2 SUP2    0.0000
@<TRIPOS>BOND
     1    2    5 1
     2    3   32 2
     3    4   17 2
     4    5   17 1
     5    6   12 1
     6    7    8 ar
     7    8    9 1
     8   10    8 ar
     9   11   10 1
    10   12   10 ar
    11   13   12 ar
    12   14   13 1
    13   15    7 ar
    14   16   15 1
    15   17    7 1
    16   18    4 1
    17   19    5 1
    18   20   18 1
    19   21   20 1
    20   22   20 1
    21   23   20 1
    22   24   18 1
    23   25   24 1
    24   26   24 1
    25   27   24 1
    26   28    6 1
    27   29   28 1
    28   30   28 2
    29   31   30 1
    30   32   30 1
    31   33   32 1
    32   34   33 1
    33   35    6 1
    34   36   35 1
    35   37   19 1
    36   38   37 1
    37   39   37 1
    38   40   37 1
    39   41   19 1
    40   42   41 1
    41   43   41 1
    42   44   41 1
    43   45    4 1
    44   13   15 ar
    45   18   19 1
    46   33   35 2
@<TRIPOS>SUBSTRUCTURE
     1 RES1 2
     2 SUP2 1

@<TRIPOS>CRYSIN
  15.5790    7.2657   15.2360  90.0000 106.2570  90.0000  14 1

