# MOL2 file generated by ConQuest
# Please check atom types

@<TRIPOS>MOLECULE
JIFMIU
    62    65     1
SMALL
NO_CHARGES
****
Generated from CSD

@<TRIPOS>ATOM
      1 O1         2.4534    1.1356    7.6404 O.3       1 RES1    0.0000
      2 N1         1.6262    0.1493    7.0191 N.2       1 RES1    0.0000
      3 C1         1.8837    0.1424    5.7420 C.2       1 RES1    0.0000
      4 C2         2.9288    1.1651    5.2997 C.3       1 RES1    0.0000
      5 C3         3.4844    1.6096    6.6642 C.3       1 RES1    0.0000
      6 C4         1.2410   -0.8595    4.8797 C.ar      1 RES1    0.0000
      7 C5         1.4256   -2.2209    5.1461 C.ar      1 RES1    0.0000
      8 C6         0.8685   -3.1741    4.2747 C.ar      1 RES1    0.0000
      9 C7         0.1199   -2.7800    3.1613 C.ar      1 RES1    0.0000
     10 C8        -0.0958   -1.4308    2.9518 C.ar      1 RES1    0.0000
     11 C9         0.4544   -0.4376    3.7704 C.ar      1 RES1    0.0000
     12 C10        2.2505   -2.7140    6.3266 C.3       1 RES1    0.0000
     13 C11       -0.4111   -3.8479    2.1933 C.3       1 RES1    0.0000
     14 C12        0.2076    1.0245    3.4938 C.3       1 RES1    0.0000
     15 C13        3.9813    0.6320    4.3683 C.3       1 RES1    0.0000
     16 O2         2.7583    4.9210    8.0664 O.3       1 RES1    0.0000
     17 N2         3.9306    4.4660    8.7518 N.2       1 RES1    0.0000
     18 C14        4.4127    3.4572    8.1254 C.2       1 RES1    0.0000
     19 C15        3.6609    3.1047    6.8462 C.3       1 RES1    0.0000
     20 C16        2.3578    3.9191    7.0842 C.3       1 RES1    0.0000
     21 C17        5.6297    2.7626    8.6297 C.ar      1 RES1    0.0000
     22 C18        5.5631    2.0299    9.8438 C.ar      1 RES1    0.0000
     23 C19        6.7012    1.4082   10.2882 C.ar      1 RES1    0.0000
     24 C20        7.8839    1.4273    9.5906 C.ar      1 RES1    0.0000
     25 C21        7.9354    2.1479    8.3786 C.ar      1 RES1    0.0000
     26 C22        6.7848    2.8078    7.9220 C.ar      1 RES1    0.0000
     27 C23        4.2718    1.9135   10.6603 C.3       1 RES1    0.0000
     28 C24        9.1508    0.6737   10.0604 C.3       1 RES1    0.0000
     29 C25        6.9382    3.6187    6.6225 C.3       1 RES1    0.0000
     30 C26        1.7981    4.6640    5.8975 C.3       1 RES1    0.0000
     31 H1         2.4932    1.9100    4.8502 H         1 RES1    0.0000
     32 H2         4.5003    1.0939    6.8127 H         1 RES1    0.0000
     33 H3         1.0183   -4.1500    4.4333 H         1 RES1    0.0000
     34 H4        -0.6673   -1.1460    2.1557 H         1 RES1    0.0000
     35 H5         3.1817   -2.3789    6.2636 H         1 RES1    0.0000
     36 H6         1.8226   -2.3962    7.1787 H         1 RES1    0.0000
     37 H7         2.2491   -3.7159    6.3348 H         1 RES1    0.0000
     38 H8        -0.6123   -4.6709    2.6844 H         1 RES1    0.0000
     39 H9        -1.2546   -3.5423    1.8506 H         1 RES1    0.0000
     40 H10        0.1907   -4.0284    1.5151 H         1 RES1    0.0000
     41 H11       -0.3139    1.4238    4.2706 H         1 RES1    0.0000
     42 H12        1.0319    1.5107    3.3555 H         1 RES1    0.0000
     43 H13       -0.3972    1.0939    2.6742 H         1 RES1    0.0000
     44 H14        4.4806   -0.1215    4.8502 H         1 RES1    0.0000
     45 H15        3.5459    0.2257    3.5487 H         1 RES1    0.0000
     46 H16        4.6244    1.3197    4.0978 H         1 RES1    0.0000
     47 H17        4.1668    3.4381    6.1212 H         1 RES1    0.0000
     48 H18        1.6514    3.2644    7.4736 H         1 RES1    0.0000
     49 H19        6.6932    0.8856   11.1647 H         1 RES1    0.0000
     50 H20        8.8002    2.2052    7.8600 H         1 RES1    0.0000
     51 H21        3.9373    2.8303   10.9816 H         1 RES1    0.0000
     52 H22        3.5217    1.4759   10.1478 H         1 RES1    0.0000
     53 H23        4.4173    1.3544   11.5205 H         1 RES1    0.0000
     54 H24        9.4076    1.0592   10.9715 H         1 RES1    0.0000
     55 H25        8.9636   -0.2778   10.1478 H         1 RES1    0.0000
     56 H26        9.8891    0.8508    9.4259 H         1 RES1    0.0000
     57 H27        6.2961    3.2471    5.9179 H         1 RES1    0.0000
     58 H28        6.7499    4.5667    6.7618 H         1 RES1    0.0000
     59 H29        7.8669    3.4902    6.2433 H         1 RES1    0.0000
     60 H30        0.9256    4.9314    6.1212 H         1 RES1    0.0000
     61 H31        1.8054    4.0979    5.1248 H         1 RES1    0.0000
     62 H32        2.3816    5.5218    5.7247 H         1 RES1    0.0000
@<TRIPOS>BOND
     1    1    2 1
     2    2    3 2
     3    3    4 1
     4    4    5 1
     5    5    1 1
     6    6    3 1
     7    7    6 ar
     8    8    7 ar
     9    9    8 ar
    10   10    9 ar
    11   11    6 ar
    12   12    7 1
    13   13    9 1
    14   14   11 1
    15   15    4 1
    16   16   17 1
    17   17   18 2
    18   18   19 1
    19   19    5 1
    20   20   16 1
    21   21   18 1
    22   22   21 ar
    23   23   22 ar
    24   24   23 ar
    25   25   24 ar
    26   26   21 ar
    27   27   22 1
    28   28   24 1
    29   29   26 1
    30   30   20 1
    31   31    4 1
    32   32    5 1
    33   33    8 1
    34   34   10 1
    35   35   12 1
    36   36   12 1
    37   37   12 1
    38   38   13 1
    39   39   13 1
    40   40   13 1
    41   41   14 1
    42   42   14 1
    43   43   14 1
    44   44   15 1
    45   45   15 1
    46   46   15 1
    47   47   19 1
    48   48   20 1
    49   49   23 1
    50   50   25 1
    51   51   27 1
    52   52   27 1
    53   53   27 1
    54   54   28 1
    55   55   28 1
    56   56   28 1
    57   57   29 1
    58   58   29 1
    59   59   29 1
    60   60   30 1
    61   61   30 1
    62   62   30 1
    63   10   11 ar
    64   19   20 1
    65   25   26 ar
@<TRIPOS>SUBSTRUCTURE
     1 RES1 1

@<TRIPOS>CRYSIN
  13.3380   17.3640   10.3200  90.0000  99.8400  90.0000  14 1

