# MOL2 file generated by ConQuest
# Please check atom types

@<TRIPOS>MOLECULE
JIFNER
    32    34     1
SMALL
NO_CHARGES
****
Generated from CSD

@<TRIPOS>ATOM
      1 N1         1.2311    0.6376   12.0432 N.am      1 RES1    0.0000
      2 O1         1.0050   -0.1486   10.9116 O.3       1 RES1    0.0000
      3 C1         2.4601    0.6938   12.5457 C.2       1 RES1    0.0000
      4 O2         3.4011    0.0231   12.1345 O.2       1 RES1    0.0000
      5 C2         2.6603    1.6457   13.6861 C.3       1 RES1    0.0000
      6 C3         3.2867    1.0001   14.9090 C.3       1 RES1    0.0000
      7 C4         3.0021    2.0202   16.0089 C.3       1 RES1    0.0000
      8 C5         1.6457    2.6257   15.6505 C.3       1 RES1    0.0000
      9 N2         1.4326    2.2120   14.2554 N.am      1 RES1    0.0000
     10 C6         0.2308    2.1327   13.7107 C.2       1 RES1    0.0000
     11 O3        -0.7973    2.5615   14.2606 O.2       1 RES1    0.0000
     12 C7         0.0838    1.4871   12.3542 C.3       1 RES1    0.0000
     13 C8        -0.1471    2.5223   11.2753 C.ar      1 RES1    0.0000
     14 C9        -1.2794    2.4480   10.4758 C.ar      1 RES1    0.0000
     15 C10       -1.4612    3.3597    9.4479 C.ar      1 RES1    0.0000
     16 C11       -0.5556    4.3417    9.2213 C.ar      1 RES1    0.0000
     17 C12        0.5508    4.4482   10.0313 C.ar      1 RES1    0.0000
     18 C13        0.7469    3.5445   11.0522 C.ar      1 RES1    0.0000
     19 H1         0.8784   -1.0141   11.2982 H         1 RES1    0.0000
     20 H2         3.2070    2.3496   13.3891 H         1 RES1    0.0000
     21 H3         4.2080    0.8635   14.7421 H         1 RES1    0.0000
     22 H4         3.7041    2.7312   16.0072 H         1 RES1    0.0000
     23 H5         2.9347    1.6066   16.9384 H         1 RES1    0.0000
     24 H6         2.8257    0.1004   15.1286 H         1 RES1    0.0000
     25 H7         0.9124    2.2793   16.1653 H         1 RES1    0.0000
     26 H8         1.5865    3.6148   15.7612 H         1 RES1    0.0000
     27 H9        -0.6809    0.8635   12.4227 H         1 RES1    0.0000
     28 H10       -1.9133    1.6568   10.6305 H         1 RES1    0.0000
     29 H11       -2.2674    3.2934    8.8382 H         1 RES1    0.0000
     30 H12       -0.6400    5.0004    8.4868 H         1 RES1    0.0000
     31 H13        1.3209    5.0305    9.8222 H         1 RES1    0.0000
     32 H14        1.5593    3.5545   11.6320 H         1 RES1    0.0000
@<TRIPOS>BOND
     1    1    2 1
     2    2   19 1
     3    3    1 1
     4    4    3 2
     5    5    3 1
     6    6    5 1
     7    7    6 1
     8    8    7 1
     9    9    5 1
    10   10    9 1
    11   11   10 2
    12   12    1 1
    13   13   12 1
    14   14   13 ar
    15   15   14 ar
    16   16   15 ar
    17   17   16 ar
    18   18   13 ar
    19   20    5 1
    20   21    6 1
    21   22    7 1
    22   23    7 1
    23   24    6 1
    24   25    8 1
    25   26    8 1
    26   27   12 1
    27   28   14 1
    28   29   15 1
    29   30   16 1
    30   31   17 1
    31   32   18 1
    32    8    9 1
    33   10   12 1
    34   17   18 ar
@<TRIPOS>SUBSTRUCTURE
     1 RES1 1

@<TRIPOS>CRYSIN
   6.8090   10.0410   17.5710  90.0000  90.0000  90.0000  19 1

