# MOL2 file generated by ConQuest
# Please check atom types

@<TRIPOS>MOLECULE
JIFVOM
    42    45     1
SMALL
NO_CHARGES
****
Generated from CSD

@<TRIPOS>ATOM
      1 N1         5.4936   13.9745    4.5255 N.2       1 RES1    0.0000
      2 O1         5.5698   12.7990    5.3078 O.3       1 RES1    0.0000
      3 C1         5.2569   14.9920    5.3496 C.2       1 RES1    0.0000
      4 C2         5.1526   14.5575    6.6656 C.2       1 RES1    0.0000
      5 C3         5.1570   16.3457    4.7690 C.ar      1 RES1    0.0000
      6 C4         4.8967   16.1206   10.1825 C.ar      1 RES1    0.0000
      7 C5         5.3597   13.1693    6.5726 C.2       1 RES1    0.0000
      8 C6         5.3656   12.1140    7.5985 C.ar      1 RES1    0.0000
      9 C7         5.6208   17.4458    5.4845 C.ar      1 RES1    0.0000
     10 H1         6.0136   17.3283    6.3194 H         1 RES1    0.0000
     11 C8         4.4240   12.1284    8.6176 C.ar      1 RES1    0.0000
     12 H2         3.7768   12.7958    8.6395 H         1 RES1    0.0000
     13 C9         5.2355   15.2464    9.0464 C.2       1 RES1    0.0000
     14 H3         5.7850   14.5171    9.2207 H         1 RES1    0.0000
     15 C10        4.8220   15.4122    7.7961 C.2       1 RES1    0.0000
     16 H4         4.2694   16.1409    7.6271 H         1 RES1    0.0000
     17 C11        6.3117   11.1046    7.5616 C.ar      1 RES1    0.0000
     18 H5         6.9456   11.0867    6.8798 H         1 RES1    0.0000
     19 C12        4.5853   16.5326    3.5093 C.ar      1 RES1    0.0000
     20 H6         4.2968   15.7999    3.0144 H         1 RES1    0.0000
     21 C13        4.4396   11.1565    9.6036 C.ar      1 RES1    0.0000
     22 H7         3.8138   11.1801   10.2909 H         1 RES1    0.0000
     23 C14        5.4958   18.7141    4.9517 C.ar      1 RES1    0.0000
     24 H8         5.8176   19.4474    5.4245 H         1 RES1    0.0000
     25 C15        3.9255   17.1166   10.1541 C.ar      1 RES1    0.0000
     26 H9         3.4528   17.2755    9.3684 H         1 RES1    0.0000
     27 C16        5.3863   10.1490    9.5653 C.ar      1 RES1    0.0000
     28 H10        5.3982    9.4954   10.2263 H         1 RES1    0.0000
     29 C17        5.5809   15.9170   11.3751 C.ar      1 RES1    0.0000
     30 H11        6.2399   15.2620   11.4141 H         1 RES1    0.0000
     31 C18        6.3169   10.1171    8.5408 C.ar      1 RES1    0.0000
     32 H12        6.9463    9.4345    8.5081 H         1 RES1    0.0000
     33 C19        4.4514   17.8149    3.0017 C.ar      1 RES1    0.0000
     34 H13        4.0586   17.9413    2.1680 H         1 RES1    0.0000
     35 C20        4.8945   18.9010    3.7181 C.ar      1 RES1    0.0000
     36 H14        4.7909   19.7600    3.3742 H         1 RES1    0.0000
     37 C21        5.3072   16.6599   12.4944 C.ar      1 RES1    0.0000
     38 H15        5.7732   16.4981   13.2822 H         1 RES1    0.0000
     39 C22        3.6562   17.8697   11.2750 C.ar      1 RES1    0.0000
     40 H16        3.0068   18.5340   11.2388 H         1 RES1    0.0000
     41 C23        4.3434   17.6474   12.4575 C.ar      1 RES1    0.0000
     42 H17        4.1585   18.1544   13.2153 H         1 RES1    0.0000
@<TRIPOS>BOND
     1    1    2 1
     2    2    7 1
     3    3    1 2
     4    4    3 1
     5    5    3 1
     6    6   13 1
     7    7    4 2
     8    8    7 1
     9    9    5 ar
    10   10    9 1
    11   11    8 ar
    12   12   11 1
    13   13   14 1
    14   15    4 1
    15   16   15 1
    16   17    8 ar
    17   18   17 1
    18   19    5 ar
    19   20   19 1
    20   21   11 ar
    21   22   21 1
    22   23    9 ar
    23   24   23 1
    24   25    6 ar
    25   26   25 1
    26   27   21 ar
    27   28   27 1
    28   29    6 ar
    29   30   29 1
    30   31   17 ar
    31   32   31 1
    32   33   19 ar
    33   34   33 1
    34   35   23 ar
    35   36   35 1
    36   37   29 ar
    37   38   37 1
    38   39   25 ar
    39   40   39 1
    40   41   37 ar
    41   42   41 1
    42   13   15 2
    43   27   31 ar
    44   33   35 ar
    45   39   41 ar
@<TRIPOS>SUBSTRUCTURE
     1 RES1 1

@<TRIPOS>CRYSIN
   7.3968   20.2979   23.0634  90.0000  90.0000  90.0000  61 1

