# MOL2 file generated by ConQuest
# Please check atom types

@<TRIPOS>MOLECULE
JIGBIK
    31    30     1
SMALL
NO_CHARGES
****
Generated from CSD

@<TRIPOS>ATOM
      1 O1         7.5028    5.2970    1.7844 O.3       1 RES1    0.0000
      2 O2         5.2383    3.7994    1.7367 O.3       1 RES1    0.0000
      3 O3         4.8607    7.0362    3.4582 O.3       1 RES1    0.0000
      4 O4         2.6396    5.4841    3.4296 O.3       1 RES1    0.0000
      5 O5         2.6188    4.5165    6.0776 O.3       1 RES1    0.0000
      6 O6         4.8910    3.1426    6.2778 O.3       1 RES1    0.0000
      7 O7         7.3325    4.5529    7.8030 O.2       1 RES1    0.0000
      8 O8         6.0850    4.0556    9.4692 O.2       1 RES1    0.0000
      9 N1         6.2530    4.5221    8.3653 N.pl3     1 RES1    0.0000
     10 C1         6.3353    5.8627    1.2163 C.3       1 RES1    0.0000
     11 C2         5.1411    5.2160    1.8626 C.3       1 RES1    0.0000
     12 C3         4.9946    5.6172    3.3381 C.3       1 RES1    0.0000
     13 C4         3.8093    4.9365    4.0206 C.3       1 RES1    0.0000
     14 C5         3.7699    5.1563    5.5362 C.3       1 RES1    0.0000
     15 C6         4.9698    4.5554    6.2569 C.3       1 RES1    0.0000
     16 C7         5.0630    5.1004    7.6752 C.3       1 RES1    0.0000
     17 H1         6.3670    6.8127    1.3536 H         1 RES1    0.0000
     18 H2         6.3065    5.6951    0.2478 H         1 RES1    0.0000
     19 H3         4.3323    5.4502    1.5061 H         1 RES1    0.0000
     20 H4         5.8318    5.4188    3.7938 H         1 RES1    0.0000
     21 H5         3.8785    3.9809    3.8510 H         1 RES1    0.0000
     22 H6         3.7272    6.1095    5.7002 H         1 RES1    0.0000
     23 H7         5.8340    4.7972    5.8336 H         1 RES1    0.0000
     24 H8         5.1912    6.0153    7.6447 H         1 RES1    0.0000
     25 H9         4.2289    4.9479    8.1595 H         1 RES1    0.0000
     26 H10        8.0373    5.9023    1.7158 H         1 RES1    0.0000
     27 H11        5.9418    3.5476    2.1924 H         1 RES1    0.0000
     28 H12        4.1163    7.2899    3.1265 H         1 RES1    0.0000
     29 H13        1.9186    4.9604    3.4697 H         1 RES1    0.0000
     30 H14        2.0282    5.1237    6.1387 H         1 RES1    0.0000
     31 H15        4.1669    3.0076    6.4056 H         1 RES1    0.0000
@<TRIPOS>BOND
     1    1   10 1
     2    2   11 1
     3    3   12 1
     4    4   13 1
     5    5   14 1
     6    6   15 1
     7    7    9 2
     8    8    9 2
     9    9   16 1
    10   10   11 1
    11   11   12 1
    12   12   13 1
    13   13   14 1
    14   14   15 1
    15   15   16 1
    16   16   24 1
    17   17   10 1
    18   18   10 1
    19   19   11 1
    20   20   12 1
    21   21   13 1
    22   22   14 1
    23   23   15 1
    24   25   16 1
    25   26    1 1
    26   27    2 1
    27   28    3 1
    28   29    4 1
    29   30    5 1
    30   31    6 1
@<TRIPOS>SUBSTRUCTURE
     1 RES1 1

@<TRIPOS>CRYSIN
   8.7920    6.2790   19.0700  90.0000  91.4200  90.0000   5 1

