# MOL2 file generated by ConQuest
# Please check atom types

@<TRIPOS>MOLECULE
JIGKAL
    46    52     1
SMALL
NO_CHARGES
****
Generated from CSD

@<TRIPOS>ATOM
      1 O1         0.6980    4.1582   15.6482 O.3       1 RES1    0.0000
      2 N1         0.4395    2.7360   15.6233 N.2       1 RES1    0.0000
      3 C1         1.0098    2.2318   16.6449 C.2       1 RES1    0.0000
      4 N2         1.6322    3.1799   17.4661 N.3       1 RES1    0.0000
      5 C2         1.3947    4.4831   16.8453 C.3       1 RES1    0.0000
      6 N3         2.8088    2.8461   18.1086 N.2       1 RES1    0.0000
      7 C3         3.6770    3.7712   18.2410 C.2       1 RES1    0.0000
      8 O2         3.5724    5.0335   17.6979 O.3       1 RES1    0.0000
      9 C4         2.7750    5.0584   16.5174 C.3       1 RES1    0.0000
     10 O3         3.4163    4.3340   15.5091 O.3       1 RES1    0.0000
     11 N4         4.0473    5.2963   14.6365 N.2       1 RES1    0.0000
     12 C5         3.6133    6.4220   15.0190 C.2       1 RES1    0.0000
     13 O4         2.7535    6.3847   16.0919 O.3       1 RES1    0.0000
     14 C6         1.0071    0.7954   16.9860 C.ar      1 RES1    0.0000
     15 C7         0.0455    0.3036   17.8685 C.ar      1 RES1    0.0000
     16 C8        -1.0306    1.2020   18.4331 C.3       1 RES1    0.0000
     17 C9         0.0799   -1.0422   18.1831 C.ar      1 RES1    0.0000
     18 C10        1.0273   -1.9033   17.6532 C.ar      1 RES1    0.0000
     19 C11        1.0070   -3.3877   17.9844 C.3       1 RES1    0.0000
     20 C12        1.9542   -1.3920   16.7757 C.ar      1 RES1    0.0000
     21 C13        1.9588   -0.0497   16.4230 C.ar      1 RES1    0.0000
     22 C14        2.9567    0.4776   15.4147 C.3       1 RES1    0.0000
     23 C15        0.5649    5.4171   17.7112 C.ar      1 RES1    0.0000
     24 C16       -0.1876    6.4238   17.1184 C.ar      1 RES1    0.0000
     25 C17       -0.9187    7.2884   17.9033 C.ar      1 RES1    0.0000
     26 C18       -0.8938    7.1837   19.2609 C.ar      1 RES1    0.0000
     27 C19       -0.1678    6.1947   19.8653 C.ar      1 RES1    0.0000
     28 C20        0.5539    5.3105   19.0772 C.ar      1 RES1    0.0000
     29 C21        4.9126    3.5474   19.0076 C.ar      1 RES1    0.0000
     30 C22        5.9814    4.4263   18.9315 C.ar      1 RES1    0.0000
     31 C23        7.1313    4.1937   19.6500 C.ar      1 RES1    0.0000
     32 C24        7.2021    3.0769   20.4415 C.ar      1 RES1    0.0000
     33 N5         8.4056    2.8390   21.2544 N.pl3     1 RES1    0.0000
     34 O5         9.3272    3.6202   21.1683 O.2       1 RES1    0.0000
     35 O6         8.4332    1.8589   21.9714 O.2       1 RES1    0.0000
     36 C25        6.1712    2.1821   20.5276 C.ar      1 RES1    0.0000
     37 C26        5.0212    2.4182   19.8090 C.ar      1 RES1    0.0000
     38 C27        3.8985    7.7145   14.3815 C.ar      1 RES1    0.0000
     39 C28        3.0125    8.1709   13.4030 C.ar      1 RES1    0.0000
     40 C29        1.7644    7.3843   13.0421 C.3       1 RES1    0.0000
     41 C30        3.3318    9.3480   12.7358 C.ar      1 RES1    0.0000
     42 C31        4.4751   10.0582   13.0139 C.ar      1 RES1    0.0000
     43 C32        4.8015   11.3011   12.2109 C.3       1 RES1    0.0000
     44 C33        5.3047    9.6001   14.0189 C.ar      1 RES1    0.0000
     45 C34        5.0441    8.4372   14.7210 C.ar      1 RES1    0.0000
     46 C35        5.9875    7.9525   15.8005 C.3       1 RES1    0.0000
@<TRIPOS>BOND
     1    1    2 1
     2    2    3 2
     3    3    4 1
     4    4    5 1
     5    5    1 1
     6    6    4 1
     7    7    6 2
     8    8    7 1
     9    9    5 1
    10   10    9 1
    11   11   10 1
    12   12   11 2
    13   13    9 1
    14   14    3 1
    15   15   14 ar
    16   16   15 1
    17   17   15 ar
    18   18   17 ar
    19   19   18 1
    20   20   18 ar
    21   21   14 ar
    22   22   21 1
    23   23    5 1
    24   24   23 ar
    25   25   24 ar
    26   26   25 ar
    27   27   26 ar
    28   28   23 ar
    29   29    7 1
    30   30   29 ar
    31   31   30 ar
    32   32   31 ar
    33   33   32 1
    34   34   33 2
    35   35   33 2
    36   36   32 ar
    37   37   29 ar
    38   38   12 1
    39   39   38 ar
    40   40   39 1
    41   41   39 ar
    42   42   41 ar
    43   43   42 1
    44   44   42 ar
    45   45   38 ar
    46   46   45 1
    47    8    9 1
    48   12   13 1
    49   20   21 ar
    50   27   28 ar
    51   36   37 ar
    52   44   45 ar
@<TRIPOS>SUBSTRUCTURE
     1 RES1 1

@<TRIPOS>CRYSIN
  10.7110   17.7550   16.5950  90.0000  93.8700  90.0000  14 1

