# MOL2 file generated by ConQuest
# Please check atom types

@<TRIPOS>MOLECULE
JIGTEY
    24    22     2
SMALL
NO_CHARGES
****
Generated from CSD

@<TRIPOS>ATOM
      1 O1         6.3226    4.1841    4.5851 O.co2     1 RES1    0.0000
      2 O2         7.2164    3.3863    6.4373 O.co2     1 RES1    0.0000
      3 O3         3.6882    9.3125    3.9930 O.3       1 RES1    0.0000
      4 O4         6.7248    7.2817    6.7348 O.2       1 RES1    0.0000
      5 N1         4.9520    6.0896    6.0174 N.am      1 RES1    0.0000
      6 N2         4.1478    8.1555    4.6359 N.2       1 RES1    0.0000
      7 C1         6.3847    4.0677    5.8722 C.2       1 RES1    0.0000
      8 C2         5.3303    4.8294    6.6649 C.3       1 RES1    0.0000
      9 C3         4.1164    3.9566    6.8139 C.3       1 RES1    0.0000
     10 C4         5.6791    7.1966    6.1292 C.2       1 RES1    0.0000
     11 C5         5.1230    8.4073    5.4048 C.2       1 RES1    0.0000
     12 C6         5.7683    9.7389    5.6152 C.3       1 RES1    0.0000
     13 O5         9.2028   11.6101    5.3346 O.co2     2 RES2    0.0000
     14 O6         8.0928   11.9189    3.4549 O.co2     2 RES2    0.0000
     15 O7         8.2639    8.6376   -1.2727 O.3       2 RES2    0.0000
     16 O8        11.2751    8.5017    2.1659 O.2       2 RES2    0.0000
     17 N3         9.7358   10.1702    2.1450 N.am      2 RES2    0.0000
     18 N4         8.8311    9.2561   -0.1513 N.2       2 RES2    0.0000
     19 C7         9.0435   11.4878    4.0572 C.2       2 RES2    0.0000
     20 C8        10.2132   10.8135    3.3772 C.3       2 RES2    0.0000
     21 C9        11.3128   11.8423    3.0997 C.3       2 RES2    0.0000
     22 C10       10.3007    9.0732    1.6693 C.2       2 RES2    0.0000
     23 C11        9.6467    8.5088    0.4348 C.2       2 RES2    0.0000
     24 C12       10.0179    7.1093    0.0196 C.3       2 RES2    0.0000
@<TRIPOS>BOND
     1    1    7 2
     2    2    7 1
     3    3    6 1
     4    4   10 2
     5    5    8 1
     6    6   11 2
     7    7    8 1
     8    8    9 1
     9   10    5 1
    10   11   10 1
    11   12   11 1
    12   13   19 2
    13   14   19 1
    14   15   18 1
    15   16   22 2
    16   17   20 1
    17   18   23 2
    18   19   20 1
    19   20   21 1
    20   22   17 1
    21   23   22 1
    22   24   23 1
@<TRIPOS>SUBSTRUCTURE
     1 RES1 1
     2 RES2 13

@<TRIPOS>CRYSIN
   9.4200    9.4220    4.8780 107.3400  88.5700  90.3400   1 1

