# MOL2 file generated by ConQuest
# Please check atom types

@<TRIPOS>MOLECULE
JIHVEB
    11    10     1
SMALL
NO_CHARGES
****
Generated from CSD

@<TRIPOS>ATOM
      1 O1        -0.9450   -0.1927   -4.9774 O.2       1 RES1    0.0000
      2 N1        -0.6766   -0.6630   -6.0756 N.pl3     1 RES1    0.0000
      3 O2        -1.2675   -1.5906   -6.5906 O.2       1 RES1    0.0000
      4 C1         0.4488   -0.0856   -6.8474 C.2       1 RES1    0.0000
      5 N2         0.9742    0.8989   -6.2565 N.2       1 RES1    0.0000
      6 C2         0.7708   -0.7229   -8.1434 C.3       1 RES1    0.0000
      7 O3         2.0392    1.4171   -6.9685 O.3       1 RES1    0.0000
      8 H1         1.1388   -1.6314   -8.0029 H         1 RES1    0.0000
      9 H2         1.4880   -0.2479   -8.5536 H         1 RES1    0.0000
     10 H3         0.0909   -0.7197   -8.6211 H         1 RES1    0.0000
     11 H4         2.3349    2.0872   -6.4405 H         1 RES1    0.0000
@<TRIPOS>BOND
     1    1    2 2
     2    2    3 2
     3    4    2 1
     4    5    4 2
     5    6    4 1
     6    7    5 1
     7    8    6 1
     8    9    6 1
     9   10    6 1
    10   11    7 1
@<TRIPOS>SUBSTRUCTURE
     1 RES1 1

@<TRIPOS>CRYSIN
   4.7847    7.9970   11.2400  90.0000  90.0000  90.0000  19 1

