# MOL2 file generated by ConQuest
# Please check atom types

@<TRIPOS>MOLECULE
JIJROJ
    33    33     1
SMALL
NO_CHARGES
****
Generated from CSD

@<TRIPOS>ATOM
      1 C1         1.1395    2.8567    4.0459 C.3       1 RES1    0.0000
      2 C2         1.1462    3.6910    5.3275 C.3       1 RES1    0.0000
      3 C3         2.3193    3.3358    6.2424 C.3       1 RES1    0.0000
      4 C4         2.4098    1.8235    6.4388 C.3       1 RES1    0.0000
      5 C5         2.2501    1.0804    5.0852 C.3       1 RES1    0.0000
      6 C6         2.2155   -0.4742    5.2718 C.3       1 RES1    0.0000
      7 C7        -0.0788    2.5634    2.0901 C.3       1 RES1    0.0000
      8 O1        -0.0519    3.1712    3.3945 O.3       1 RES1    0.0000
      9 O2         1.3572    5.0697    4.9036 O.3       1 RES1    0.0000
     10 O3         0.5670    7.0774    4.8986 O.2       1 RES1    0.0000
     11 O4        -0.5278    5.6091    6.0361 O.2       1 RES1    0.0000
     12 O5         2.1647    3.9941    7.4666 O.3       1 RES1    0.0000
     13 O6         3.7314    1.6247    6.9985 O.3       1 RES1    0.0000
     14 O7         4.8877    0.7757    8.6385 O.2       1 RES1    0.0000
     15 O8         2.8664    0.0619    8.3619 O.2       1 RES1    0.0000
     16 O9         1.0760    1.4846    4.4600 O.3       1 RES1    0.0000
     17 O10        1.0343   -0.7170    6.0443 O.3       1 RES1    0.0000
     18 O11       -0.0015   -2.1934    7.2489 O.2       1 RES1    0.0000
     19 O12        1.9048   -2.7263    6.3357 O.2       1 RES1    0.0000
     20 N1         0.3585    5.9806    5.3045 N.pl3     1 RES1    0.0000
     21 N2         3.8280    0.7398    8.1000 N.pl3     1 RES1    0.0000
     22 N3         1.0043   -1.9734    6.5681 N.pl3     1 RES1    0.0000
     23 H1         1.9526    3.1125    3.5516 H         1 RES1    0.0000
     24 H2         0.2797    3.5851    5.8921 H         1 RES1    0.0000
     25 H3         3.1527    3.6992    5.7939 H         1 RES1    0.0000
     26 H4         3.0612    4.4325    7.6598 H         1 RES1    0.0000
     27 H5         1.6831    1.4503    7.0869 H         1 RES1    0.0000
     28 H6         3.0408    1.3363    4.5173 H         1 RES1    0.0000
     29 H7         3.1019   -0.8148    5.7285 H         1 RES1    0.0000
     30 H8         2.1866   -0.0978    4.2554 H         1 RES1    0.0000
     31 H9        -0.8339    2.7540    1.4730 H         1 RES1    0.0000
     32 H10        0.0000    1.5807    2.1113 H         1 RES1    0.0000
     33 H11        0.7119    2.9333    1.4730 H         1 RES1    0.0000
@<TRIPOS>BOND
     1    1    2 1
     2    2    3 1
     3    3    4 1
     4    4    5 1
     5    5    6 1
     6    6   17 1
     7    7    8 1
     8    8    1 1
     9    9    2 1
    10   10   20 2
    11   11   20 2
    12   12    3 1
    13   13    4 1
    14   14   21 2
    15   15   21 2
    16   16    1 1
    17   17   22 1
    18   18   22 2
    19   19   22 2
    20   20    9 1
    21   21   13 1
    22   23    1 1
    23   24    2 1
    24   25    3 1
    25   26   12 1
    26   27    4 1
    27   28    5 1
    28   29    6 1
    29   30    6 1
    30   31    7 1
    31   32    7 1
    32   33    7 1
    33    5   16 1
@<TRIPOS>SUBSTRUCTURE
     1 RES1 1

@<TRIPOS>CRYSIN
   5.0850   16.2960   16.3670  90.0000  90.0000  90.0000  19 1

