# MOL2 file generated by ConQuest
# Please check atom types

@<TRIPOS>MOLECULE
JIJWOR
    57    61     1
SMALL
NO_CHARGES
****
Generated from CSD

@<TRIPOS>ATOM
      1 O1        -2.1337    2.6652    5.9496 O.2       1 RES1    0.0000
      2 O2        -1.1635    3.7963    7.5069 O.2       1 RES1    0.0000
      3 N1         2.4912    2.3317    4.3302 N.2       1 RES1    0.0000
      4 N2        -1.1322    3.0589    6.5382 N.pl3     1 RES1    0.0000
      5 C1         0.1707    3.7549    3.0228 C.ar      1 RES1    0.0000
      6 H1         0.4469    2.8473    2.9779 H         1 RES1    0.0000
      7 C2        -0.4031    4.3470    1.9257 C.ar      1 RES1    0.0000
      8 H2        -0.5044    3.8432    1.1268 H         1 RES1    0.0000
      9 C3        -0.8474    5.6922    1.9570 C.ar      1 RES1    0.0000
     10 C4        -1.4445    6.3218    0.8401 C.ar      1 RES1    0.0000
     11 H3        -1.5428    5.8429    0.0254 H         1 RES1    0.0000
     12 C5        -1.8833    7.6239    0.9257 C.ar      1 RES1    0.0000
     13 H4        -2.2790    8.0387    0.1680 H         1 RES1    0.0000
     14 C6        -1.7483    8.3473    2.1321 C.ar      1 RES1    0.0000
     15 H5        -2.0607    9.2432    2.1844 H         1 RES1    0.0000
     16 C7        -1.1693    7.7622    3.2246 C.ar      1 RES1    0.0000
     17 H6        -1.0867    8.2543    4.0327 H         1 RES1    0.0000
     18 C8        -0.6906    6.4272    3.1641 C.ar      1 RES1    0.0000
     19 C9        -0.0713    5.7992    4.2750 C.ar      1 RES1    0.0000
     20 H7         0.0533    6.2968    5.0747 H         1 RES1    0.0000
     21 C10        0.3541    4.4908    4.2291 C.ar      1 RES1    0.0000
     22 C11        0.9560    3.8721    5.4619 C.3       1 RES1    0.0000
     23 H8         0.9382    4.5681    6.1789 H         1 RES1    0.0000
     24 C12        0.2065    2.6356    6.0100 C.3       1 RES1    0.0000
     25 H9         0.0861    1.9614    5.2809 H         1 RES1    0.0000
     26 C13        1.1291    2.0685    7.0926 C.3       1 RES1    0.0000
     27 H10        0.8545    2.3809    7.9905 H         1 RES1    0.0000
     28 H11        1.1217    1.0788    7.0811 H         1 RES1    0.0000
     29 C14        2.4995    2.6028    6.7308 C.2       1 RES1    0.0000
     30 C15        2.4099    3.3191    5.3979 C.3       1 RES1    0.0000
     31 H12        3.0927    4.0432    5.3049 H         1 RES1    0.0000
     32 C16        3.5796    2.5637    7.4788 C.2       1 RES1    0.0000
     33 H13        3.5453    2.1708    8.3435 H         1 RES1    0.0000
     34 H14        4.3942    2.9293    7.1560 H         1 RES1    0.0000
     35 C17        3.4103    2.3997    3.4423 C.2       1 RES1    0.0000
     36 C18        3.4025    1.3748    2.3500 C.ar      1 RES1    0.0000
     37 C19        2.4233    0.3695    2.3407 C.ar      1 RES1    0.0000
     38 H15        1.7946    0.3156    3.0499 H         1 RES1    0.0000
     39 C20        2.3697   -0.5445    1.3027 C.ar      1 RES1    0.0000
     40 H16        1.6976   -1.2155    1.2976 H         1 RES1    0.0000
     41 C21        3.2991   -0.4843    0.2633 C.ar      1 RES1    0.0000
     42 H17        3.2625   -1.1170   -0.4448 H         1 RES1    0.0000
     43 C22        4.2707    0.4960    0.2633 C.ar      1 RES1    0.0000
     44 H18        4.9048    0.5382   -0.4434 H         1 RES1    0.0000
     45 C23        4.3213    1.4225    1.3033 C.ar      1 RES1    0.0000
     46 H19        4.9920    2.0958    1.2990 H         1 RES1    0.0000
     47 C24        4.4651    3.4667    3.3803 C.ar      1 RES1    0.0000
     48 C25        5.7877    3.1925    3.7106 C.ar      1 RES1    0.0000
     49 H20        6.0406    2.3169    3.9762 H         1 RES1    0.0000
     50 C26        6.7462    4.2103    3.6499 C.ar      1 RES1    0.0000
     51 H21        7.6499    4.0213    3.8703 H         1 RES1    0.0000
     52 C27        6.3821    5.4859    3.2714 C.ar      1 RES1    0.0000
     53 H22        7.0384    6.1726    3.2306 H         1 RES1    0.0000
     54 C28        5.0662    5.7703    2.9513 C.ar      1 RES1    0.0000
     55 H23        4.8186    6.6514    2.6969 H         1 RES1    0.0000
     56 C29        4.1040    4.7634    3.0036 C.ar      1 RES1    0.0000
     57 H24        3.2013    4.9579    2.7830 H         1 RES1    0.0000
@<TRIPOS>BOND
     1    1    4 2
     2    2    4 2
     3    3   30 1
     4    4   24 1
     5    5    6 1
     6    7    5 ar
     7    8    7 1
     8    9    7 ar
     9   10    9 ar
    10   11   10 1
    11   12   10 ar
    12   13   12 1
    13   14   12 ar
    14   15   14 1
    15   16   14 ar
    16   17   16 1
    17   18    9 ar
    18   19   18 ar
    19   20   19 1
    20   21    5 ar
    21   22   21 1
    22   23   22 1
    23   24   22 1
    24   25   24 1
    25   26   24 1
    26   27   26 1
    27   28   26 1
    28   29   26 1
    29   30   22 1
    30   31   30 1
    31   32   29 2
    32   33   32 1
    33   34   32 1
    34   35    3 2
    35   36   35 1
    36   37   36 ar
    37   38   37 1
    38   39   37 ar
    39   40   39 1
    40   41   39 ar
    41   42   41 1
    42   43   41 ar
    43   44   43 1
    44   45   36 ar
    45   46   45 1
    46   47   35 1
    47   48   47 ar
    48   49   48 1
    49   50   48 ar
    50   51   50 1
    51   52   50 ar
    52   53   52 1
    53   54   52 ar
    54   55   54 1
    55   56   47 ar
    56   57   56 1
    57   16   18 ar
    58   19   21 ar
    59   29   30 1
    60   43   45 ar
    61   54   56 ar
@<TRIPOS>SUBSTRUCTURE
     1 RES1 1

@<TRIPOS>CRYSIN
  10.5498    7.8114   14.3561  90.0000 100.4070  90.0000   4 1

