# MOL2 file generated by ConQuest
# Please check atom types

@<TRIPOS>MOLECULE
JIKJAO
    80    86     2
SMALL
NO_CHARGES
****
Generated from CSD

@<TRIPOS>ATOM
      1 N1        -0.6570    5.0031    3.7645 N.pl3     1 RES1    0.0000
      2 N2        -0.0137    7.1591    2.1409 N.pl3     1 RES1    0.0000
      3 O1        -1.0450    4.0464    4.5386 O.2       1 RES1    0.0000
      4 O2         0.2201    8.1764    1.3795 O.2       1 RES1    0.0000
      5 O3        -1.7914    6.2219   -0.2467 O.2       1 RES1    0.0000
      6 C1        -0.1565    6.1858    4.3334 C.ar      1 RES1    0.0000
      7 C2        -0.7186    4.8881    2.4103 C.2       1 RES1    0.0000
      8 C3        -0.4210    5.9912    1.6287 C.2       1 RES1    0.0000
      9 C4         0.1647    7.2673    3.5267 C.ar      1 RES1    0.0000
     10 C5         0.6407    8.4569    4.0817 C.ar      1 RES1    0.0000
     11 C6         0.7963    8.5290    5.4360 C.ar      1 RES1    0.0000
     12 C7         0.4899    7.4439    6.2403 C.ar      1 RES1    0.0000
     13 C8         0.0239    6.2868    5.7204 C.ar      1 RES1    0.0000
     14 C9        -1.0691    3.5724    1.8552 C.ar      1 RES1    0.0000
     15 C10       -0.2068    2.5198    1.9295 C.ar      1 RES1    0.0000
     16 C11       -0.4997    1.2797    1.4613 C.ar      1 RES1    0.0000
     17 C12       -1.6912    1.0634    0.8471 C.ar      1 RES1    0.0000
     18 C13       -2.5708    2.0944    0.7199 C.ar      1 RES1    0.0000
     19 C14       -2.2847    3.3489    1.2209 C.ar      1 RES1    0.0000
     20 C15       -0.6542    6.0200    0.1296 C.2       1 RES1    0.0000
     21 C16        0.4822    5.8614   -0.7791 C.ar      1 RES1    0.0000
     22 C17        1.7495    5.5586   -0.3058 C.ar      1 RES1    0.0000
     23 C18        2.7920    5.4901   -1.1907 C.ar      1 RES1    0.0000
     24 C19        2.6053    5.7244   -2.5273 C.ar      1 RES1    0.0000
     25 C20        1.3515    5.9984   -3.0043 C.ar      1 RES1    0.0000
     26 C21        0.3067    6.0597   -2.1397 C.ar      1 RES1    0.0000
     27 O4         2.7400    4.5756    2.7539 O.2       2 RES2    0.0000
     28 O5         3.8865    6.5269    7.6033 O.2       2 RES2    0.0000
     29 O6         1.9461    3.9184    7.9495 O.2       2 RES2    0.0000
     30 N3         3.1140    5.0024    3.9118 N.pl3     2 RES2    0.0000
     31 N4         3.7095    6.0200    6.4215 N.pl3     2 RES2    0.0000
     32 C22        3.5903    6.3048    4.0276 C.ar      2 RES2    0.0000
     33 C23        3.0507    4.2068    5.0068 C.2       2 RES2    0.0000
     34 C24        3.3282    4.7583    6.2554 C.2       2 RES2    0.0000
     35 C25        3.9076    6.8347    5.2925 C.ar      2 RES2    0.0000
     36 C26        4.3841    8.1288    5.4196 C.ar      2 RES2    0.0000
     37 C27        4.5406    8.8822    4.3045 C.ar      2 RES2    0.0000
     38 C28        4.2321    8.3884    3.0408 C.ar      2 RES2    0.0000
     39 C29        3.7607    7.1159    2.9024 C.ar      2 RES2    0.0000
     40 C30        2.7437    2.7793    4.8256 C.ar      2 RES2    0.0000
     41 C31        3.6774    1.9574    4.2881 C.ar      2 RES2    0.0000
     42 C32        3.4237    0.6380    4.1233 C.ar      2 RES2    0.0000
     43 C33        2.2552    0.0901    4.4631 C.ar      2 RES2    0.0000
     44 C34        1.3126    0.8940    4.9716 C.ar      2 RES2    0.0000
     45 C35        1.5242    2.2242    5.1729 C.ar      2 RES2    0.0000
     46 C36        3.0876    4.0013    7.5480 C.2       2 RES2    0.0000
     47 C37        4.2370    3.4174    8.2679 C.ar      2 RES2    0.0000
     48 C38        5.4407    3.1722    7.6247 C.ar      2 RES2    0.0000
     49 C39        6.4717    2.5955    8.3258 C.ar      2 RES2    0.0000
     50 C40        6.3186    2.2927    9.6499 C.ar      2 RES2    0.0000
     51 C41        5.1468    2.5450   10.3031 C.ar      2 RES2    0.0000
     52 C42        4.0921    3.0857    9.6083 C.ar      2 RES2    0.0000
     53 H1         0.8017    9.2643    3.4612 H         1 RES1    0.0000
     54 H2         1.0922    9.3725    5.8274 H         1 RES1    0.0000
     55 H3         0.5804    7.5701    7.0861 H         1 RES1    0.0000
     56 H4        -0.2210    5.5153    6.2176 H         1 RES1    0.0000
     57 H5         0.4930    2.5955    2.3285 H         1 RES1    0.0000
     58 H6         0.0419    0.3965    1.5985 H         1 RES1    0.0000
     59 H7        -1.9428    0.1802    0.5412 H         1 RES1    0.0000
     60 H8        -3.2660    2.0187    0.3776 H         1 RES1    0.0000
     61 H9        -2.8468    3.9653    1.1579 H         1 RES1    0.0000
     62 H10        1.8506    5.2991    0.6041 H         1 RES1    0.0000
     63 H11        3.4764    5.2270   -0.9440 H         1 RES1    0.0000
     64 H12        3.3094    5.6595   -3.0836 H         1 RES1    0.0000
     65 H13        1.2248    6.2724   -3.9269 H         1 RES1    0.0000
     66 H14       -0.5044    6.2003   -2.4291 H         1 RES1    0.0000
     67 H15        4.5303    8.4713    6.3057 H         2 RES2    0.0000
     68 H16        4.8482    9.8411    4.4304 H         2 RES2    0.0000
     69 H17        4.4550    8.9039    2.2529 H         2 RES2    0.0000
     70 H18        3.6159    6.7410    2.1145 H         2 RES2    0.0000
     71 H19        4.4115    2.3071    4.0276 H         2 RES2    0.0000
     72 H20        4.0501    0.0721    3.6248 H         2 RES2    0.0000
     73 H21        1.9854   -0.7931    4.4178 H         2 RES2    0.0000
     74 H22        0.4730    0.6489    5.2736 H         2 RES2    0.0000
     75 H23        0.9823    2.7757    5.4876 H         2 RES2    0.0000
     76 H24        5.5460    3.3525    6.7085 H         2 RES2    0.0000
     77 H25        7.2239    2.1629    7.8790 H         2 RES2    0.0000
     78 H26        6.9737    1.8384   10.1193 H         2 RES2    0.0000
     79 H27        5.0119    2.3071   11.2899 H         2 RES2    0.0000
     80 H28        3.3174    3.2083   10.0061 H         2 RES2    0.0000
@<TRIPOS>BOND
     1    1    3 2
     2    2    4 2
     3    5   20 2
     4    6    1 1
     5    7    1 1
     6    8    2 1
     7    9    2 1
     8   10    9 ar
     9   11   10 ar
    10   12   11 ar
    11   13    6 ar
    12   14    7 1
    13   15   14 ar
    14   16   15 ar
    15   17   16 ar
    16   18   17 ar
    17   19   14 ar
    18   20    8 1
    19   21   20 1
    20   22   21 ar
    21   23   22 ar
    22   24   23 ar
    23   25   24 ar
    24   26   21 ar
    25   27   30 2
    26   28   31 2
    27   29   46 2
    28   30   32 1
    29   31   34 1
    30   32   35 ar
    31   33   30 1
    32   34   33 2
    33   35   31 1
    34   36   35 ar
    35   37   36 ar
    36   38   37 ar
    37   39   32 ar
    38   40   33 1
    39   41   40 ar
    40   42   41 ar
    41   43   42 ar
    42   44   43 ar
    43   45   40 ar
    44   46   34 1
    45   47   46 1
    46   48   47 ar
    47   49   48 ar
    48   50   49 ar
    49   51   50 ar
    50   52   47 ar
    51   53   10 1
    52   54   11 1
    53   55   12 1
    54   56   13 1
    55   57   15 1
    56   58   16 1
    57   59   17 1
    58   60   18 1
    59   61   19 1
    60   62   22 1
    61   63   23 1
    62   64   24 1
    63   65   25 1
    64   66   26 1
    65   67   36 1
    66   68   37 1
    67   69   38 1
    68   70   39 1
    69   71   41 1
    70   72   42 1
    71   73   43 1
    72   74   44 1
    73   75   45 1
    74   76   48 1
    75   77   49 1
    76   78   50 1
    77   79   51 1
    78   80   52 1
    79    6    9 ar
    80    7    8 2
    81   12   13 ar
    82   18   19 ar
    83   25   26 ar
    84   38   39 ar
    85   44   45 ar
    86   51   52 ar
@<TRIPOS>SUBSTRUCTURE
     1 RES1 1
     2 RES2 27

@<TRIPOS>CRYSIN
   7.5200   36.0480   12.8010  90.0000 100.5100  90.0000  14 1

