# MOL2 file generated by ConQuest
# Please check atom types

@<TRIPOS>MOLECULE
JIKNUP
    38    39     1
SMALL
NO_CHARGES
****
Generated from CSD

@<TRIPOS>ATOM
      1 N1         4.1906   -0.8999    0.3302 N.3       1 RES1    0.0000
      2 H1         5.0152   -1.1769    0.2340 H         1 RES1    0.0000
      3 N2         2.4238    0.2386    1.2018 N.ar      1 RES1    0.0000
      4 C1         3.7625    0.0907    1.1371 C.ar      1 RES1    0.0000
      5 C2         4.6385    0.9605    1.8492 C.ar      1 RES1    0.0000
      6 C3         4.1474    1.9011    2.7613 C.ar      1 RES1    0.0000
      7 C4         2.7432    1.9790    2.8100 C.ar      1 RES1    0.0000
      8 C5         1.9398    1.1584    2.0228 C.ar      1 RES1    0.0000
      9 H2         0.9978    1.2634    2.0763 H         1 RES1    0.0000
     10 N3         6.0671    0.8746    1.5823 N.pl3     1 RES1    0.0000
     11 O1         6.5168   -0.2241    1.2319 O.2       1 RES1    0.0000
     12 O2         6.7510    1.8831    1.6753 O.2       1 RES1    0.0000
     13 N4         2.0394    2.9392    3.6471 N.pl3     1 RES1    0.0000
     14 O3         2.6199    3.9823    3.9620 O.2       1 RES1    0.0000
     15 O4         0.8795    2.6787    3.9721 O.2       1 RES1    0.0000
     16 C6         5.0520    2.6691    3.6899 C.3       1 RES1    0.0000
     17 H3         5.8828    2.1676    3.8254 H         1 RES1    0.0000
     18 H4         4.6024    2.7970    4.5512 H         1 RES1    0.0000
     19 H5         5.2583    3.5425    3.2959 H         1 RES1    0.0000
     20 N1F        3.2409   -1.6586   -0.3302 N.pl3     1 RES1    0.0000
     21 H1F        2.4163   -1.3816   -0.2340 H         1 RES1    0.0000
     22 N2F        5.0077   -2.7971   -1.2018 N.ar      1 RES1    0.0000
     23 C1F        3.6690   -2.6492   -1.1371 C.ar      1 RES1    0.0000
     24 C2F        2.7930   -3.5190   -1.8492 C.ar      1 RES1    0.0000
     25 C3F        3.2841   -4.4596   -2.7613 C.ar      1 RES1    0.0000
     26 C4F        4.6883   -4.5375   -2.8100 C.ar      1 RES1    0.0000
     27 C5F        5.4917   -3.7169   -2.0228 C.ar      1 RES1    0.0000
     28 H2F        6.4337   -3.8219   -2.0763 H         1 RES1    0.0000
     29 N3F        1.3644   -3.4331   -1.5823 N.pl3     1 RES1    0.0000
     30 O1F        0.9147   -2.3344   -1.2319 O.2       1 RES1    0.0000
     31 O2F        0.6805   -4.4416   -1.6753 O.2       1 RES1    0.0000
     32 N4F        5.3921   -5.4977   -3.6471 N.pl3     1 RES1    0.0000
     33 O3F        4.8116   -6.5408   -3.9620 O.2       1 RES1    0.0000
     34 O4F        6.5520   -5.2372   -3.9721 O.2       1 RES1    0.0000
     35 C6F        2.3795   -5.2276   -3.6899 C.3       1 RES1    0.0000
     36 H3F        1.5487   -4.7261   -3.8254 H         1 RES1    0.0000
     37 H4F        2.8291   -5.3555   -4.5512 H         1 RES1    0.0000
     38 H5F        2.1732   -6.1010   -3.2959 H         1 RES1    0.0000
@<TRIPOS>BOND
     1    1    2 1
     2    3    4 ar
     3    4    1 1
     4    5    4 ar
     5    6    5 ar
     6    7    6 ar
     7    8    3 ar
     8    9    8 1
     9   10    5 1
    10   11   10 2
    11   12   10 2
    12   13    7 1
    13   14   13 2
    14   15   13 2
    15   16    6 1
    16   17   16 1
    17   18   16 1
    18   19   16 1
    19   20    1 1
    20   21   20 1
    21   22   23 ar
    22   23   20 1
    23   24   23 ar
    24   25   24 ar
    25   26   25 ar
    26   27   22 ar
    27   28   27 1
    28   29   24 1
    29   30   29 2
    30   31   29 2
    31   32   26 1
    32   33   32 2
    33   34   32 2
    34   35   25 1
    35   36   35 1
    36   37   35 1
    37   38   35 1
    38    7    8 ar
    39   26   27 ar
@<TRIPOS>SUBSTRUCTURE
     1 RES1 1

@<TRIPOS>CRYSIN
  14.8630    5.1170   20.2300  90.0000 101.4000  90.0000  15 1

