# MOL2 file generated by ConQuest
# Please check atom types

@<TRIPOS>MOLECULE
JILKEU
    42    46     2
SMALL
NO_CHARGES
****
Generated from CSD

@<TRIPOS>ATOM
      1 C1         2.2009    1.0519    4.5774 C.3       1 RES1    0.0000
      2 C2         2.1513    2.5326    4.6852 C.3       1 RES1    0.0000
      3 C3         0.9456    2.9748    5.4889 C.3       1 RES1    0.0000
      4 C4         1.1048    2.5326    6.9200 C.2       1 RES1    0.0000
      5 C5         1.2095    1.2127    6.9949 C.2       1 RES1    0.0000
      6 C6         0.9361    0.7437    5.5731 C.3       1 RES1    0.0000
      7 C7         0.0040    1.8961    5.0338 C.3       1 RES1    0.0000
      8 C8         3.3688    1.7889    5.2271 C.3       1 RES1    0.0000
      9 C9         3.8497    1.8626    6.5740 C.1       1 RES1    0.0000
     10 N1         4.5351    1.8760    4.2788 N.pl3     1 RES1    0.0000
     11 N2         4.3234    1.8760    7.6079 N.1       1 RES1    0.0000
     12 O1         5.6459    1.9028    4.7155 O.2       1 RES1    0.0000
     13 O2         4.2804    1.8224    3.0739 O.2       1 RES1    0.0000
     14 C10        1.7109    1.0720   -2.0966 C.3       2 RES2    0.0000
     15 C11        1.7625    2.5393   -1.9717 C.3       2 RES2    0.0000
     16 C12        3.1480    2.9614   -1.3495 C.3       2 RES2    0.0000
     17 C13        3.2845    2.4187   -0.0263 C.2       2 RES2    0.0000
     18 C14        3.3200    1.0921   -0.1039 C.2       2 RES2    0.0000
     19 C15        3.1904    0.7370   -1.6113 C.3       2 RES2    0.0000
     20 C16        3.9589    1.9363   -2.2098 C.3       2 RES2    0.0000
     21 C17        0.7312    1.8358   -1.1917 C.3       2 RES2    0.0000
     22 C18        0.6206    1.8626    0.2447 C.1       2 RES2    0.0000
     23 N3        -0.6542    1.8559   -1.7507 N.pl3     2 RES2    0.0000
     24 N4         0.4262    1.8559    1.4048 N.1       2 RES2    0.0000
     25 O3        -1.5869    1.8693   -0.9655 O.2       2 RES2    0.0000
     26 O4        -0.7385    1.8760   -2.9871 O.2       2 RES2    0.0000
     27 H1         2.2188    0.3270    3.9631 H         1 RES1    0.0000
     28 H2         2.1316    3.3172    4.1512 H         1 RES1    0.0000
     29 H3         0.7443    3.8987    5.4086 H         1 RES1    0.0000
     30 H4         0.6664   -0.1662    5.5770 H         1 RES1    0.0000
     31 H5         1.1274    3.1195    7.6671 H         1 RES1    0.0000
     32 H6         1.4080    0.6780    7.7539 H         1 RES1    0.0000
     33 H7        -0.1202    1.8539    4.0933 H         1 RES1    0.0000
     34 H8        -0.8438    1.9041    5.4652 H         1 RES1    0.0000
     35 H9         1.5279    0.3357   -2.6675 H         2 RES2    0.0000
     36 H10        1.6595    3.3219   -2.5004 H         2 RES2    0.0000
     37 H11        3.3335    3.8693   -1.3272 H         2 RES2    0.0000
     38 H12        3.4542   -0.1742   -1.8138 H         2 RES2    0.0000
     39 H13        3.3430    2.9406    0.7655 H         2 RES2    0.0000
     40 H14        3.4049    0.4858    0.6274 H         2 RES2    0.0000
     41 H15        4.8895    1.9095   -2.0138 H         2 RES2    0.0000
     42 H16        3.8323    2.0194   -3.1436 H         2 RES2    0.0000
@<TRIPOS>BOND
     1    1    2 1
     2    2    3 1
     3    3    4 1
     4    4    5 2
     5    5    6 1
     6    6    1 1
     7    7    3 1
     8    8    1 1
     9    9    8 1
    10   10    8 1
    11   11    9 3
    12   12   10 2
    13   13   10 2
    14   14   15 1
    15   15   16 1
    16   16   17 1
    17   17   18 2
    18   18   19 1
    19   19   14 1
    20   20   16 1
    21   21   14 1
    22   22   21 1
    23   23   21 1
    24   24   22 3
    25   25   23 2
    26   26   23 2
    27   27    1 1
    28   28    2 1
    29   29    3 1
    30   30    6 1
    31   31    4 1
    32   32    5 1
    33   33    7 1
    34   34    7 1
    35   35   14 1
    36   36   15 1
    37   37   16 1
    38   38   19 1
    39   39   17 1
    40   40   18 1
    41   41   20 1
    42   42   20 1
    43    2    8 1
    44    6    7 1
    45   15   21 1
    46   19   20 1
@<TRIPOS>SUBSTRUCTURE
     1 RES1 1
     2 RES2 14

@<TRIPOS>CRYSIN
   9.5190    6.7000   13.2060  90.0000  95.1200  90.0000   4 1

