# MOL2 file generated by ConQuest
# Please check atom types

@<TRIPOS>MOLECULE
JILREE
    53    56     1
SMALL
NO_CHARGES
****
Generated from CSD

@<TRIPOS>ATOM
      1 O1         2.1981   10.0674    9.9992 O.3       1 RES1    0.0000
      2 O2         3.2044    4.8589   10.6256 O.3       1 RES1    0.0000
      3 O3         3.3146   11.4763    8.6344 O.2       1 RES1    0.0000
      4 O4         6.0973   10.7127   10.5625 O.2       1 RES1    0.0000
      5 N1         4.8209    7.2453    8.5243 N.pl3     1 RES1    0.0000
      6 H1         4.9470    6.8462    7.7728 H         1 RES1    0.0000
      7 O5         3.6855    4.7134    8.4624 O.2       1 RES1    0.0000
      8 O6         1.1091    5.6269    4.9859 O.2       1 RES1    0.0000
      9 C1         4.8379    8.7867   10.1063 C.2       1 RES1    0.0000
     10 N2         1.7120    6.6420    4.7019 N.pl3     1 RES1    0.0000
     11 C2         4.1084    7.6671   10.5988 C.2       1 RES1    0.0000
     12 C3         3.9607   10.7383   11.5290 C.ar      1 RES1    0.0000
     13 C4         2.6266   10.7525   11.1485 C.ar      1 RES1    0.0000
     14 C5         4.1268    6.7210    9.5933 C.2       1 RES1    0.0000
     15 O7         2.1941    6.8669    3.6114 O.2       1 RES1    0.0000
     16 C6         2.3135    9.5102    7.7260 C.ar      1 RES1    0.0000
     17 C7         5.2665    8.4647    8.8299 C.2       1 RES1    0.0000
     18 H2         5.7806    9.0083    8.2767 H         1 RES1    0.0000
     19 C8         3.5146    7.5262   11.9492 C.ar      1 RES1    0.0000
     20 C9         4.2924   11.4254   12.6963 C.ar      1 RES1    0.0000
     21 H3         5.1816   11.4667   12.9642 H         1 RES1    0.0000
     22 C10        2.6683   10.4829    8.7934 C.2       1 RES1    0.0000
     23 C11        5.0527   10.1008   10.7258 C.2       1 RES1    0.0000
     24 C12        1.8809    7.6798    5.7462 C.ar      1 RES1    0.0000
     25 C13        3.6559    5.3499    9.4850 C.2       1 RES1    0.0000
     26 C14        1.4905    8.4207    7.9613 C.ar      1 RES1    0.0000
     27 H4         1.0880    8.3114    8.7921 H         1 RES1    0.0000
     28 C15        2.6654    8.7638    5.4720 C.ar      1 RES1    0.0000
     29 H5         3.0437    8.8772    4.6302 H         1 RES1    0.0000
     30 C16        1.6579   11.3767   11.8934 C.ar      1 RES1    0.0000
     31 H6         0.7711   11.3673   11.6141 H         1 RES1    0.0000
     32 C17        1.2696    7.4989    6.9613 C.ar      1 RES1    0.0000
     33 H7         0.7155    6.7667    7.1070 H         1 RES1    0.0000
     34 C18        2.8829    9.6889    6.4736 C.ar      1 RES1    0.0000
     35 H8         3.4134   10.4346    6.3081 H         1 RES1    0.0000
     36 C19        3.3239   12.0450   13.4613 C.ar      1 RES1    0.0000
     37 H9         3.5612   12.4817   14.2470 H         1 RES1    0.0000
     38 C20        2.0150   12.0164   13.0634 C.ar      1 RES1    0.0000
     39 H10        1.3639   12.4301   13.5827 H         1 RES1    0.0000
     40 C21        2.1607    7.2841   12.1219 C.ar      1 RES1    0.0000
     41 H11        1.6027    7.2326   11.3793 H         1 RES1    0.0000
     42 C22        2.7742    3.4814   10.6209 C.3       1 RES1    0.0000
     43 H12        2.3568    3.2793    9.7800 H         1 RES1    0.0000
     44 H13        2.1450    3.3400   11.3320 H         1 RES1    0.0000
     45 H14        3.5339    2.9074   10.7464 H         1 RES1    0.0000
     46 C23        4.3183    7.6134   13.0678 C.ar      1 RES1    0.0000
     47 H15        5.2265    7.7901   12.9742 H         1 RES1    0.0000
     48 C24        1.6322    7.1175   13.3908 C.ar      1 RES1    0.0000
     49 H16        0.7220    6.9604   13.4982 H         1 RES1    0.0000
     50 C25        2.4402    7.1844   14.4803 C.ar      1 RES1    0.0000
     51 H17        2.0837    7.0562   15.3294 H         1 RES1    0.0000
     52 C26        3.7703    7.4391   14.3343 C.ar      1 RES1    0.0000
     53 H18        4.3156    7.4962   15.0845 H         1 RES1    0.0000
@<TRIPOS>BOND
     1    1   13 1
     2    2   25 1
     3    3   22 2
     4    4   23 2
     5    5    6 1
     6    7   25 2
     7    8   10 2
     8    9   11 1
     9   10   15 2
    10   11   14 2
    11   12   13 ar
    12   13   30 ar
    13   14    5 1
    14   16   22 1
    15   17    5 1
    16   18   17 1
    17   19   11 1
    18   20   12 ar
    19   21   20 1
    20   22    1 1
    21   23    9 1
    22   24   10 1
    23   25   14 1
    24   26   16 ar
    25   27   26 1
    26   28   24 ar
    27   29   28 1
    28   30   31 1
    29   32   24 ar
    30   33   32 1
    31   34   16 ar
    32   35   34 1
    33   36   20 ar
    34   37   36 1
    35   38   30 ar
    36   39   38 1
    37   40   19 ar
    38   41   40 1
    39   42    2 1
    40   43   42 1
    41   44   42 1
    42   45   42 1
    43   46   19 ar
    44   47   46 1
    45   48   40 ar
    46   49   48 1
    47   50   48 ar
    48   51   50 1
    49   52   46 ar
    50   53   52 1
    51    9   17 2
    52   12   23 1
    53   26   32 ar
    54   28   34 ar
    55   36   38 ar
    56   50   52 ar
@<TRIPOS>SUBSTRUCTURE
     1 RES1 1

@<TRIPOS>CRYSIN
   7.4307   10.8091   14.3220  88.5060  89.8460  83.0220   2 1

