# MOL2 file generated by ConQuest
# Please check atom types

@<TRIPOS>MOLECULE
JIMCAJ
    42    45     1
SMALL
USER_CHARGES
****
Generated from CSD

@<TRIPOS>ATOM
      1 O1         6.7047    0.5890   22.8212 O.2       1 RES1   -1.0000
      2 N1         6.5962    1.6058   22.1345 N.pl3     1 RES1    1.0000
      3 N2         7.6577    2.2116   21.3311 N.3       1 RES1    0.0000
      4 C1         6.6660    3.3370   21.0259 C.3       1 RES1    0.0000
      5 C2         5.6817    2.4916   21.8103 C.2       1 RES1    0.0000
      6 C3         8.8198    2.6091   22.1465 C.3       1 RES1    0.0000
      7 C4         9.7380    3.4714   21.2739 C.ar      1 RES1    0.0000
      8 C5        10.3220    4.5912   21.7412 C.ar      1 RES1    0.0000
      9 C6        11.1432    5.3750   20.9139 C.ar      1 RES1    0.0000
     10 C7        11.3925    4.9607   19.6193 C.ar      1 RES1    0.0000
     11 C8        10.8296    3.8129   19.1472 C.ar      1 RES1    0.0000
     12 C9        10.0128    3.0235   19.9554 C.ar      1 RES1    0.0000
     13 C10        6.4088    3.5537   19.5477 C.ar      1 RES1    0.0000
     14 C11        6.8672    4.6696   18.9183 C.ar      1 RES1    0.0000
     15 C12        6.6381    4.8543   17.5546 C.ar      1 RES1    0.0000
     16 C13        5.9623    3.9193   16.8369 C.ar      1 RES1    0.0000
     17 C14        5.4993    2.7659   17.4521 C.ar      1 RES1    0.0000
     18 C15        5.7142    2.5811   18.8229 C.ar      1 RES1    0.0000
     19 C16        4.2409    2.5251   22.0106 C.ar      1 RES1    0.0000
     20 C17        3.5442    3.6058   21.5290 C.ar      1 RES1    0.0000
     21 C18        2.1513    3.6897   21.6768 C.ar      1 RES1    0.0000
     22 C19        1.4933    2.6259   22.2990 C.ar      1 RES1    0.0000
     23 C20        2.1809    1.5341   22.7854 C.ar      1 RES1    0.0000
     24 C21        3.5674    1.4725   22.6304 C.ar      1 RES1    0.0000
     25 H1         6.8774    4.1993   21.5051 H         1 RES1    0.0000
     26 H2         9.3276    1.7357   22.4588 H         1 RES1    0.0000
     27 H3         8.5889    3.4154   22.9118 H         1 RES1    0.0000
     28 H4        10.1843    4.8711   22.6257 H         1 RES1    0.0000
     29 H5        11.5289    6.3829   21.3621 H         1 RES1    0.0000
     30 H6        11.9115    5.5990   19.0733 H         1 RES1    0.0000
     31 H7        11.0147    3.7513   18.2388 H         1 RES1    0.0000
     32 H8         9.5995    2.0716   19.5978 H         1 RES1    0.0000
     33 H9         7.3591    5.5430   19.4309 H         1 RES1    0.0000
     34 H10        7.0280    5.7110   17.1183 H         1 RES1    0.0000
     35 H11        5.7944    4.1433   15.9023 H         1 RES1    0.0000
     36 H12        4.8870    1.9037   17.0467 H         1 RES1    0.0000
     37 H13        5.3954    1.6237   19.2879 H         1 RES1    0.0000
     38 H14        4.0426    4.4792   21.0998 H         1 RES1    0.0000
     39 H15        1.6099    4.4232   21.2667 H         1 RES1    0.0000
     40 H16        0.5665    2.4636   22.4349 H         1 RES1    0.0000
     41 H17        1.6235    0.8399   23.2456 H         1 RES1    0.0000
     42 H18        4.0637    0.6719   23.0071 H         1 RES1    0.0000
@<TRIPOS>BOND
     1    1    2 1
     2    2    3 1
     3    3    4 1
     4    4    5 1
     5    5    2 2
     6    6    3 1
     7    7    6 1
     8    8    7 ar
     9    9    8 ar
    10   10    9 ar
    11   11   10 ar
    12   12    7 ar
    13   13    4 1
    14   14   13 ar
    15   15   14 ar
    16   16   15 ar
    17   17   16 ar
    18   18   13 ar
    19   19    5 1
    20   20   19 ar
    21   21   20 ar
    22   22   21 ar
    23   23   22 ar
    24   24   19 ar
    25   25    4 1
    26   26    6 1
    27   27    6 1
    28   28    8 1
    29   29    9 1
    30   30   10 1
    31   31   11 1
    32   32   12 1
    33   33   14 1
    34   34   15 1
    35   35   16 1
    36   36   17 1
    37   37   18 1
    38   38   20 1
    39   39   21 1
    40   40   22 1
    41   41   23 1
    42   42   24 1
    43   11   12 ar
    44   17   18 ar
    45   23   24 ar
@<TRIPOS>SUBSTRUCTURE
     1 RES1 1

@<TRIPOS>CRYSIN
  12.1380    5.5990   23.9690  90.0000  95.9100  90.0000  14 1

