# MOL2 file generated by ConQuest
# Please check atom types

@<TRIPOS>MOLECULE
JIMCEQ
    70    73     1
SMALL
NO_CHARGES
****
Generated from CSD

@<TRIPOS>ATOM
      1 O1         0.2171    9.1987    3.8123 O.2       1 RES1    0.0000
      2 N1         0.5329   10.1031    2.9783 N.3       1 RES1    0.0000
      3 C1         1.5275   11.0189    3.0574 C.2       1 RES1    0.0000
      4 O2         5.2840   11.7192    6.9763 O.2       1 RES1    0.0000
      5 N2         1.5412   11.7947    1.8985 N.2       1 RES1    0.0000
      6 C2         0.5845   11.4083    1.1137 C.2       1 RES1    0.0000
      7 C3        -0.2151   10.2601    1.6848 C.3       1 RES1    0.0000
      8 C4        -1.6626   10.5840    2.0099 C.3       1 RES1    0.0000
      9 H1        -2.0162    9.9132    2.5992 H         1 RES1    0.0000
     10 H2        -2.1771   10.5997    1.1995 H         1 RES1    0.0000
     11 H3        -1.7100   11.4424    2.4358 H         1 RES1    0.0000
     12 C5        -0.0933    8.9487    0.9128 C.3       1 RES1    0.0000
     13 H4         0.8224    8.8111    0.6582 H         1 RES1    0.0000
     14 H5        -0.6417    8.9874    0.1265 H         1 RES1    0.0000
     15 H6        -0.3836    8.2221    1.4702 H         1 RES1    0.0000
     16 C6         2.4317   11.2186    4.1192 C.2       1 RES1    0.0000
     17 C7         2.3314   10.5367    5.3603 C.2       1 RES1    0.0000
     18 H7         1.6280    9.9405    5.4883 H         1 RES1    0.0000
     19 C8         3.2231   10.7221    6.3663 C.2       1 RES1    0.0000
     20 C9         4.3642   11.6313    6.1401 C.2       1 RES1    0.0000
     21 C10        4.3944   12.4356    4.9013 C.2       1 RES1    0.0000
     22 C11        3.4578   12.1897    3.9504 C.2       1 RES1    0.0000
     23 H8         3.4875   12.6750    3.1581 H         1 RES1    0.0000
     24 C12        0.3776   12.0706   -0.1758 C.ar      1 RES1    0.0000
     25 C13        1.2026   13.1336   -0.5229 C.ar      1 RES1    0.0000
     26 H9         1.8599   13.4159    0.0705 H         1 RES1    0.0000
     27 C14        1.0599   13.7756   -1.7331 C.ar      1 RES1    0.0000
     28 H10        1.6324   14.4793   -1.9410 H         1 RES1    0.0000
     29 C15        0.0830   13.4016   -2.6584 C.ar      1 RES1    0.0000
     30 C16       -0.7433   12.3611   -2.2948 C.ar      1 RES1    0.0000
     31 H11       -1.4147   12.0931   -2.8811 H         1 RES1    0.0000
     32 C17       -0.6073   11.6961   -1.0788 C.ar      1 RES1    0.0000
     33 H12       -1.1825   10.9953   -0.8696 H         1 RES1    0.0000
     34 C18       -0.0489   14.1110   -3.9608 C.ar      1 RES1    0.0000
     35 C19        0.8896   15.0469   -4.3608 C.ar      1 RES1    0.0000
     36 H13        1.6220   15.2203   -3.8131 H         1 RES1    0.0000
     37 C20        0.7627   15.7333   -5.5603 C.ar      1 RES1    0.0000
     38 H14        1.3917   16.3768   -5.7941 H         1 RES1    0.0000
     39 C21       -0.2849   15.4696   -6.4003 C.ar      1 RES1    0.0000
     40 H15       -0.3662   15.9240   -7.2082 H         1 RES1    0.0000
     41 C22       -1.1952   14.5438   -6.0440 C.ar      1 RES1    0.0000
     42 H16       -1.9023   14.3532   -6.6173 H         1 RES1    0.0000
     43 C23       -1.0942   13.8659   -4.8300 C.ar      1 RES1    0.0000
     44 H17       -1.7406   13.2368   -4.6026 H         1 RES1    0.0000
     45 C24        3.0834   10.0179    7.7186 C.3       1 RES1    0.0000
     46 C25        5.4617   13.5205    4.7432 C.3       1 RES1    0.0000
     47 C26        4.2350    9.0304    7.9113 C.3       1 RES1    0.0000
     48 H18        4.1541    8.6091    8.7697 H         1 RES1    0.0000
     49 H19        5.0710    9.4991    7.8616 H         1 RES1    0.0000
     50 H20        4.2014    8.3625    7.2227 H         1 RES1    0.0000
     51 C27        3.0848   11.0512    8.8555 C.3       1 RES1    0.0000
     52 H21        2.9360   10.6055    9.6937 H         1 RES1    0.0000
     53 H22        2.3854   11.6918    8.7056 H         1 RES1    0.0000
     54 H23        3.9325   11.5026    8.8770 H         1 RES1    0.0000
     55 C28        1.7665    9.2396    7.7864 C.3       1 RES1    0.0000
     56 H24        1.7571    8.5646    7.1041 H         1 RES1    0.0000
     57 H25        1.0311    9.8416    7.6502 H         1 RES1    0.0000
     58 H26        1.6844    8.8240    8.6480 H         1 RES1    0.0000
     59 C29        5.3591   14.5209    5.8998 C.3       1 RES1    0.0000
     60 H27        5.5378   14.0709    6.7294 H         1 RES1    0.0000
     61 H28        4.4745   14.8935    5.9239 H         1 RES1    0.0000
     62 H29        5.9985   15.2246    5.7733 H         1 RES1    0.0000
     63 C30        5.2678   14.3030    3.4432 C.3       1 RES1    0.0000
     64 H30        5.9484   14.9752    3.3695 H         1 RES1    0.0000
     65 H31        4.4038   14.7215    3.4480 H         1 RES1    0.0000
     66 H32        5.3285   13.7025    2.6969 H         1 RES1    0.0000
     67 C31        6.8592   12.9057    4.6923 C.3       1 RES1    0.0000
     68 H33        7.5108   13.6036    4.5930 H         1 RES1    0.0000
     69 H34        6.9164   12.3052    3.9460 H         1 RES1    0.0000
     70 H35        7.0267   12.4242    5.5043 H         1 RES1    0.0000
@<TRIPOS>BOND
     1    1    2 1
     2    2    3 1
     3    3    5 1
     4    4   20 2
     5    5    6 2
     6    6    7 1
     7    7    2 1
     8    8    7 1
     9    9    8 1
    10   10    8 1
    11   11    8 1
    12   12    7 1
    13   13   12 1
    14   14   12 1
    15   15   12 1
    16   16    3 2
    17   17   16 1
    18   18   17 1
    19   19   17 2
    20   20   19 1
    21   21   20 1
    22   22   16 1
    23   23   22 1
    24   24    6 1
    25   25   24 ar
    26   26   25 1
    27   27   25 ar
    28   28   27 1
    29   29   27 ar
    30   30   29 ar
    31   31   30 1
    32   32   24 ar
    33   33   32 1
    34   34   29 1
    35   35   34 ar
    36   36   35 1
    37   37   35 ar
    38   38   37 1
    39   39   37 ar
    40   40   39 1
    41   41   39 ar
    42   42   41 1
    43   43   34 ar
    44   44   43 1
    45   45   19 1
    46   46   21 1
    47   47   45 1
    48   48   47 1
    49   49   47 1
    50   50   47 1
    51   51   45 1
    52   52   51 1
    53   53   51 1
    54   54   51 1
    55   55   45 1
    56   56   55 1
    57   57   55 1
    58   58   55 1
    59   59   46 1
    60   60   59 1
    61   61   59 1
    62   62   59 1
    63   63   46 1
    64   64   63 1
    65   65   63 1
    66   66   63 1
    67   67   46 1
    68   68   67 1
    69   69   67 1
    70   70   67 1
    71   21   22 2
    72   30   32 ar
    73   41   43 ar
@<TRIPOS>SUBSTRUCTURE
     1 RES1 1

@<TRIPOS>CRYSIN
  11.5429   14.3317   16.9947  90.0000 109.5520  90.0000  14 1

