# MOL2 file generated by ConQuest
# Please check atom types

@<TRIPOS>MOLECULE
JIMHET
   108   118     2
SMALL
NO_CHARGES
****
Generated from CSD

@<TRIPOS>ATOM
      1 O1         8.1249   19.9115   22.1584 O.2       1 RES1    0.0000
      2 O2         7.3952   19.8015   24.2158 O.2       1 RES1    0.0000
      3 O3         5.4921   15.5565   25.7323 O.2       1 RES1    0.0000
      4 O4         4.5489   14.3082   24.2448 O.2       1 RES1    0.0000
      5 O5         6.7938   16.5387   18.8131 O.2       1 RES1    0.0000
      6 O6         5.8621   14.6535   19.6766 O.3       1 RES1    0.0000
      7 O7         8.0820   13.5152   26.1541 O.2       2 RES2    0.0000
      8 O8         7.3995   13.4078   24.0999 O.2       2 RES2    0.0000
      9 O9         5.5121    9.1781   22.5737 O.2       2 RES2    0.0000
     10 O10        4.5600    7.9196   24.0580 O.2       2 RES2    0.0000
     11 O11        6.6643   10.1361   29.4962 O.2       2 RES2    0.0000
     12 O12        5.7615    8.2559   28.6262 O.3       2 RES2    0.0000
     13 N1         7.5120   19.3628   23.0728 N.pl3     1 RES1    0.0000
     14 N2         5.2231   15.2866   24.5668 N.pl3     1 RES1    0.0000
     15 N3         7.4884   12.9729   25.2461 N.pl3     2 RES2    0.0000
     16 N4         5.2243    8.8967   23.7457 N.pl3     2 RES2    0.0000
     17 C1         6.3192   16.3776   21.1603 C.ar      1 RES1    0.0000
     18 C2         6.8869   17.6144   21.4565 C.ar      1 RES1    0.0000
     19 C3         6.8680   18.0697   22.7669 C.ar      1 RES1    0.0000
     20 C4         6.3132   17.3458   23.8198 C.ar      1 RES1    0.0000
     21 C5         5.7664   16.1256   23.4946 C.ar      1 RES1    0.0000
     22 C6         5.7568   15.6255   22.1938 C.ar      1 RES1    0.0000
     23 C7         6.3670   15.8916   19.7371 C.2       1 RES1    0.0000
     24 C8         5.9666   13.9168   18.4170 C.3       1 RES1    0.0000
     25 C9         4.9155   14.2852   17.4221 C.3       1 RES1    0.0000
     26 C10        4.7767   13.0292   18.2754 C.3       1 RES1    0.0000
     27 C11        7.3567   13.4947   18.0596 C.3       1 RES1    0.0000
     28 C12        8.1079   14.3517   17.0518 C.3       1 RES1    0.0000
     29 C13        7.6163   13.0010   16.6268 C.3       1 RES1    0.0000
     30 C14        8.0601   12.8015   19.2059 C.3       1 RES1    0.0000
     31 C15        8.7300   13.7083   20.2008 C.3       1 RES1    0.0000
     32 C16        9.5664   12.8514   19.2767 C.3       1 RES1    0.0000
     33 C17        7.4204   11.4995   19.6631 C.3       1 RES1    0.0000
     34 C18        6.3042   11.5570   20.7095 C.3       1 RES1    0.0000
     35 C19        7.6411   11.0250   21.0894 C.3       1 RES1    0.0000
     36 C20        7.3268   10.4750   18.5812 C.3       1 RES1    0.0000
     37 C21        7.3839    8.9939   18.8002 C.3       1 RES1    0.0000
     38 C22        8.5374    9.6999   18.1594 C.3       1 RES1    0.0000
     39 C23        6.2559    9.9800   27.1458 C.ar      2 RES2    0.0000
     40 C24        6.8288   11.2168   26.8560 C.ar      2 RES2    0.0000
     41 C25        6.8438   11.6734   25.5456 C.ar      2 RES2    0.0000
     42 C26        6.3030   10.9610   24.4895 C.ar      2 RES2    0.0000
     43 C27        5.7620    9.7319   24.8211 C.ar      2 RES2    0.0000
     44 C28        5.7108    9.2357   26.1219 C.ar      2 RES2    0.0000
     45 C29        6.2631    9.5030   28.5593 C.2       2 RES2    0.0000
     46 C30        5.8293    7.5218   29.8955 C.3       2 RES2    0.0000
     47 C31        4.7618    7.8799   30.8807 C.3       2 RES2    0.0000
     48 C32        4.6477    6.6278   30.0307 C.3       2 RES2    0.0000
     49 C33        7.2157    7.1010   30.2432 C.3       2 RES2    0.0000
     50 C34        7.9472    7.9643   31.2542 C.3       2 RES2    0.0000
     51 C35        7.4383    6.6175   31.6728 C.3       2 RES2    0.0000
     52 C36        7.9510    6.3963   29.0970 C.3       2 RES2    0.0000
     53 C37        8.6442    7.3172   28.1085 C.3       2 RES2    0.0000
     54 C38        9.4560    6.4538   29.0358 C.3       2 RES2    0.0000
     55 C39        7.3246    5.1083   28.6269 C.3       2 RES2    0.0000
     56 C40        6.2269    5.1723   27.5933 C.3       2 RES2    0.0000
     57 C41        7.5859    4.6415   27.2134 C.3       2 RES2    0.0000
     58 C42        7.2034    4.0787   29.7248 C.3       2 RES2    0.0000
     59 C43        7.2650    2.5976   29.4962 C.3       2 RES2    0.0000
     60 C44        8.4057    3.3049   30.1370 C.3       2 RES2    0.0000
     61 H1         7.2734   18.1285   20.7835 H         1 RES1    0.0000
     62 H2         6.3114   17.6668   24.6923 H         1 RES1    0.0000
     63 H3         5.3797   14.7942   22.0167 H         1 RES1    0.0000
     64 H4         5.1230   14.1739   16.4819 H         1 RES1    0.0000
     65 H5         4.3406   15.0385   17.6282 H         1 RES1    0.0000
     66 H6         4.1192   13.0356   18.9869 H         1 RES1    0.0000
     67 H7         4.9015   12.1697   17.8407 H         1 RES1    0.0000
     68 H8         7.6517   15.1306   16.6945 H         1 RES1    0.0000
     69 H9         9.0628   14.4642   17.1806 H         1 RES1    0.0000
     70 H10        8.2744   12.2989   16.5045 H         1 RES1    0.0000
     71 H11        6.8622   12.9665   16.0183 H         1 RES1    0.0000
     72 H12        8.6921   13.4564   21.1377 H         1 RES1    0.0000
     73 H13        8.7036   14.6625   20.0333 H         1 RES1    0.0000
     74 H14       10.0388   13.2939   18.5555 H         1 RES1    0.0000
     75 H15       10.0273   12.0878   19.6599 H         1 RES1    0.0000
     76 H16        6.0511   12.4280   21.0508 H         1 RES1    0.0000
     77 H17        5.5741   10.9239   20.6226 H         1 RES1    0.0000
     78 H18        7.7196   10.0696   21.2408 H         1 RES1    0.0000
     79 H19        8.1956   11.5750   21.6658 H         1 RES1    0.0000
     80 H20        6.7479   10.7410   17.8342 H         1 RES1    0.0000
     81 H21        7.4982    8.6767   19.7114 H         1 RES1    0.0000
     82 H22        6.8282    8.4312   18.2399 H         1 RES1    0.0000
     83 H23        8.6783    9.5631   17.2096 H         1 RES1    0.0000
     84 H24        9.3473    9.8087   18.6810 H         1 RES1    0.0000
     85 H25        7.1988   11.7335   27.5354 H         2 RES2    0.0000
     86 H26        6.3049   11.2859   23.6169 H         2 RES2    0.0000
     87 H27        5.3156    8.4120   26.2990 H         2 RES2    0.0000
     88 H28        4.1804    8.6269   30.6650 H         2 RES2    0.0000
     89 H29        4.9620    7.7712   31.8209 H         2 RES2    0.0000
     90 H30        4.7767    5.7708   30.4686 H         2 RES2    0.0000
     91 H31        3.9960    6.6265   29.3127 H         2 RES2    0.0000
     92 H32        8.9060    8.0705   31.1447 H         2 RES2    0.0000
     93 H33        7.4873    8.7458   31.5955 H         2 RES2    0.0000
     94 H34        6.6706    6.5881   32.2652 H         2 RES2    0.0000
     95 H35        8.0893    5.9115   31.8112 H         2 RES2    0.0000
     96 H36        8.6184    7.0729   27.1683 H         2 RES2    0.0000
     97 H37        8.6205    8.2700   28.2824 H         2 RES2    0.0000
     98 H38        9.9224    6.8887   29.7635 H         2 RES2    0.0000
     99 H39        9.9203    5.6928   28.6526 H         2 RES2    0.0000
    100 H40        5.4988    4.5353   27.6674 H         2 RES2    0.0000
    101 H41        5.9723    6.0458   27.2585 H         2 RES2    0.0000
    102 H42        8.1465    5.1979   26.6500 H         2 RES2    0.0000
    103 H43        7.6721    3.6874   27.0589 H         2 RES2    0.0000
    104 H44        6.6240    4.3473   30.4654 H         2 RES2    0.0000
    105 H45        6.7123    2.0311   30.0565 H         2 RES2    0.0000
    106 H46        7.3800    2.2843   28.5850 H         2 RES2    0.0000
    107 H47        9.2157    3.4188   29.6153 H         2 RES2    0.0000
    108 H48        8.5480    3.1655   31.0868 H         2 RES2    0.0000
@<TRIPOS>BOND
     1    1   13 2
     2    2   13 2
     3    3   14 2
     4    4   14 2
     5    5   23 2
     6    6   23 1
     7    7   15 2
     8    8   15 2
     9    9   16 2
    10   10   16 2
    11   11   45 2
    12   12   45 1
    13   13   19 1
    14   14   21 1
    15   15   41 1
    16   16   43 1
    17   17   18 ar
    18   18   19 ar
    19   19   20 ar
    20   20   21 ar
    21   21   22 ar
    22   22   17 ar
    23   23   17 1
    24   24    6 1
    25   25   24 1
    26   26   24 1
    27   27   24 1
    28   28   27 1
    29   29   27 1
    30   30   27 1
    31   31   30 1
    32   32   30 1
    33   33   30 1
    34   34   33 1
    35   35   33 1
    36   36   33 1
    37   37   36 1
    38   38   36 1
    39   39   40 ar
    40   40   41 ar
    41   41   42 ar
    42   42   43 ar
    43   43   44 ar
    44   44   39 ar
    45   45   39 1
    46   46   12 1
    47   47   46 1
    48   48   46 1
    49   49   46 1
    50   50   49 1
    51   51   49 1
    52   52   49 1
    53   53   52 1
    54   54   52 1
    55   55   52 1
    56   56   55 1
    57   57   55 1
    58   58   55 1
    59   59   58 1
    60   60   58 1
    61   61   18 1
    62   62   20 1
    63   63   22 1
    64   64   25 1
    65   65   25 1
    66   66   26 1
    67   67   26 1
    68   68   28 1
    69   69   28 1
    70   70   29 1
    71   71   29 1
    72   72   31 1
    73   73   31 1
    74   74   32 1
    75   75   32 1
    76   76   34 1
    77   77   34 1
    78   78   35 1
    79   79   35 1
    80   80   36 1
    81   81   37 1
    82   82   37 1
    83   83   38 1
    84   84   38 1
    85   85   40 1
    86   86   42 1
    87   87   44 1
    88   88   47 1
    89   89   47 1
    90   90   48 1
    91   91   48 1
    92   92   50 1
    93   93   50 1
    94   94   51 1
    95   95   51 1
    96   96   53 1
    97   97   53 1
    98   98   54 1
    99   99   54 1
   100  100   56 1
   101  101   56 1
   102  102   57 1
   103  103   57 1
   104  104   58 1
   105  105   59 1
   106  106   59 1
   107  107   60 1
   108  108   60 1
   109   25   26 1
   110   28   29 1
   111   31   32 1
   112   34   35 1
   113   37   38 1
   114   47   48 1
   115   50   51 1
   116   53   54 1
   117   56   57 1
   118   59   60 1
@<TRIPOS>SUBSTRUCTURE
     1 RES1 1
     2 RES2 7

@<TRIPOS>CRYSIN
   9.8000   12.7900   32.2000  90.0000  90.7000  90.0000  14 2

