# MOL2 file generated by ConQuest
# Please check atom types

@<TRIPOS>MOLECULE
JIMHOD
    36    38     1
SMALL
NO_CHARGES
****
Generated from CSD

@<TRIPOS>ATOM
      1 N1        -2.2377    2.7508    2.9205 N.pl3     1 RES1    0.0000
      2 N2        -3.4084    6.4461    5.9408 N.pl3     1 RES1    0.0000
      3 O1         1.2027    7.5610    4.0948 O.2       1 RES1    0.0000
      4 O2         1.6962    5.7547    2.8106 O.3       1 RES1    0.0000
      5 O3        -1.4159    2.2607    2.1675 O.2       1 RES1    0.0000
      6 O4        -3.3372    2.2613    3.1446 O.2       1 RES1    0.0000
      7 O5        -4.4682    5.8901    6.1880 O.2       1 RES1    0.0000
      8 O6        -3.0797    7.5362    6.3845 O.2       1 RES1    0.0000
      9 C1         2.1632    6.2309   -0.0644 C.3       1 RES1    0.0000
     10 H1         2.0305    6.7772   -0.8679 H         1 RES1    0.0000
     11 H2         1.3101    5.8267    0.2005 H         1 RES1    0.0000
     12 H3         2.8146    5.5245   -0.2547 H         1 RES1    0.0000
     13 C2         2.6751    7.1005    1.0561 C.3       1 RES1    0.0000
     14 C3         2.2108    8.5140    1.1571 C.3       1 RES1    0.0000
     15 H4         2.1044    8.9019    2.0613 H         1 RES1    0.0000
     16 H5         1.5575    8.8349    0.4859 H         1 RES1    0.0000
     17 C4         3.6060    8.2040    0.6863 C.3       1 RES1    0.0000
     18 H6         3.8090    8.3345   -0.2736 H         1 RES1    0.0000
     19 H7         4.3559    8.4016    1.3019 H         1 RES1    0.0000
     20 C5         2.9276    6.3452    2.3170 C.3       1 RES1    0.0000
     21 C6         3.9539    6.6515    3.3389 C.3       1 RES1    0.0000
     22 H8         3.7156    6.5089    4.2901 H         1 RES1    0.0000
     23 H9         4.5577    7.4178    3.1698 H         1 RES1    0.0000
     24 C7         4.1022    5.4411    2.4672 C.3       1 RES1    0.0000
     25 H10        4.7951    5.4629    1.7618 H         1 RES1    0.0000
     26 H11        3.9522    4.5540    2.8797 H         1 RES1    0.0000
     27 C8         0.9448    6.4733    3.6432 C.2       1 RES1    0.0000
     28 C9        -0.3335    5.7584    3.9578 C.ar      1 RES1    0.0000
     29 C10       -0.6534    4.5504    3.3583 C.ar      1 RES1    0.0000
     30 H12       -0.0363    4.1117    2.7854 H         1 RES1    0.0000
     31 C11       -1.8990    3.9987    3.6186 C.ar      1 RES1    0.0000
     32 C12       -2.8276    4.5776    4.4571 C.ar      1 RES1    0.0000
     33 H13       -3.6747    4.1793    4.6179 H         1 RES1    0.0000
     34 C13       -2.4571    5.7662    5.0486 C.ar      1 RES1    0.0000
     35 C14       -1.2330    6.3687    4.8177 C.ar      1 RES1    0.0000
     36 H14       -1.0123    7.1894    5.2429 H         1 RES1    0.0000
@<TRIPOS>BOND
     1    1    5 2
     2    2    7 2
     3    3   27 2
     4    4   20 1
     5    6    1 2
     6    8    2 2
     7    9   10 1
     8   11    9 1
     9   12    9 1
    10   13    9 1
    11   14   13 1
    12   15   14 1
    13   16   14 1
    14   17   13 1
    15   18   17 1
    16   19   17 1
    17   20   13 1
    18   21   20 1
    19   22   21 1
    20   23   21 1
    21   24   20 1
    22   25   24 1
    23   26   24 1
    24   27    4 1
    25   28   27 1
    26   29   28 ar
    27   30   29 1
    28   31    1 1
    29   32   31 ar
    30   33   32 1
    31   34    2 1
    32   35   28 ar
    33   36   35 1
    34   14   17 1
    35   21   24 1
    36   29   31 ar
    37   32   34 ar
    38   34   35 ar
@<TRIPOS>SUBSTRUCTURE
     1 RES1 1

@<TRIPOS>CRYSIN
  10.0050    6.0430   23.6120  90.0000  92.7400  90.0000  14 1

