# MOL2 file generated by ConQuest
# Please check atom types

@<TRIPOS>MOLECULE
JIMHUJ
   102   108     3
SMALL
NO_CHARGES
****
Generated from CSD

@<TRIPOS>ATOM
      1 N1         5.3788   25.9833    3.3346 N.pl3     1 RES1    0.0000
      2 N2         7.7519   23.2265    0.0406 N.pl3     1 RES1    0.0000
      3 O1         3.9049   21.1926    4.2704 O.2       1 RES1    0.0000
      4 O2         4.7048   20.0681    2.4680 O.3       1 RES1    0.0000
      5 O3         4.8949   25.9922    4.4767 O.2       1 RES1    0.0000
      6 O4         5.6463   26.9855    2.6974 O.2       1 RES1    0.0000
      7 O5         8.3413   24.2410   -0.3129 O.2       1 RES1    0.0000
      8 O6         7.8871   22.1302   -0.4881 O.2       1 RES1    0.0000
      9 C1         5.8438   15.5881    2.3907 C.3       1 RES1    0.0000
     10 H1         6.1631   15.1328    1.5840 H         1 RES1    0.0000
     11 H2         4.8650   15.6325    2.3738 H         1 RES1    0.0000
     12 H3         6.1346   15.0899    3.1844 H         1 RES1    0.0000
     13 C2         6.4145   16.9922    2.4362 C.3       1 RES1    0.0000
     14 C3         6.5605   17.7200    1.1254 C.3       1 RES1    0.0000
     15 H4         6.2355   17.2666    0.3071 H         1 RES1    0.0000
     16 H5         6.4475   18.7044    1.1288 H         1 RES1    0.0000
     17 C4         7.7768   17.1510    1.8076 C.3       1 RES1    0.0000
     18 H6         8.4086   17.7847    2.2301 H         1 RES1    0.0000
     19 H7         8.1966   16.3499    1.4074 H         1 RES1    0.0000
     20 C5         6.0711   17.7755    3.6875 C.3       1 RES1    0.0000
     21 C6         7.0019   18.8372    4.2006 C.3       1 RES1    0.0000
     22 H8         7.8093   19.0386    3.6649 H         1 RES1    0.0000
     23 H9         6.6029   19.6150    4.6631 H         1 RES1    0.0000
     24 C7         6.9371   17.5069    4.8905 C.3       1 RES1    0.0000
     25 H10        6.4967   17.4689    5.7765 H         1 RES1    0.0000
     26 H11        7.7042   16.8926    4.7783 H         1 RES1    0.0000
     27 C8         4.5951   18.0545    3.8830 C.3       1 RES1    0.0000
     28 C9         4.0213   18.2507    5.2694 C.3       1 RES1    0.0000
     29 H12        4.6445   18.2017    6.0376 H         1 RES1    0.0000
     30 H13        3.2813   18.9007    5.3740 H         1 RES1    0.0000
     31 C10        3.7363   16.9830    4.5191 C.3       1 RES1    0.0000
     32 H14        2.8220   16.8527    4.1629 H         1 RES1    0.0000
     33 H15        4.1841   16.1568    4.8255 H         1 RES1    0.0000
     34 C11        3.9659   18.8645    2.7911 C.3       1 RES1    0.0000
     35 C12        2.4939   18.9840    2.5482 C.3       1 RES1    0.0000
     36 H16        2.1393   19.8725    2.2893 H         1 RES1    0.0000
     37 H17        1.8878   18.4377    3.1088 H         1 RES1    0.0000
     38 C13        3.3788   18.2624    1.5592 C.3       1 RES1    0.0000
     39 H18        3.3115   17.2758    1.5149 H         1 RES1    0.0000
     40 H19        3.5631   18.7075    0.6944 H         1 RES1    0.0000
     41 C14        4.5547   21.1396    3.2539 C.2       1 RES1    0.0000
     42 C15        5.3055   22.3150    2.7096 C.ar      1 RES1    0.0000
     43 C16        5.0587   23.5555    3.2801 C.ar      1 RES1    0.0000
     44 H20        4.4692   23.6373    4.0203 H         1 RES1    0.0000
     45 C17        5.6821   24.6656    2.7549 C.ar      1 RES1    0.0000
     46 C18        6.5737   24.5975    1.6969 C.ar      1 RES1    0.0000
     47 H21        6.9992   25.3726    1.3503 H         1 RES1    0.0000
     48 C19        6.8114   23.3430    1.1722 C.ar      1 RES1    0.0000
     49 C20        6.1912   22.1985    1.6357 C.ar      1 RES1    0.0000
     50 H22        6.3627   21.3533    1.2341 H         1 RES1    0.0000
     51 N3        -1.2368   22.1381    2.6478 N.pl3     2 RES2    0.0000
     52 N4         2.0579   23.1394    6.1395 N.pl3     2 RES2    0.0000
     53 O7        -0.2715   17.6737    5.0334 O.2       2 RES2    0.0000
     54 O8         0.7193   18.4190    6.9356 O.3       2 RES2    0.0000
     55 O9        -1.0971   23.2860    2.2316 O.2       2 RES2    0.0000
     56 O10       -2.0612   21.3438    2.2134 O.2       2 RES2    0.0000
     57 O11        2.2882   22.9264    7.3282 O.2       2 RES2    0.0000
     58 O12        2.4901   24.0966    5.5122 O.2       2 RES2    0.0000
     59 C21       -0.3837   17.5928   11.1479 C.3       2 RES2    0.0000
     60 H23        0.0693   16.8128   10.7655 H         2 RES2    0.0000
     61 H24       -1.2603   17.3248   11.4950 H         2 RES2    0.0000
     62 H25        0.1575   17.9595   11.8778 H         2 RES2    0.0000
     63 C22       -0.5661   18.6471   10.0759 C.3       2 RES2    0.0000
     64 C23       -0.6850   20.0577   10.5861 C.3       2 RES2    0.0000
     65 H26       -0.6194   20.2006   11.5630 H         2 RES2    0.0000
     66 H27       -1.3066   20.6666   10.1150 H         2 RES2    0.0000
     67 C24        0.5575   19.6227    9.8565 C.3       2 RES2    0.0000
     68 H28        0.6973   19.9645    8.9391 H         2 RES2    0.0000
     69 H29        1.3845   19.5016   10.3870 H         2 RES2    0.0000
     70 C25       -1.3985   18.1974    8.8965 C.3       2 RES2    0.0000
     71 C26       -2.8903   18.3390    9.0624 C.3       2 RES2    0.0000
     72 H30       -3.4647   17.6161    8.7043 H         2 RES2    0.0000
     73 H31       -3.2231   18.7627    9.8923 H         2 RES2    0.0000
     74 C27       -2.1609   19.2118    8.0732 C.3       2 RES2    0.0000
     75 H32       -2.0471   20.1699    8.2984 H         2 RES2    0.0000
     76 H33       -2.2875   19.0233    7.1093 H         2 RES2    0.0000
     77 C28       -0.8479   16.9940    8.1513 C.3       2 RES2    0.0000
     78 C29       -1.7644   16.1522    7.2947 C.3       2 RES2    0.0000
     79 H34       -2.7166   16.4174    7.2410 H         2 RES2    0.0000
     80 H35       -1.3917   15.7674    6.4621 H         2 RES2    0.0000
     81 C30       -1.2637   15.6101    8.5990 C.3       2 RES2    0.0000
     82 H36       -0.5828   14.8906    8.5694 H         2 RES2    0.0000
     83 H37       -1.9077   15.5436    9.3471 H         2 RES2    0.0000
     84 C31        0.5515   17.1642    7.6398 C.3       2 RES2    0.0000
     85 C32        1.4400   16.0525    7.1756 C.3       2 RES2    0.0000
     86 H38        1.9970   16.2120    6.3722 H         2 RES2    0.0000
     87 H39        1.1115   15.1236    7.2794 H         2 RES2    0.0000
     88 C33        1.7728   16.8242    8.4247 C.3       2 RES2    0.0000
     89 H40        1.6498   16.3683    9.2945 H         2 RES2    0.0000
     90 H41        2.5353   17.4536    8.3884 H         2 RES2    0.0000
     91 C34        0.2084   18.5521    5.7034 C.2       2 RES2    0.0000
     92 C35        0.3084   19.9761    5.2574 C.ar      2 RES2    0.0000
     93 C36       -0.4462   20.3802    4.1638 C.ar      2 RES2    0.0000
     94 H42       -1.0085   19.7621    3.7099 H         2 RES2    0.0000
     95 C37       -0.3640   21.6948    3.7473 C.ar      2 RES2    0.0000
     96 C38        0.4750   22.6195    4.3401 C.ar      2 RES2    0.0000
     97 H43        0.5535   23.5086    4.0105 H         2 RES2    0.0000
     98 C39        1.1929   22.1838    5.4366 C.ar      2 RES2    0.0000
     99 C40        1.1143   20.8928    5.9212 C.ar      2 RES2    0.0000
    100 H44        1.6023   20.6359    6.6947 H         2 RES2    0.0000
    101 O13        4.3771   26.0992    4.0478 Du        3 SUP3    0.0000
    102 O14        5.7892   26.9668    2.6766 Du        3 SUP3    0.0000
@<TRIPOS>BOND
     1    1    5 2
     2    2    7 2
     3    3   41 2
     4    4   34 1
     5    6    1 2
     6    8    2 2
     7    9   10 1
     8   11    9 1
     9   12    9 1
    10   13    9 1
    11   14   13 1
    12   15   14 1
    13   16   14 1
    14   17   13 1
    15   18   17 1
    16   19   17 1
    17   20   13 1
    18   21   20 1
    19   22   21 1
    20   23   21 1
    21   24   20 1
    22   25   24 1
    23   26   24 1
    24   27   20 1
    25   28   27 1
    26   29   28 1
    27   30   28 1
    28   31   27 1
    29   32   31 1
    30   33   31 1
    31   34   27 1
    32   35   34 1
    33   36   35 1
    34   37   35 1
    35   38   34 1
    36   39   38 1
    37   40   38 1
    38   41    4 1
    39   42   41 1
    40   43   42 ar
    41   44   43 1
    42   45    1 1
    43   46   45 ar
    44   47   46 1
    45   48    2 1
    46   49   42 ar
    47   50   49 1
    48   51   55 2
    49   52   57 2
    50   53   91 2
    51   54   84 1
    52   56   51 2
    53   58   52 2
    54   59   60 1
    55   61   59 1
    56   62   59 1
    57   63   59 1
    58   64   63 1
    59   65   64 1
    60   66   64 1
    61   67   63 1
    62   68   67 1
    63   69   67 1
    64   70   63 1
    65   71   70 1
    66   72   71 1
    67   73   71 1
    68   74   70 1
    69   75   74 1
    70   76   74 1
    71   77   70 1
    72   78   77 1
    73   79   78 1
    74   80   78 1
    75   81   77 1
    76   82   81 1
    77   83   81 1
    78   84   77 1
    79   85   84 1
    80   86   85 1
    81   87   85 1
    82   88   84 1
    83   89   88 1
    84   90   88 1
    85   91   54 1
    86   92   91 1
    87   93   92 ar
    88   94   93 1
    89   95   51 1
    90   96   95 ar
    91   97   96 1
    92   98   52 1
    93   99   92 ar
    94  100   99 1
    95   14   17 1
    96   21   24 1
    97   28   31 1
    98   35   38 1
    99   43   45 ar
   100   46   48 ar
   101   48   49 ar
   102   64   67 1
   103   71   74 1
   104   78   81 1
   105   85   88 1
   106   93   95 ar
   107   96   98 ar
   108   98   99 ar
@<TRIPOS>SUBSTRUCTURE
     1 RES1 1
     2 RES2 51
     3 SUP3 101

@<TRIPOS>CRYSIN
  11.3080   30.6580   10.9720  90.0000  91.2200  90.0000  14 1

