# MOL2 file generated by ConQuest
# Please check atom types

@<TRIPOS>MOLECULE
JIMNEZ
    86    90     1
SMALL
NO_CHARGES
****
Generated from CSD

@<TRIPOS>ATOM
      1 O1        12.6598    6.1348    2.9468 O.3       1 RES1    0.0000
      2 H1        13.2553    5.7432    2.5404 H         1 RES1    0.0000
      3 O2         9.5290    8.5296    8.2649 O.2       1 RES1    0.0000
      4 O3         8.2919    7.2363   16.1157 O.3       1 RES1    0.0000
      5 O4         9.0607    8.3444   14.3607 O.2       1 RES1    0.0000
      6 N1        11.5513    5.2602    3.1223 N.2       1 RES1    0.0000
      7 C1         9.0605    5.0589    5.5786 C.3       1 RES1    0.0000
      8 H2         9.8048    4.5729    5.9925 H         1 RES1    0.0000
      9 C2         9.3617    4.9864    4.0397 C.3       1 RES1    0.0000
     10 C3        10.6182    5.8127    3.7734 C.2       1 RES1    0.0000
     11 C4        10.6558    7.1799    4.3621 C.3       1 RES1    0.0000
     12 H3         9.9673    7.7281    3.9525 H         1 RES1    0.0000
     13 H4        11.5158    7.5883    4.1772 H         1 RES1    0.0000
     14 C5        10.4319    7.1258    5.8730 C.3       1 RES1    0.0000
     15 H5        10.4506    8.0275    6.2284 H         1 RES1    0.0000
     16 H6        11.1592    6.6303    6.2826 H         1 RES1    0.0000
     17 C6         9.0997    6.4641    6.2517 C.3       1 RES1    0.0000
     18 C7         9.0729    6.2058    7.7952 C.3       1 RES1    0.0000
     19 H7         9.9110    5.7278    7.9720 H         1 RES1    0.0000
     20 C8         7.9675    5.2572    8.3588 C.3       1 RES1    0.0000
     21 C9         7.8751    3.9881    7.4999 C.3       1 RES1    0.0000
     22 H8         8.6450    3.4268    7.6851 H         1 RES1    0.0000
     23 H9         7.0805    3.4941    7.7536 H         1 RES1    0.0000
     24 C10        7.8219    4.2780    6.0026 C.3       1 RES1    0.0000
     25 H10        7.7786    3.4436    5.5096 H         1 RES1    0.0000
     26 H11        7.0261    4.7925    5.7981 H         1 RES1    0.0000
     27 C11        9.1577    7.4442    8.6823 C.2       1 RES1    0.0000
     28 C12        8.8169    7.2963   10.0985 C.2       1 RES1    0.0000
     29 H12        8.8802    8.0531   10.6351 H         1 RES1    0.0000
     30 C13        8.4230    6.1633   10.6801 C.2       1 RES1    0.0000
     31 C14        8.3562    4.8745    9.8555 C.3       1 RES1    0.0000
     32 C15        7.3548    3.8520   10.4333 C.3       1 RES1    0.0000
     33 H13        6.4625    4.0825   10.1299 H         1 RES1    0.0000
     34 H14        7.5667    2.9730   10.0837 H         1 RES1    0.0000
     35 C16        7.3540    3.7876   11.9646 C.3       1 RES1    0.0000
     36 H15        8.2150    3.4604   12.2687 H         1 RES1    0.0000
     37 H16        6.6774    3.1574   12.2560 H         1 RES1    0.0000
     38 C17        9.5223    5.9569   12.9228 C.3       1 RES1    0.0000
     39 H17        9.9197    5.1189   12.6401 H         1 RES1    0.0000
     40 H18       10.1270    6.6713   12.6703 H         1 RES1    0.0000
     41 C18        8.1777    6.1516   12.1783 C.3       1 RES1    0.0000
     42 H19        7.8515    7.0445   12.4169 H         1 RES1    0.0000
     43 C19        7.0809    5.1511   12.6091 C.3       1 RES1    0.0000
     44 C20        7.0568    5.0216   14.1501 C.3       1 RES1    0.0000
     45 H20        6.6485    5.8208   14.5175 H         1 RES1    0.0000
     46 H21        6.4898    4.2706   14.3852 H         1 RES1    0.0000
     47 C21        8.4036    4.8276   14.8096 C.3       1 RES1    0.0000
     48 H22        8.7753    3.9749   14.5350 H         1 RES1    0.0000
     49 H23        8.2896    4.8079   15.7734 H         1 RES1    0.0000
     50 C22        9.3779    5.9467   14.4391 C.3       1 RES1    0.0000
     51 C23        9.6049    3.5204    3.6593 C.3       1 RES1    0.0000
     52 H24        9.7870    3.4597    2.7173 H         1 RES1    0.0000
     53 H25        8.8254    3.0015    3.8680 H         1 RES1    0.0000
     54 H26       10.3564    3.1816    4.1517 H         1 RES1    0.0000
     55 C24        8.2153    5.5105    3.1516 C.3       1 RES1    0.0000
     56 H27        8.4670    5.4358    2.2281 H         1 RES1    0.0000
     57 H28        8.0413    6.4305    3.3628 H         1 RES1    0.0000
     58 H29        7.4238    4.9908    3.3102 H         1 RES1    0.0000
     59 C25        7.9393    7.4017    5.8253 C.3       1 RES1    0.0000
     60 H30        7.9770    7.5452    4.8769 H         1 RES1    0.0000
     61 H31        8.0245    8.2434    6.2794 H         1 RES1    0.0000
     62 H32        7.1005    6.9970    6.0547 H         1 RES1    0.0000
     63 C26        6.5932    5.9643    8.3325 C.3       1 RES1    0.0000
     64 H33        6.3675    6.1904    7.4269 H         1 RES1    0.0000
     65 H34        6.6347    6.7642    8.8613 H         1 RES1    0.0000
     66 H35        5.9246    5.3765    8.6923 H         1 RES1    0.0000
     67 C27        9.7564    4.2209    9.9477 C.3       1 RES1    0.0000
     68 H36        9.9500    4.0072   10.8630 H         1 RES1    0.0000
     69 H37       10.4178    4.8320    9.6151 H         1 RES1    0.0000
     70 H38        9.7696    3.4172    9.4223 H         1 RES1    0.0000
     71 C28        5.7196    5.6883   12.1795 C.3       1 RES1    0.0000
     72 H39        5.6993    5.7798   11.2232 H         1 RES1    0.0000
     73 H40        5.5704    6.5446   12.5859 H         1 RES1    0.0000
     74 H41        5.0330    5.0779   12.4568 H         1 RES1    0.0000
     75 C29       10.7557    5.7147   15.0874 C.3       1 RES1    0.0000
     76 H42       11.1060    4.8679   14.7996 H         1 RES1    0.0000
     77 H43       10.6636    5.7154   16.0427 H         1 RES1    0.0000
     78 H44       11.3562    6.4158   14.8235 H         1 RES1    0.0000
     79 C30        8.8951    7.3014   14.9354 C.2       1 RES1    0.0000
     80 C31        7.8112    8.4842   16.6754 C.3       1 RES1    0.0000
     81 H45        8.4031    9.2058   16.4109 H         1 RES1    0.0000
     82 H46        7.8229    8.4286   17.6444 H         1 RES1    0.0000
     83 C32        6.4544    8.7769   16.2228 C.3       1 RES1    0.0000
     84 H47        6.1595    9.6040   16.6085 H         1 RES1    0.0000
     85 H48        5.8668    8.0685   16.4953 H         1 RES1    0.0000
     86 H49        6.4467    8.8494   15.2650 H         1 RES1    0.0000
@<TRIPOS>BOND
     1    1    2 1
     2    3   27 2
     3    4   79 1
     4    5   79 2
     5    6    1 1
     6    7    8 1
     7    9    7 1
     8   10    6 2
     9   11   10 1
    10   12   11 1
    11   13   11 1
    12   14   11 1
    13   15   14 1
    14   16   14 1
    15   17    7 1
    16   18   17 1
    17   19   18 1
    18   20   18 1
    19   21   20 1
    20   22   21 1
    21   23   21 1
    22   24    7 1
    23   25   24 1
    24   26   24 1
    25   27   18 1
    26   28   27 1
    27   29   28 1
    28   30   28 2
    29   31   20 1
    30   32   31 1
    31   33   32 1
    32   34   32 1
    33   35   32 1
    34   36   35 1
    35   37   35 1
    36   38   39 1
    37   40   38 1
    38   41   30 1
    39   42   41 1
    40   43   35 1
    41   44   43 1
    42   45   44 1
    43   46   44 1
    44   47   44 1
    45   48   47 1
    46   49   47 1
    47   50   38 1
    48   51    9 1
    49   52   51 1
    50   53   51 1
    51   54   51 1
    52   55    9 1
    53   56   55 1
    54   57   55 1
    55   58   55 1
    56   59   17 1
    57   60   59 1
    58   61   59 1
    59   62   59 1
    60   63   20 1
    61   64   63 1
    62   65   63 1
    63   66   63 1
    64   67   31 1
    65   68   67 1
    66   69   67 1
    67   70   67 1
    68   71   43 1
    69   72   71 1
    70   73   71 1
    71   74   71 1
    72   75   50 1
    73   76   75 1
    74   77   75 1
    75   78   75 1
    76   79   50 1
    77   80    4 1
    78   81   80 1
    79   82   80 1
    80   83   80 1
    81   84   83 1
    82   85   83 1
    83   86   83 1
    84    9   10 1
    85   14   17 1
    86   21   24 1
    87   30   31 1
    88   38   41 1
    89   41   43 1
    90   47   50 1
@<TRIPOS>SUBSTRUCTURE
     1 RES1 1

@<TRIPOS>CRYSIN
  12.4897    7.3190   15.9944  90.0000  94.8330  90.0000   4 1

