# MOL2 file generated by ConQuest
# Please check atom types

@<TRIPOS>MOLECULE
JIMTII10
    55    58     1
SMALL
NO_CHARGES
****
Generated from CSD

@<TRIPOS>ATOM
      1 C1         6.5898    8.6303    3.8245 C.3       1 RES1    0.0000
      2 C2         5.6156    7.4771    3.9149 C.3       1 RES1    0.0000
      3 C3         6.2604    6.1700    4.3526 C.3       1 RES1    0.0000
      4 C4         7.4278    6.3422    5.2624 C.2       1 RES1    0.0000
      5 C5         7.8606    7.5268    5.6811 C.2       1 RES1    0.0000
      6 C6         9.0926    7.8409    6.5263 C.3       1 RES1    0.0000
      7 C7         9.1987    9.3477    6.5315 C.3       1 RES1    0.0000
      8 C8         8.4010    9.8057    5.3098 C.3       1 RES1    0.0000
      9 C9         7.2621    8.8076    5.1943 C.3       1 RES1    0.0000
     10 C10        7.3161    8.3324    1.5706 C.3       1 RES1    0.0000
     11 C11        6.7934    4.1951    3.1137 C.2       1 RES1    0.0000
     12 C12        7.1587    3.6398    1.7584 C.3       1 RES1    0.0000
     13 C13        8.6749    3.4807    1.4802 C.3       1 RES1    0.0000
     14 C14        8.3836    3.0662    0.0043 C.3       1 RES1    0.0000
     15 C15        7.4092    1.8726    0.1904 C.3       1 RES1    0.0000
     16 C16        6.5599    2.2820    1.4069 C.3       1 RES1    0.0000
     17 C17        9.4496    4.7848    1.6120 C.3       1 RES1    0.0000
     18 C18        9.3643    2.4329    2.3409 C.3       1 RES1    0.0000
     19 C19        9.5415    2.8322   -0.9494 C.3       1 RES1    0.0000
     20 C20        7.5045    4.2042   -0.3911 C.2       1 RES1    0.0000
     21 N1         6.1768    9.2889    6.1662 N.pl3     1 RES1    0.0000
     22 O1         7.6804    8.4013    2.9448 O.3       1 RES1    0.0000
     23 O2         5.4646   10.2019    5.8267 O.2       1 RES1    0.0000
     24 O3         6.0880    8.7590    7.2311 O.2       1 RES1    0.0000
     25 O4         6.6937    5.5093    3.1102 O.3       1 RES1    0.0000
     26 O5         6.6542    3.4949    4.0760 O.2       1 RES1    0.0000
     27 O6         6.7455    4.5426    0.6953 O.3       1 RES1    0.0000
     28 O7         7.3615    4.7554   -1.4466 O.2       1 RES1    0.0000
     29 H1         6.0541    9.4440    3.5238 H         1 RES1    0.0000
     30 H2         4.8869    7.7213    4.5490 H         1 RES1    0.0000
     31 H3         5.1839    7.3464    3.0499 H         1 RES1    0.0000
     32 H4         5.5497    5.6238    4.7903 H         1 RES1    0.0000
     33 H5         7.9124    5.5326    5.5657 H         1 RES1    0.0000
     34 H6         8.9739    7.4984    7.5128 H         1 RES1    0.0000
     35 H7         9.9432    7.4174    6.1429 H         1 RES1    0.0000
     36 H8         8.8306    9.6973    7.3749 H         1 RES1    0.0000
     37 H9        10.1943    9.6061    6.4617 H         1 RES1    0.0000
     38 H10        8.0260   10.7308    5.4106 H         1 RES1    0.0000
     39 H11        8.9442    9.7682    4.4543 H         1 RES1    0.0000
     40 H12        8.1086    8.1976    1.0166 H         1 RES1    0.0000
     41 H13        6.8610    9.1704    1.2923 H         1 RES1    0.0000
     42 H14        6.6657    7.5896    1.4130 H         1 RES1    0.0000
     43 H15        6.8378    1.7530   -0.6031 H         1 RES1    0.0000
     44 H16        7.8937    1.0538    0.3360 H         1 RES1    0.0000
     45 H17        6.7154    1.6213    2.1108 H         1 RES1    0.0000
     46 H18        5.6087    2.3610    1.1889 H         1 RES1    0.0000
     47 H19       10.4437    4.6510    1.4130 H         1 RES1    0.0000
     48 H20        9.3815    5.1577    2.5502 H         1 RES1    0.0000
     49 H21        9.0932    5.4516    1.0166 H         1 RES1    0.0000
     50 H22       10.3077    2.3306    2.1194 H         1 RES1    0.0000
     51 H23        8.9597    1.4896    2.1884 H         1 RES1    0.0000
     52 H24        9.2763    2.6244    3.3084 H         1 RES1    0.0000
     53 H25        9.2047    2.5839   -1.8179 H         1 RES1    0.0000
     54 H26       10.1121    2.0975   -0.6031 H         1 RES1    0.0000
     55 H27       10.0741    3.6681   -1.0253 H         1 RES1    0.0000
@<TRIPOS>BOND
     1    1    2 1
     2    2    3 1
     3    3    4 1
     4    4    5 2
     5    5    6 1
     6    6    7 1
     7    7    8 1
     8    8    9 1
     9    9    1 1
    10   10   22 1
    11   11   12 1
    12   12   13 1
    13   13   14 1
    14   14   15 1
    15   15   16 1
    16   16   12 1
    17   17   13 1
    18   18   13 1
    19   19   14 1
    20   20   14 1
    21   21    9 1
    22   22    1 1
    23   23   21 2
    24   24   21 2
    25   25    3 1
    26   26   11 2
    27   27   12 1
    28   28   20 2
    29   29    1 1
    30   30    2 1
    31   31    2 1
    32   32    3 1
    33   33    4 1
    34   34    6 1
    35   35    6 1
    36   36    7 1
    37   37    7 1
    38   38    8 1
    39   39    8 1
    40   40   10 1
    41   41   10 1
    42   42   10 1
    43   43   15 1
    44   44   15 1
    45   45   16 1
    46   46   16 1
    47   47   17 1
    48   48   17 1
    49   49   17 1
    50   50   18 1
    51   51   18 1
    52   52   18 1
    53   53   19 1
    54   54   19 1
    55   55   19 1
    56    5    9 1
    57   11   25 1
    58   20   27 1
@<TRIPOS>SUBSTRUCTURE
     1 RES1 1

@<TRIPOS>CRYSIN
  22.8970   10.1330    8.9700  90.0000 106.1600  90.0000   5 1

