# MOL2 file generated by ConQuest
# Please check atom types

@<TRIPOS>MOLECULE
JIMTOO
    55    58     1
SMALL
NO_CHARGES
****
Generated from CSD

@<TRIPOS>ATOM
      1 C1         3.9244   -3.1175    0.2674 C.3       1 RES1    0.0000
      2 C2         3.6703   -1.7615    0.9006 C.3       1 RES1    0.0000
      3 C3         2.3347   -1.7896    1.6160 C.3       1 RES1    0.0000
      4 C4         2.1827   -2.9636    2.5112 C.2       1 RES1    0.0000
      5 C5         2.9254   -4.0606    2.3954 C.2       1 RES1    0.0000
      6 C6         2.7386   -5.3958    3.0583 C.3       1 RES1    0.0000
      7 C7         3.3315   -6.4183    2.1219 C.3       1 RES1    0.0000
      8 C8         3.7138   -5.6499    0.8434 C.3       1 RES1    0.0000
      9 C9         3.9701   -4.2255    1.3013 C.3       1 RES1    0.0000
     10 C10        5.0190   -2.8341   -1.7966 C.3       1 RES1    0.0000
     11 C11        1.0207   -0.1270    2.7185 C.2       1 RES1    0.0000
     12 C12        1.0902    1.1043    3.5649 C.3       1 RES1    0.0000
     13 C13        1.7744    1.0164    4.9455 C.3       1 RES1    0.0000
     14 C14        1.2683    2.4383    5.3447 C.3       1 RES1    0.0000
     15 C15        1.7613    3.3032    4.1729 C.3       1 RES1    0.0000
     16 C16        1.6549    2.3821    2.9440 C.3       1 RES1    0.0000
     17 C17        3.3163    0.9015    4.9074 C.3       1 RES1    0.0000
     18 C18        1.2119   -0.0892    5.8415 C.3       1 RES1    0.0000
     19 C19        1.5637    2.9612    6.7306 C.3       1 RES1    0.0000
     20 C20       -0.1976    2.2404    5.0423 C.2       1 RES1    0.0000
     21 N1         5.3622   -4.1705    1.9764 N.pl3     1 RES1    0.0000
     22 O1         5.1428   -3.1420   -0.4701 O.3       1 RES1    0.0000
     23 O2         6.2135   -4.9817    1.6350 O.2       1 RES1    0.0000
     24 O3         5.5728   -3.3008    2.7786 O.2       1 RES1    0.0000
     25 O4         2.2435   -0.5363    2.4000 O.3       1 RES1    0.0000
     26 O5         0.0109   -0.7000    2.4152 O.2       1 RES1    0.0000
     27 O6        -0.2910    1.4537    3.9451 O.3       1 RES1    0.0000
     28 O7        -1.1663    2.6790    5.5923 O.2       1 RES1    0.0000
     29 H1         3.1491   -3.3228   -0.3810 H         1 RES1    0.0000
     30 H2         4.4088   -1.5392    1.5390 H         1 RES1    0.0000
     31 H3         3.6703   -1.0506    0.2133 H         1 RES1    0.0000
     32 H4         1.5637   -1.8446    0.9829 H         1 RES1    0.0000
     33 H5         1.4768   -2.9318    3.2000 H         1 RES1    0.0000
     34 H6         3.2143   -5.4239    3.9390 H         1 RES1    0.0000
     35 H7         1.7592   -5.6071    3.1695 H         1 RES1    0.0000
     36 H8         4.1481   -6.8165    2.5524 H         1 RES1    0.0000
     37 H9         2.6713   -7.1341    1.8971 H         1 RES1    0.0000
     38 H10        2.9319   -5.6438    0.1981 H         1 RES1    0.0000
     39 H11        4.5173   -6.0347    0.4267 H         1 RES1    0.0000
     40 H12        4.6042   -1.7713   -1.8514 H         1 RES1    0.0000
     41 H13        5.8856   -2.8097   -2.2857 H         1 RES1    0.0000
     42 H14        4.4088   -3.3716   -2.2781 H         1 RES1    0.0000
     43 H15        1.1728    4.1534    4.0838 H         1 RES1    0.0000
     44 H16        2.6930    3.6159    4.3352 H         1 RES1    0.0000
     45 H17        2.4976    2.2477    2.5600 H         1 RES1    0.0000
     46 H18        0.9990    2.7120    2.2857 H         1 RES1    0.0000
     47 H19        3.5618    0.0000    4.6704 H         1 RES1    0.0000
     48 H20        3.6921    1.1239    5.8285 H         1 RES1    0.0000
     49 H21        3.7138    1.6003    4.2514 H         1 RES1    0.0000
     50 H22        1.5637   -0.9528    5.5238 H         1 RES1    0.0000
     51 H23        0.2389   -0.0855    5.8285 H         1 RES1    0.0000
     52 H24        1.5203    0.0733    6.7733 H         1 RES1    0.0000
     53 H25        2.5627    3.0662    6.8342 H         1 RES1    0.0000
     54 H26        1.2162    2.3699    7.4057 H         1 RES1    0.0000
     55 H27        1.1293    3.8480    6.8266 H         1 RES1    0.0000
@<TRIPOS>BOND
     1    1    2 1
     2    2    3 1
     3    3    4 1
     4    4    5 2
     5    5    6 1
     6    6    7 1
     7    7    8 1
     8    8    9 1
     9    9    1 1
    10   10   22 1
    11   11   12 1
    12   12   13 1
    13   13   14 1
    14   14   15 1
    15   15   16 1
    16   16   12 1
    17   17   13 1
    18   18   13 1
    19   19   14 1
    20   20   14 1
    21   21    9 1
    22   22    1 1
    23   23   21 2
    24   24   21 2
    25   25    3 1
    26   26   11 2
    27   27   12 1
    28   28   20 2
    29   29    1 1
    30   30    2 1
    31   31    2 1
    32   32    3 1
    33   33    4 1
    34   34    6 1
    35   35    6 1
    36   36    7 1
    37   37    7 1
    38   38    8 1
    39   39    8 1
    40   40   10 1
    41   41   10 1
    42   42   10 1
    43   43   15 1
    44   44   15 1
    45   45   16 1
    46   46   16 1
    47   47   17 1
    48   48   17 1
    49   49   17 1
    50   50   18 1
    51   51   18 1
    52   52   18 1
    53   53   19 1
    54   54   19 1
    55   55   19 1
    56    5    9 1
    57   11   25 1
    58   20   27 1
@<TRIPOS>SUBSTRUCTURE
     1 RES1 1

@<TRIPOS>CRYSIN
  21.7180   12.2160    7.6190  90.0000  90.0000  90.0000  19 1

