# MOL2 file generated by ConQuest
# Please check atom types

@<TRIPOS>MOLECULE
JIMYOT
    43    44     1
SMALL
NO_CHARGES
****
Generated from CSD

@<TRIPOS>ATOM
      1 N1        -3.7361    2.2356    6.1159 N.3       1 RES1    0.0000
      2 N2        -3.9149    3.8001    3.6024 N.pl3     1 RES1    0.0000
      3 N3         0.6019    5.3489    4.3147 N.pl3     1 RES1    0.0000
      4 O1        -4.2519    2.7407    3.1295 O.2       1 RES1    0.0000
      5 O2        -4.4213    4.8809    3.3257 O.2       1 RES1    0.0000
      6 O3         0.4657    6.0492    3.3209 O.2       1 RES1    0.0000
      7 O4         1.6302    5.3242    4.9765 O.2       1 RES1    0.0000
      8 C1        -2.6640    2.9180    5.6033 C.ar      1 RES1    0.0000
      9 C2        -2.7422    3.8001    4.4988 C.ar      1 RES1    0.0000
     10 C3        -1.7188    4.6059    4.0885 C.ar      1 RES1    0.0000
     11 C4        -0.5008    4.5060    4.7286 C.ar      1 RES1    0.0000
     12 C5        -0.3250    3.5970    5.7549 C.ar      1 RES1    0.0000
     13 C6        -1.3753    2.8203    6.1761 C.ar      1 RES1    0.0000
     14 C7        -3.5848    0.9540    6.8198 C.3       1 RES1    0.0000
     15 C8        -5.0739    2.8776    6.2025 C.3       1 RES1    0.0000
     16 C9        -5.4647    3.1537    7.6596 C.3       1 RES1    0.0000
     17 C10       -6.7891    3.9000    7.7330 C.3       1 RES1    0.0000
     18 C11       -7.8962    3.1593    7.0027 C.3       1 RES1    0.0000
     19 C12       -7.4914    2.8765    5.5709 C.3       1 RES1    0.0000
     20 C13       -6.1788    2.0953    5.4987 C.3       1 RES1    0.0000
     21 C14       -2.9567    1.0235    8.2143 C.3       1 RES1    0.0000
     22 C15       -2.9169   -0.0707    5.9017 C.3       1 RES1    0.0000
     23 H1        -1.8160    5.2692    3.2426 H         1 RES1    0.0000
     24 H2         0.6309    3.5723    6.2579 H         1 RES1    0.0000
     25 H3        -1.2390    2.1548    7.0159 H         1 RES1    0.0000
     26 H4        -4.6037    0.6363    6.9846 H         1 RES1    0.0000
     27 H5        -4.9694    3.8439    5.7333 H         1 RES1    0.0000
     28 H6        -5.5349    2.1941    8.1493 H         1 RES1    0.0000
     29 H7        -4.6764    3.7339    8.1156 H         1 RES1    0.0000
     30 H8        -6.6487    4.8708    7.2806 H         1 RES1    0.0000
     31 H9        -7.1028    4.0223    8.7594 H         1 RES1    0.0000
     32 H10       -8.0661    2.2165    7.5008 H         1 RES1    0.0000
     33 H11       -8.7686    3.7866    7.1134 H         1 RES1    0.0000
     34 H12       -8.2142    2.2727    5.0426 H         1 RES1    0.0000
     35 H13       -7.3722    3.8214    5.0619 H         1 RES1    0.0000
     36 H14       -6.3223    1.1537    6.0076 H         1 RES1    0.0000
     37 H15       -5.8763    1.9102    4.4783 H         1 RES1    0.0000
     38 H16       -3.4311    0.2334    8.7762 H         1 RES1    0.0000
     39 H17       -3.1760    1.9752    8.6751 H         1 RES1    0.0000
     40 H18       -1.8879    0.8664    8.2035 H         1 RES1    0.0000
     41 H19       -1.9265    0.2536    5.6142 H         1 RES1    0.0000
     42 H20       -3.5446   -0.1279    5.0246 H         1 RES1    0.0000
     43 H21       -2.8556   -1.0449    6.3638 H         1 RES1    0.0000
@<TRIPOS>BOND
     1    1    8 1
     2    2    4 2
     3    3    6 2
     4    5    2 2
     5    7    3 2
     6    8    9 ar
     7    9    2 1
     8   10    9 ar
     9   11    3 1
    10   12   11 ar
    11   13    8 ar
    12   14    1 1
    13   15    1 1
    14   16   15 1
    15   17   16 1
    16   18   17 1
    17   19   18 1
    18   20   15 1
    19   21   14 1
    20   22   14 1
    21   23   10 1
    22   24   12 1
    23   25   13 1
    24   26   14 1
    25   27   15 1
    26   28   16 1
    27   29   16 1
    28   30   17 1
    29   31   17 1
    30   32   18 1
    31   33   18 1
    32   34   19 1
    33   35   19 1
    34   36   20 1
    35   37   20 1
    36   38   21 1
    37   39   21 1
    38   40   21 1
    39   41   22 1
    40   42   22 1
    41   43   22 1
    42   10   11 ar
    43   12   13 ar
    44   19   20 1
@<TRIPOS>SUBSTRUCTURE
     1 RES1 1

@<TRIPOS>CRYSIN
  11.6010   11.2230   12.1430  90.0000  97.7500  90.0000 231 1

