# MOL2 file generated by ConQuest
# Please check atom types

@<TRIPOS>MOLECULE
JINBEN
    23    18     2
SMALL
NO_CHARGES
****
Generated from CSD

@<TRIPOS>ATOM
      1 C1         3.3534   12.4166    2.0005 C.3       1 RES1    0.0000
      2 N1         1.8983   12.6901    2.0005 N.pl3     1 RES1    0.0000
      3 O1         1.1050   11.5397    2.0005 O.3       1 RES1    0.0000
      4 C2         1.9867   10.3526    2.0005 C.3       1 RES1    0.0000
      5 C3         2.8478   10.4037    3.2344 C.3       1 RES1    0.0000
      6 C4         3.6384   11.5960    3.2416 C.3       1 RES1    0.0000
      7 C5         1.3060   13.8379    2.0005 C.2       1 RES1    0.0000
      8 C6        -0.0402   14.1311    2.0005 C.2       1 RES1    0.0000
      9 C7        -0.4038   15.5145    2.0005 C.1       1 RES1    0.0000
     10 N2        -0.6905   16.6165    2.0005 N.1       1 RES1    0.0000
     11 C8        -1.1104   13.2084    2.0005 C.1       1 RES1    0.0000
     12 N3        -2.0224   12.5318    2.0005 N.1       1 RES1    0.0000
     13 H1         3.8394   13.2673    2.0005 H         1 RES1    0.0000
     14 H2         1.3248    9.5542    2.0005 H         1 RES1    0.0000
     15 H3         3.4026    9.6445    4.0026 Du        2 SUP2    0.0000
     16 H4         3.6277   11.5907    3.2416 Du        2 SUP2    0.0000
     17 H5         3.5035    9.5438    3.2464 Du        2 SUP2    0.0000
     18 H6         2.2136   10.3827    4.1074 Du        2 SUP2    0.0000
     19 H7         3.3883   12.1784    4.1154 Du        2 SUP2    0.0000
     20 H8         4.6854   11.3342    3.2704 Du        2 SUP2    0.0000
     21 H9         1.9090   14.5447    2.0005 H         1 RES1    0.0000
     22 C4G        3.6384   11.5960    0.7594 C.2       1 RES1    0.0000
     23 C3G        2.8478   10.4037    0.7666 C.2       1 RES1    0.0000
@<TRIPOS>BOND
     1    1    2 1
     2    2    3 1
     3    3    4 1
     4    4    5 1
     5    5    6 1
     6    6    1 1
     7    7    2 1
     8    8    7 2
     9    9    8 1
    10   10    9 3
    11   11    8 1
    12   12   11 3
    13   13    1 1
    14   14    4 1
    15   21    7 1
    16   22    1 1
    17   23    4 1
    18   22   23 2
@<TRIPOS>SUBSTRUCTURE
     1 RES1 1
     2 SUP2 15

@<TRIPOS>CRYSIN
   8.9330   13.0880    8.0020  90.0000  90.0000  90.0000  62 4

