# MOL2 file generated by ConQuest
# Please check atom types

@<TRIPOS>MOLECULE
JINSII
    21    22     1
SMALL
NO_CHARGES
****
Generated from CSD

@<TRIPOS>ATOM
      1 C1         2.0289    2.2382    1.6757 C.ar      1 RES1    0.0000
      2 C2         2.9660    1.6530    0.8235 C.ar      1 RES1    0.0000
      3 C3         2.8838    1.7942   -0.5445 C.ar      1 RES1    0.0000
      4 C4         1.8497    2.5336   -1.0565 C.ar      1 RES1    0.0000
      5 C5         0.9045    3.1647   -0.2504 C.ar      1 RES1    0.0000
      6 C6         1.0016    3.0142    1.1288 C.ar      1 RES1    0.0000
      7 C7         2.2570    2.0511    3.1422 C.ar      1 RES1    0.0000
      8 C8         1.4423    1.3319    4.0168 C.ar      1 RES1    0.0000
      9 C9         1.6929    1.2750    5.3723 C.ar      1 RES1    0.0000
     10 C10        2.8023    1.9006    5.8744 C.ar      1 RES1    0.0000
     11 C11        3.6623    2.5666    5.0409 C.ar      1 RES1    0.0000
     12 C12        3.3886    2.6455    3.6866 C.ar      1 RES1    0.0000
     13 C13        0.0070    3.7132    1.9922 C.2       1 RES1    0.0000
     14 N1         0.2670    0.6146    3.5060 N.pl3     1 RES1    0.0000
     15 N2         1.7541    2.6987   -2.5092 N.pl3     1 RES1    0.0000
     16 O1         0.1865    0.3522    2.3298 O.2       1 RES1    0.0000
     17 O2        -0.6045    0.3229    4.3220 O.2       1 RES1    0.0000
     18 O3         2.6908    2.2932   -3.1883 O.2       1 RES1    0.0000
     19 O4         0.7815    3.2619   -2.9777 O.2       1 RES1    0.0000
     20 O5         0.0207    3.6435    3.2057 O.co2     1 RES1    0.0000
     21 O6        -0.8839    4.4085    1.3344 O.co2     1 RES1    0.0000
@<TRIPOS>BOND
     1    1    2 ar
     2    2    3 ar
     3    3    4 ar
     4    4    5 ar
     5    5    6 ar
     6    6    1 ar
     7    7    1 1
     8    8    7 ar
     9    9    8 ar
    10   10    9 ar
    11   11   10 ar
    12   12    7 ar
    13   13    6 1
    14   14    8 1
    15   15    4 1
    16   16   14 2
    17   17   14 2
    18   18   15 2
    19   19   15 2
    20   20   13 2
    21   21   13 1
    22   11   12 ar
@<TRIPOS>SUBSTRUCTURE
     1 RES1 1

@<TRIPOS>CRYSIN
  11.2870   19.0420   12.4590  90.0000  90.0000 105.5400  15 4

