# MOL2 file generated by ConQuest
# Please check atom types

@<TRIPOS>MOLECULE
JIPNIF
    31    33     1
SMALL
NO_CHARGES
****
Generated from CSD

@<TRIPOS>ATOM
      1 O1         7.2405   -0.1658    3.1009 O.3       1 RES1    0.0000
      2 O2        11.8702    4.0977    4.4166 O.2       1 RES1    0.0000
      3 O3        12.5958    2.7411    5.8537 O.2       1 RES1    0.0000
      4 O4         7.8471   -0.7245    7.1576 O.2       1 RES1    0.0000
      5 O5         9.3973    0.2337    8.1811 O.2       1 RES1    0.0000
      6 O6        12.4778    1.6170    2.5027 O.2       1 RES1    0.0000
      7 O7         8.0919    1.1140    1.4068 O.2       1 RES1    0.0000
      8 N1        10.4613    2.6665    2.3952 N.am      1 RES1    0.0000
      9 N2         8.1253    0.8091    2.5658 N.pl3     1 RES1    0.0000
     10 N3         7.5087   -0.3973    4.4306 N.2       1 RES1    0.0000
     11 N4        11.7878    3.0705    5.0054 N.pl3     1 RES1    0.0000
     12 N5         8.7964    0.0122    7.1997 N.pl3     1 RES1    0.0000
     13 C1         9.6633    3.6703    1.7199 C.ar      1 RES1    0.0000
     14 C2         8.9945    4.6085    2.4303 C.ar      1 RES1    0.0000
     15 C3         8.2666    5.5356    1.7456 C.ar      1 RES1    0.0000
     16 C4         8.2833    5.6235    0.3926 C.ar      1 RES1    0.0000
     17 C5         8.9232    4.6286   -0.3342 C.ar      1 RES1    0.0000
     18 C6         9.6277    3.6648    0.3318 C.ar      1 RES1    0.0000
     19 C7        10.0094    2.0611    3.6057 C.2       1 RES1    0.0000
     20 C8         8.9221    1.1730    3.6150 C.2       1 RES1    0.0000
     21 C9         8.5092    0.4541    4.7414 C.2       1 RES1    0.0000
     22 C10        9.1881    0.6666    5.9448 C.2       1 RES1    0.0000
     23 C11       10.2264    1.5169    5.9869 C.2       1 RES1    0.0000
     24 C12       10.6449    2.2058    4.8068 C.2       1 RES1    0.0000
     25 C13       11.7556    2.3649    1.9839 C.2       1 RES1    0.0000
     26 H1        11.9080    2.9269    1.1684 H         1 RES1    0.0000
     27 H2         9.1035    4.6408    3.5987 H         1 RES1    0.0000
     28 H3         7.7792    6.1989    2.3368 H         1 RES1    0.0000
     29 H4         7.7013    6.2322    0.1402 H         1 RES1    0.0000
     30 H5         8.9255    5.0192   -1.4722 H         1 RES1    0.0000
     31 H6        10.8396    1.9031    6.7300 H         1 RES1    0.0000
@<TRIPOS>BOND
     1    1    9 1
     2    2   11 2
     3    3   11 2
     4    4   12 2
     5    5   12 2
     6    6   25 2
     7    7    9 1
     8    8   13 1
     9    9   20 2
    10   10    1 1
    11   11   24 1
    12   12   22 1
    13   13   14 ar
    14   14   15 ar
    15   15   16 ar
    16   16   17 ar
    17   17   18 ar
    18   18   13 ar
    19   19    8 1
    20   20   19 1
    21   21   10 2
    22   22   21 1
    23   23   22 2
    24   24   19 2
    25   25    8 1
    26   26   25 1
    27   27   14 1
    28   28   15 1
    29   29   16 1
    30   30   17 1
    31   31   23 1
    32   20   21 1
    33   23   24 1
@<TRIPOS>SUBSTRUCTURE
     1 RES1 1

@<TRIPOS>CRYSIN
  11.1290   11.1290   23.3680  90.0000  90.0000  90.0000  82 1

