# MOL2 file generated by ConQuest
# Please check atom types

@<TRIPOS>MOLECULE
JIPQAB
   138   148     2
SMALL
NO_CHARGES
****
Generated from CSD

@<TRIPOS>ATOM
      1 C1         0.3901    8.0678    0.2778 C.2       1 RES1    0.0000
      2 O1         1.4385    7.9797   -0.5635 O.3       1 RES1    0.0000
      3 N1         2.6756    8.0434    0.2383 N.3       1 RES1    0.0000
      4 C2         2.2548    8.6277    1.5478 C.3       1 RES1    0.0000
      5 H1         2.3900    9.6188    1.5617 H         1 RES1    0.0000
      6 N2         0.8310    8.2858    1.5415 N.am      1 RES1    0.0000
      7 O2        -0.7562    7.9439   -0.1192 O.2       1 RES1    0.0000
      8 C3         3.5300    8.9636   -0.5370 C.3       1 RES1    0.0000
      9 H2         3.0388    9.7993   -0.7820 H         1 RES1    0.0000
     10 C4         4.0209    8.2239   -1.7776 C.3       1 RES1    0.0000
     11 H3         3.3850    7.5157   -2.0838 H         1 RES1    0.0000
     12 C5         5.3969    7.6568   -1.3596 C.3       1 RES1    0.0000
     13 H4         5.4259    6.6597   -1.4256 H         1 RES1    0.0000
     14 C6         5.5852    8.1417    0.0828 C.3       1 RES1    0.0000
     15 H5         5.3148    7.4090    0.7068 H         1 RES1    0.0000
     16 O3         4.6714    9.2478    0.2395 O.3       1 RES1    0.0000
     17 O4         4.3225    9.1715   -2.7925 O.3       1 RES1    0.0000
     18 C7         5.5799    8.7891   -3.3710 C.3       1 RES1    0.0000
     19 O5         6.3118    8.2739   -2.2519 O.3       1 RES1    0.0000
     20 C8         6.2672   10.0203   -3.8867 C.3       1 RES1    0.0000
     21 H6         6.3652   10.6689   -3.1597 H         1 RES1    0.0000
     22 H7         5.7318   10.4158   -4.6072 H         1 RES1    0.0000
     23 H8         7.1511    9.7802   -4.2308 H         1 RES1    0.0000
     24 C9         5.3846    7.7247   -4.4185 C.3       1 RES1    0.0000
     25 H9         4.9341    6.9516   -4.0195 H         1 RES1    0.0000
     26 H10        6.2589    7.4478   -4.7700 H         1 RES1    0.0000
     27 H11        4.8382    8.0809   -5.1489 H         1 RES1    0.0000
     28 C10        6.9929    8.6027    0.4452 C.3       1 RES1    0.0000
     29 H12        7.6437    7.8581    0.2963 H         1 RES1    0.0000
     30 O6         6.9654    8.9577    1.8446 O.3       1 RES1    0.0000
     31 C11        7.9230    9.9959    2.0501 C.3       1 RES1    0.0000
     32 O7         7.9770   10.7053    0.8202 O.3       1 RES1    0.0000
     33 C12        7.5004    9.8696   -0.2135 C.3       1 RES1    0.0000
     34 H13        8.2270    9.6593   -0.8500 H         1 RES1    0.0000
     35 H14        6.7670   10.3175   -0.7068 H         1 RES1    0.0000
     36 C13        9.2612    9.4044    2.4068 C.3       1 RES1    0.0000
     37 H15        9.5657    8.8207    1.6807 H         1 RES1    0.0000
     38 H16        9.1781    8.8826    3.2326 H         1 RES1    0.0000
     39 H17        9.9132   10.1251    2.5404 H         1 RES1    0.0000
     40 C14        7.4189   10.9393    3.0966 C.3       1 RES1    0.0000
     41 H18        6.5447   11.2896    2.8246 H         1 RES1    0.0000
     42 H19        8.0499   11.6821    3.1986 H         1 RES1    0.0000
     43 H20        7.3300   10.4652    3.9491 H         1 RES1    0.0000
     44 C15        3.0240    7.9517    2.6689 C.ar      1 RES1    0.0000
     45 C16        4.1103    8.5997    3.2353 C.ar      1 RES1    0.0000
     46 H21        4.3552    9.4699    2.9436 H         1 RES1    0.0000
     47 C17        4.8390    7.9648    4.2344 C.ar      1 RES1    0.0000
     48 H22        5.5924    8.3918    4.6267 H         1 RES1    0.0000
     49 C18        4.4599    6.7259    4.6422 C.ar      1 RES1    0.0000
     50 C19        3.3807    6.0504    4.0994 C.ar      1 RES1    0.0000
     51 H23        3.1365    5.1826    4.4008 H         1 RES1    0.0000
     52 C20        2.6712    6.6949    3.0998 C.ar      1 RES1    0.0000
     53 H24        1.9265    6.2595    2.7031 H         1 RES1    0.0000
     54 N3         5.2571    6.0516    5.6902 N.pl3     1 RES1    0.0000
     55 O8         6.1921    6.6722    6.1842 O.2       1 RES1    0.0000
     56 O9         4.9362    4.9128    6.0157 O.2       1 RES1    0.0000
     57 C21       -0.0392    8.5497    2.6388 C.ar      1 RES1    0.0000
     58 C22       -1.0422    7.6532    2.9283 C.ar      1 RES1    0.0000
     59 H25       -1.1604    6.8783    2.3923 H         1 RES1    0.0000
     60 C23       -1.8811    7.8867    4.0093 C.ar      1 RES1    0.0000
     61 H26       -2.5749    7.2738    4.2211 H         1 RES1    0.0000
     62 C24       -1.6944    9.0089    4.7612 C.ar      1 RES1    0.0000
     63 C25       -0.7078    9.9327    4.4829 C.ar      1 RES1    0.0000
     64 H27       -0.6039   10.7136    5.0128 H         1 RES1    0.0000
     65 C26        0.1267    9.6855    3.4041 C.ar      1 RES1    0.0000
     66 H28        0.8165   10.3026    3.1913 H         1 RES1    0.0000
     67 N4        -2.5483    9.2370    5.9418 N.pl3     1 RES1    0.0000
     68 O10       -3.3925    8.3948    6.2119 O.2       1 RES1    0.0000
     69 O11       -2.3868   10.2377    6.5985 O.2       1 RES1    0.0000
     70 C27        5.6289    3.1509   11.2141 C.2       2 RES2    0.0000
     71 O12        4.5822    3.2920   12.0724 O.3       2 RES2    0.0000
     72 N5         3.7104    4.3582   11.5419 N.3       2 RES2    0.0000
     73 C28        4.5869    5.1409   10.6314 C.3       2 RES2    0.0000
     74 H29        5.0378    5.8830   11.1283 H         2 RES2    0.0000
     75 N6         5.5506    4.1116   10.2574 N.am      2 RES2    0.0000
     76 O13        6.4320    2.2580   11.3403 O.2       2 RES2    0.0000
     77 C29        3.3120    5.1379   12.7288 C.3       2 RES2    0.0000
     78 H30        4.1089    5.3970   13.2753 H         2 RES2    0.0000
     79 C30        2.3084    4.3362   13.5568 C.3       2 RES2    0.0000
     80 H31        2.3740    3.3516   13.3943 H         2 RES2    0.0000
     81 C31        0.9275    4.9229   13.1361 C.3       2 RES2    0.0000
     82 H32        0.2738    4.2141   12.8721 H         2 RES2    0.0000
     83 C32        1.2607    5.8705   11.9888 C.3       2 RES2    0.0000
     84 H33        1.2288    5.3648   11.1259 H         2 RES2    0.0000
     85 O14        2.6277    6.2773   12.2496 O.3       2 RES2    0.0000
     86 O15        2.4320    4.6721   14.9280 O.3       2 RES2    0.0000
     87 C33        1.1346    5.0486   15.4193 C.3       2 RES2    0.0000
     88 O16        0.5106    5.6507   14.2878 O.3       2 RES2    0.0000
     89 C34        1.3132    6.1022   16.4788 C.3       2 RES2    0.0000
     90 H34        1.8106    6.8593   16.1047 H         2 RES2    0.0000
     91 H35        1.8100    5.7252   17.2341 H         2 RES2    0.0000
     92 H36        0.4343    6.4090   16.7848 H         2 RES2    0.0000
     93 C35        0.3651    3.8329   15.8939 C.3       2 RES2    0.0000
     94 H37        0.2935    3.1860   15.1624 H         2 RES2    0.0000
     95 H38       -0.5327    4.1051   16.1800 H         2 RES2    0.0000
     96 H39        0.8369    3.4219   16.6488 H         2 RES2    0.0000
     97 C36        0.4128    7.1160   11.8637 C.3       2 RES2    0.0000
     98 H40        0.3890    7.6205   12.7264 H         2 RES2    0.0000
     99 O17       -0.8994    6.7044   11.4790 O.3       2 RES2    0.0000
    100 C37       -1.2054    7.2268   10.1891 C.3       2 RES2    0.0000
    101 O18        0.0405    7.5794    9.6339 O.3       2 RES2    0.0000
    102 C38        0.8464    8.0208   10.7176 C.3       2 RES2    0.0000
    103 H41        0.6722    8.9720   10.9292 H         2 RES2    0.0000
    104 H42        1.8085    7.9052   10.5163 H         2 RES2    0.0000
    105 C39       -2.1669    8.3644   10.3147 C.3       2 RES2    0.0000
    106 H43       -1.7735    9.0637   10.8782 H         2 RES2    0.0000
    107 H44       -2.9997    8.0452   10.7227 H         2 RES2    0.0000
    108 H45       -2.3577    8.7301    9.4258 H         2 RES2    0.0000
    109 C40       -1.7478    6.0993    9.3262 C.3       2 RES2    0.0000
    110 H46       -1.0878    5.3773    9.2776 H         2 RES2    0.0000
    111 H47       -1.9280    6.4370    8.4227 H         2 RES2    0.0000
    112 H48       -2.5774    5.7568    9.7197 H         2 RES2    0.0000
    113 C41        3.7889    5.6871    9.4654 C.ar      2 RES2    0.0000
    114 C42        2.7457    4.9574    8.8995 C.ar      2 RES2    0.0000
    115 H49        2.5513    4.0830    9.2169 H         2 RES2    0.0000
    116 C43        4.0923    6.9367    8.9823 C.ar      2 RES2    0.0000
    117 H50        4.8192    7.4186    9.3602 H         2 RES2    0.0000
    118 C44        3.3560    7.5109    7.9484 C.ar      2 RES2    0.0000
    119 H51        3.5713    8.3716    7.6067 H         2 RES2    0.0000
    120 C45        2.3017    6.7783    7.4394 C.ar      2 RES2    0.0000
    121 C46        1.9893    5.5096    7.8692 C.ar      2 RES2    0.0000
    122 H52        1.2753    5.0229    7.4731 H         2 RES2    0.0000
    123 N7         1.4569    7.4221    6.4074 N.pl3     2 RES2    0.0000
    124 O19        0.5615    6.7604    5.9112 O.2       2 RES2    0.0000
    125 O20        1.7176    8.5729    6.0951 O.2       2 RES2    0.0000
    126 C47        6.6260    4.3695    9.3277 C.ar      2 RES2    0.0000
    127 C48        6.9441    3.4034    8.3836 C.ar      2 RES2    0.0000
    128 H53        6.4982    2.5642    8.3887 H         2 RES2    0.0000
    129 C49        7.9192    3.6756    7.4330 C.ar      2 RES2    0.0000
    130 H54        8.1547    3.0282    6.7785 H         2 RES2    0.0000
    131 C50        8.5328    4.8967    7.4598 C.ar      2 RES2    0.0000
    132 C51        8.2616    5.8533    8.4084 C.ar      2 RES2    0.0000
    133 H55        8.7234    6.6830    8.4130 H         2 RES2    0.0000
    134 C52        7.2885    5.5715    9.3653 C.ar      2 RES2    0.0000
    135 H56        7.0836    6.2077   10.0403 H         2 RES2    0.0000
    136 N8         9.4886    5.2368    6.3926 N.pl3     2 RES2    0.0000
    137 O21        9.7920    4.3689    5.5877 O.2       2 RES2    0.0000
    138 O22        9.9165    6.3840    6.3406 O.2       2 RES2    0.0000
@<TRIPOS>BOND
     1    1    2 1
     2    2    3 1
     3    3    4 1
     4    4    5 1
     5    6    1 1
     6    7    1 2
     7    8    3 1
     8    9    8 1
     9   10    8 1
    10   11   10 1
    11   12   10 1
    12   13   12 1
    13   14   12 1
    14   15   14 1
    15   16    8 1
    16   17   10 1
    17   18   17 1
    18   19   12 1
    19   20   18 1
    20   21   20 1
    21   22   20 1
    22   23   20 1
    23   24   18 1
    24   25   24 1
    25   26   24 1
    26   27   24 1
    27   28   14 1
    28   29   28 1
    29   30   28 1
    30   31   30 1
    31   32   31 1
    32   33   28 1
    33   34   33 1
    34   35   33 1
    35   36   31 1
    36   37   36 1
    37   38   36 1
    38   39   36 1
    39   40   31 1
    40   41   40 1
    41   42   40 1
    42   43   40 1
    43   44    4 1
    44   45   44 ar
    45   46   45 1
    46   47   45 ar
    47   48   47 1
    48   49   47 ar
    49   50   49 ar
    50   51   50 1
    51   52   44 ar
    52   53   52 1
    53   54   49 1
    54   55   54 2
    55   56   54 2
    56   57    6 1
    57   58   57 ar
    58   59   58 1
    59   60   58 ar
    60   61   60 1
    61   62   60 ar
    62   63   62 ar
    63   64   63 1
    64   65   57 ar
    65   66   65 1
    66   67   62 1
    67   68   67 2
    68   69   67 2
    69   70   71 1
    70   71   72 1
    71   72   73 1
    72   73   74 1
    73   75   70 1
    74   76   70 2
    75   77   72 1
    76   78   77 1
    77   79   77 1
    78   80   79 1
    79   81   79 1
    80   82   81 1
    81   83   81 1
    82   84   83 1
    83   85   77 1
    84   86   79 1
    85   87   86 1
    86   88   81 1
    87   89   87 1
    88   90   89 1
    89   91   89 1
    90   92   89 1
    91   93   87 1
    92   94   93 1
    93   95   93 1
    94   96   93 1
    95   97   83 1
    96   98   97 1
    97   99   97 1
    98  100   99 1
    99  101  100 1
   100  102   97 1
   101  103  102 1
   102  104  102 1
   103  105  100 1
   104  106  105 1
   105  107  105 1
   106  108  105 1
   107  109  100 1
   108  110  109 1
   109  111  109 1
   110  112  109 1
   111  113   73 1
   112  114  113 ar
   113  115  114 1
   114  116  113 ar
   115  117  116 1
   116  118  116 ar
   117  119  118 1
   118  120  118 ar
   119  121  114 ar
   120  122  121 1
   121  123  120 1
   122  124  123 2
   123  125  123 2
   124  126   75 1
   125  127  126 ar
   126  128  127 1
   127  129  127 ar
   128  130  129 1
   129  131  129 ar
   130  132  131 ar
   131  133  132 1
   132  134  126 ar
   133  135  134 1
   134  136  131 1
   135  137  136 2
   136  138  136 2
   137    4    6 1
   138   14   16 1
   139   18   19 1
   140   32   33 1
   141   50   52 ar
   142   63   65 ar
   143   73   75 1
   144   83   85 1
   145   87   88 1
   146  101  102 1
   147  120  121 ar
   148  132  134 ar
@<TRIPOS>SUBSTRUCTURE
     1 RES1 1
     2 RES2 70

@<TRIPOS>CRYSIN
  18.5560    5.9563   24.8546  90.0000 102.2680  90.0000   4 1

