# MOL2 file generated by ConQuest
# Please check atom types

@<TRIPOS>MOLECULE
JIRHEY
    58    60     1
SMALL
NO_CHARGES
****
Generated from CSD

@<TRIPOS>ATOM
      1 O1         1.4623    8.1034    0.7266 O.3       1 RES1    0.0000
      2 N1        -0.6081    9.2333    1.1024 N.3       1 RES1    0.0000
      3 N2         0.6213    9.1961    3.5964 N.2       1 RES1    0.0000
      4 C1         0.5568    8.1058    2.9022 C.2       1 RES1    0.0000
      5 C2         0.2125    8.0966    1.4345 C.3       1 RES1    0.0000
      6 C3        -0.4402   10.3734    1.8086 C.2       1 RES1    0.0000
      7 N3         1.2909    7.4237   -0.5290 N.2       1 RES1    0.0000
      8 C4         3.6542    8.0479   -0.7219 C.3       1 RES1    0.0000
      9 H1         3.8305    7.7617    0.1874 H         1 RES1    0.0000
     10 H2         3.5302    9.0097   -0.7064 H         1 RES1    0.0000
     11 C5         0.8485    6.8212    3.5578 C.ar      1 RES1    0.0000
     12 C6         2.3897    7.4172   -1.1777 C.2       1 RES1    0.0000
     13 C7         1.1949    5.6954    2.8370 C.ar      1 RES1    0.0000
     14 H3         1.2505    5.7423    1.9094 H         1 RES1    0.0000
     15 N4         4.5063    7.8893   -2.9966 N.3       1 RES1    0.0000
     16 C8         0.2205   10.3676    2.9972 C.2       1 RES1    0.0000
     17 C9        -1.0506   11.5880    1.3377 C.1       1 RES1    0.0000
     18 C10        2.3815    6.7694   -2.5229 C.3       1 RES1    0.0000
     19 H4         1.4649    6.6769   -2.8257 H         1 RES1    0.0000
     20 H5         2.7618    5.8795   -2.4508 H         1 RES1    0.0000
     21 C11        4.8747    7.7334   -1.5719 C.3       1 RES1    0.0000
     22 C12        1.4588    4.5027    3.4750 C.ar      1 RES1    0.0000
     23 H6         1.6765    3.7477    2.9781 H         1 RES1    0.0000
     24 C13       -1.4392    9.1567   -0.1079 C.3       1 RES1    0.0000
     25 H7        -0.8873    8.8713   -0.8519 H         1 RES1    0.0000
     26 H8        -1.7795   10.0413   -0.3133 H         1 RES1    0.0000
     27 C14        0.4006   11.5735    3.7527 C.1       1 RES1    0.0000
     28 C15        3.1702    7.5672   -3.5526 C.3       1 RES1    0.0000
     29 C16       -2.5968    8.2090    0.0329 C.3       1 RES1    0.0000
     30 H9        -3.1021    8.1970   -0.7834 H         1 RES1    0.0000
     31 H10       -3.1613    8.4975    0.7540 H         1 RES1    0.0000
     32 H11       -2.2670    7.3263    0.2182 H         1 RES1    0.0000
     33 C17        0.7761    6.7198    4.9375 C.ar      1 RES1    0.0000
     34 H12        0.5372    7.4635    5.4429 H         1 RES1    0.0000
     35 O2         5.3923    8.2977   -3.8130 O.2       1 RES1    0.0000
     36 N5        -1.5215   12.5704    1.0100 N.1       1 RES1    0.0000
     37 N6         0.5352   12.5268    4.3655 N.1       1 RES1    0.0000
     38 C18        1.0544    5.5328    5.5649 C.ar      1 RES1    0.0000
     39 H13        1.0086    5.4761    6.4920 H         1 RES1    0.0000
     40 C19        1.4004    4.4296    4.8296 C.ar      1 RES1    0.0000
     41 H14        1.5953    3.6283    5.2596 H         1 RES1    0.0000
     42 C20        3.3567    6.7241   -4.8100 C.3       1 RES1    0.0000
     43 H15        3.8069    5.9067   -4.5840 H         1 RES1    0.0000
     44 H16        3.8824    7.2128   -5.4485 H         1 RES1    0.0000
     45 H17        2.4979    6.5219   -5.1897 H         1 RES1    0.0000
     46 C21        5.3704    6.3140   -1.3387 C.3       1 RES1    0.0000
     47 H18        4.6698    5.6914   -1.5499 H         1 RES1    0.0000
     48 H19        5.6232    6.2107   -0.4183 H         1 RES1    0.0000
     49 H20        6.1302    6.1445   -1.9010 H         1 RES1    0.0000
     50 C22        2.4580    8.8665   -3.8760 C.3       1 RES1    0.0000
     51 H21        2.3611    9.3859   -3.0746 H         1 RES1    0.0000
     52 H22        1.5911    8.6738   -4.2399 H         1 RES1    0.0000
     53 H23        2.9706    9.3611   -4.5183 H         1 RES1    0.0000
     54 C23        5.9839    8.7167   -1.2378 C.3       1 RES1    0.0000
     55 H24        5.6743    9.6119   -1.3890 H         1 RES1    0.0000
     56 H25        6.7445    8.5424   -1.7961 H         1 RES1    0.0000
     57 H26        6.2342    8.6170   -0.3161 H         1 RES1    0.0000
     58 H27       -0.2763    7.2861    1.1736 H         1 RES1    0.0000
@<TRIPOS>BOND
     1    1    5 1
     2    2    5 1
     3    3    4 2
     4    4    5 1
     5    5   58 1
     6    6    2 1
     7    7    1 1
     8    8    9 1
     9   10    8 1
    10   11    4 1
    11   12    7 2
    12   13   11 ar
    13   14   13 1
    14   15   21 1
    15   16    3 1
    16   17    6 1
    17   18   12 1
    18   19   18 1
    19   20   18 1
    20   21    8 1
    21   22   13 ar
    22   23   22 1
    23   24    2 1
    24   25   24 1
    25   26   24 1
    26   27   16 1
    27   28   15 1
    28   29   24 1
    29   30   29 1
    30   31   29 1
    31   32   29 1
    32   33   11 ar
    33   34   33 1
    34   35   15 1
    35   36   17 3
    36   37   27 3
    37   38   33 ar
    38   39   38 1
    39   40   22 ar
    40   41   40 1
    41   42   28 1
    42   43   42 1
    43   44   42 1
    44   45   42 1
    45   46   21 1
    46   47   46 1
    47   48   46 1
    48   49   46 1
    49   50   28 1
    50   51   50 1
    51   52   50 1
    52   53   50 1
    53   54   21 1
    54   55   54 1
    55   56   54 1
    56   57   54 1
    57    6   16 2
    58    8   12 1
    59   18   28 1
    60   38   40 ar
@<TRIPOS>SUBSTRUCTURE
     1 RES1 1

@<TRIPOS>CRYSIN
  13.6160   11.8300   14.3560  90.0000 102.9940  90.0000 231 1

