# MOL2 file generated by ConQuest
# Please check atom types

@<TRIPOS>MOLECULE
JIRTEK
    38    41     1
SMALL
NO_CHARGES
****
Generated from CSD

@<TRIPOS>ATOM
      1 C1         3.4574    3.3650   20.4460 C.ar      1 RES1    0.0000
      2 H1         2.6763    3.4237   21.1107 H         1 RES1    0.0000
      3 C2         3.3410    3.9627   19.2035 C.ar      1 RES1    0.0000
      4 H2         2.4577    4.4265   19.0556 H         1 RES1    0.0000
      5 C3         4.3717    3.9762   18.2782 C.ar      1 RES1    0.0000
      6 H3         4.3135    4.4498   17.4323 H         1 RES1    0.0000
      7 C4         5.5782    3.3462   18.5612 C.ar      1 RES1    0.0000
      8 H4         6.3406    3.2673   17.8954 H         1 RES1    0.0000
      9 C5         5.7204    2.7222   19.8092 C.ar      1 RES1    0.0000
     10 C6         6.8503    2.0576   20.4095 C.ar      1 RES1    0.0000
     11 C7         8.1233    1.7118   19.9578 C.ar      1 RES1    0.0000
     12 H5         8.4104    1.9216   19.0315 H         1 RES1    0.0000
     13 C8         8.9970    1.0788   20.8264 C.ar      1 RES1    0.0000
     14 H6         9.8921    0.7992   20.4619 H         1 RES1    0.0000
     15 C9         8.6059    0.8037   22.1347 C.ar      1 RES1    0.0000
     16 H7         9.2725    0.3887   22.7679 H         1 RES1    0.0000
     17 C10        7.3513    1.1299   22.6157 C.ar      1 RES1    0.0000
     18 H8         7.0837    0.9307   23.6290 H         1 RES1    0.0000
     19 C11        6.4665    1.7396   21.7234 C.ar      1 RES1    0.0000
     20 N1         5.1397    2.1471   21.9333 N.pl3     1 RES1    0.0000
     21 C12        4.6847    2.7643   20.7550 C.ar      1 RES1    0.0000
     22 C13        4.5020    1.9298   23.1591 C.2       1 RES1    0.0000
     23 H9         5.0320    1.4141   23.7520 H         1 RES1    0.0000
     24 C14        3.3058    2.3200   23.5549 C.2       1 RES1    0.0000
     25 H10        2.7232    2.8515   22.9584 H         1 RES1    0.0000
     26 C15        2.7564    2.0291   24.8821 C.ar      1 RES1    0.0000
     27 C16        1.4371    2.4095   25.1650 C.ar      1 RES1    0.0000
     28 H11        0.8683    2.8403   24.4805 H         1 RES1    0.0000
     29 C17        0.9144    2.1411   26.4208 C.ar      1 RES1    0.0000
     30 C18        1.6150    1.5141   27.4211 C.ar      1 RES1    0.0000
     31 H12        1.2156    1.3953   28.3012 H         1 RES1    0.0000
     32 C19        2.9092    1.1585   27.1425 C.ar      1 RES1    0.0000
     33 H13        3.4611    0.7353   27.8068 H         1 RES1    0.0000
     34 C20        3.4715    1.4096   25.9024 C.ar      1 RES1    0.0000
     35 H14        4.4117    1.1781   25.7637 H         1 RES1    0.0000
     36 N2        -0.4956    2.5162   26.6798 N.pl3     1 RES1    0.0000
     37 O1        -1.1829    2.9132   25.7326 O.2       1 RES1    0.0000
     38 O2        -0.9217    2.3960   27.8330 O.2       1 RES1    0.0000
@<TRIPOS>BOND
     1    1    2 1
     2    3    1 ar
     3    4    3 1
     4    5    3 ar
     5    6    5 1
     6    7    5 ar
     7    8    7 1
     8    9    7 ar
     9   10    9 1
    10   11   10 ar
    11   12   11 1
    12   13   11 ar
    13   14   13 1
    14   15   13 ar
    15   16   15 1
    16   17   15 ar
    17   18   17 1
    18   19   10 ar
    19   20   19 1
    20   21    1 ar
    21   22   20 1
    22   23   22 1
    23   24   22 2
    24   25   24 1
    25   26   24 1
    26   27   26 ar
    27   28   27 1
    28   29   27 ar
    29   30   29 ar
    30   31   30 1
    31   32   30 ar
    32   33   32 1
    33   34   26 ar
    34   35   34 1
    35   36   29 1
    36   37   36 2
    37   38   36 2
    38    9   21 ar
    39   17   19 ar
    40   20   21 1
    41   32   34 ar
@<TRIPOS>SUBSTRUCTURE
     1 RES1 1

@<TRIPOS>CRYSIN
   8.1085    7.5179   24.1220  90.0000  90.5070  90.0000  14 1

