# MOL2 file generated by ConQuest
# Please check atom types

@<TRIPOS>MOLECULE
JIRTAG
    38    41     1
SMALL
NO_CHARGES
****
Generated from CSD

@<TRIPOS>ATOM
      1 C1         0.5759    2.0191   25.7530 C.ar      1 RES1    0.0000
      2 H1         1.3696    2.2509   26.1784 H         1 RES1    0.0000
      3 C2        -0.3586    1.2233   26.3802 C.ar      1 RES1    0.0000
      4 H2        -0.1954    0.9298   27.2476 H         1 RES1    0.0000
      5 C3        -1.5372    0.8501   25.7533 C.ar      1 RES1    0.0000
      6 H3        -2.1505    0.3160   26.2035 H         1 RES1    0.0000
      7 C4        -1.8046    1.2628   24.4737 C.ar      1 RES1    0.0000
      8 H4        -2.5928    1.0042   24.0513 H         1 RES1    0.0000
      9 C5        -0.8906    2.0679   23.8138 C.ar      1 RES1    0.0000
     10 C6        -0.8750    2.6619   22.4937 C.ar      1 RES1    0.0000
     11 C7        -1.7678    2.6588   21.4304 C.ar      1 RES1    0.0000
     12 H5        -2.5593    2.1738   21.4832 H         1 RES1    0.0000
     13 C8        -1.4681    3.3806   20.2974 C.ar      1 RES1    0.0000
     14 H6        -2.0622    3.3832   19.5822 H         1 RES1    0.0000
     15 C9        -0.2889    4.1035   20.2139 C.ar      1 RES1    0.0000
     16 H7        -0.1031    4.5831   19.4398 H         1 RES1    0.0000
     17 C10        0.6138    4.1257   21.2520 C.ar      1 RES1    0.0000
     18 H8         1.4006    4.6186   21.1929 H         1 RES1    0.0000
     19 C11        0.3153    3.3943   22.3873 C.ar      1 RES1    0.0000
     20 N1         1.0330    3.2800   23.5902 N.pl3     1 RES1    0.0000
     21 C12        0.2956    2.4637   24.4673 C.ar      1 RES1    0.0000
     22 C13        2.2001    4.0256   23.8406 C.2       1 RES1    0.0000
     23 H9         2.6136    4.3805   23.0855 H         1 RES1    0.0000
     24 C14        2.7799    4.2905   24.9706 C.2       1 RES1    0.0000
     25 H10        2.3763    3.9615   25.7402 H         1 RES1    0.0000
     26 C15        4.0200    5.0629   25.1353 C.ar      1 RES1    0.0000
     27 C16        4.5024    5.2766   26.4098 C.ar      1 RES1    0.0000
     28 H11        4.0237    4.9528   27.1387 H         1 RES1    0.0000
     29 C17        5.6663    5.9501   26.6259 C.ar      1 RES1    0.0000
     30 H12        5.9831    6.0739   27.4904 H         1 RES1    0.0000
     31 C18        6.3676    6.4450   25.5582 C.ar      1 RES1    0.0000
     32 C19        5.9195    6.2966   24.2721 C.ar      1 RES1    0.0000
     33 H13        6.3932    6.6574   23.5572 H         1 RES1    0.0000
     34 C20        4.7372    5.5939   24.0603 C.ar      1 RES1    0.0000
     35 H14        4.4211    5.4748   23.1943 H         1 RES1    0.0000
     36 N2         7.6252    7.1587   25.8072 N.pl3     1 RES1    0.0000
     37 O1         8.0544    7.1983   26.9433 O.2       1 RES1    0.0000
     38 O2         8.1822    7.6833   24.8567 O.2       1 RES1    0.0000
@<TRIPOS>BOND
     1    1    2 1
     2    3    1 ar
     3    4    3 1
     4    5    3 ar
     5    6    5 1
     6    7    5 ar
     7    8    7 1
     8    9    7 ar
     9   10    9 1
    10   11   10 ar
    11   12   11 1
    12   13   11 ar
    13   14   13 1
    14   15   13 ar
    15   16   15 1
    16   17   15 ar
    17   18   17 1
    18   19   10 ar
    19   20   19 1
    20   21    1 ar
    21   22   20 1
    22   23   22 1
    23   24   22 2
    24   25   24 1
    25   26   24 1
    26   27   26 ar
    27   28   27 1
    28   29   27 ar
    29   30   29 1
    30   31   29 ar
    31   32   31 ar
    32   33   32 1
    33   34   26 ar
    34   35   34 1
    35   36   31 1
    36   37   36 2
    37   38   36 2
    38    9   21 ar
    39   17   19 ar
    40   20   21 1
    41   32   34 ar
@<TRIPOS>SUBSTRUCTURE
     1 RES1 1

@<TRIPOS>CRYSIN
   6.2627    8.6572   27.9430  90.0000  92.5780  90.0000 231 1

