# MOL2 file generated by ConQuest
# Please check atom types

@<TRIPOS>MOLECULE
JITLUT
    36    37     1
SMALL
NO_CHARGES
****
Generated from CSD

@<TRIPOS>ATOM
      1 O1         6.6910    2.7984    6.5778 O.3       1 RES1    0.0000
      2 C1         8.0143    2.6302    8.4997 C.ar      1 RES1    0.0000
      3 N1         6.0109    1.2038    8.1825 N.3       1 RES1    0.0000
      4 C2         6.6002    2.5296    7.9656 C.3       1 RES1    0.0000
      5 C3         5.3988    2.8544    5.9608 C.3       1 RES1    0.0000
      6 C4         8.3648    3.6360    9.3724 C.ar      1 RES1    0.0000
      7 C5         8.9798    1.7232    8.0704 C.ar      1 RES1    0.0000
      8 C6         9.6626    3.7300    9.8399 C.ar      1 RES1    0.0000
      9 C7        10.5877    2.8000    9.4340 C.ar      1 RES1    0.0000
     10 C8        10.2677    1.7974    8.5474 C.ar      1 RES1    0.0000
     11 C9         4.6546    1.1922    7.6161 C.3       1 RES1    0.0000
     12 N2        11.9555    2.8956    9.9462 N.pl3     1 RES1    0.0000
     13 C10        4.6886    1.5600    6.1513 C.3       1 RES1    0.0000
     14 C11        6.0849    0.7453    9.5893 C.3       1 RES1    0.0000
     15 C12        5.8114   -0.7453    9.6633 C.3       1 RES1    0.0000
     16 O2        12.7671    2.0629    9.6179 O.2       1 RES1    0.0000
     17 O3        12.2246    3.8108   10.7053 O.2       1 RES1    0.0000
     18 C13        5.2029    1.5022   10.5778 C.3       1 RES1    0.0000
     19 H1        10.9457    1.1708    8.2433 H         1 RES1    0.0000
     20 H2         8.7408    1.0059    7.4446 H         1 RES1    0.0000
     21 H3         6.0374    3.1496    8.4558 H         1 RES1    0.0000
     22 H4         5.4811    3.0836    5.0266 H         1 RES1    0.0000
     23 H5         4.8633    3.5618    6.3602 H         1 RES1    0.0000
     24 H6         5.1678    0.8575    5.6567 H         1 RES1    0.0000
     25 H7         3.7959    1.5830    5.7740 H         1 RES1    0.0000
     26 H8         4.0984    1.8304    8.0967 H         1 RES1    0.0000
     27 H9         4.2569    0.3133    7.7597 H         1 RES1    0.0000
     28 H10        6.9947    0.9070    9.8993 H         1 RES1    0.0000
     29 H11        5.8629   -1.0718   10.5661 H         1 RES1    0.0000
     30 H12        4.9210   -0.9399    9.3424 H         1 RES1    0.0000
     31 H13        6.4345   -1.2532    9.1372 H         1 RES1    0.0000
     32 H14        5.2927    1.1708   11.4600 H         1 RES1    0.0000
     33 H15        5.4014    2.4240   10.5734 H         1 RES1    0.0000
     34 H16        4.2701    1.4017   10.3096 H         1 RES1    0.0000
     35 H17        7.7057    4.2874    9.6501 H         1 RES1    0.0000
     36 H18        9.9082    4.4523   10.4562 H         1 RES1    0.0000
@<TRIPOS>BOND
     1    1    4 1
     2    2    4 1
     3    3    4 1
     4    4   21 1
     5    5    1 1
     6    6    2 ar
     7    7    2 ar
     8    8    6 ar
     9    9    8 ar
    10   10    7 ar
    11   11    3 1
    12   12    9 1
    13   13    5 1
    14   14    3 1
    15   15   14 1
    16   16   12 2
    17   17   12 2
    18   18   14 1
    19   19   10 1
    20   20    7 1
    21   22    5 1
    22   23    5 1
    23   24   13 1
    24   25   13 1
    25   26   11 1
    26   27   11 1
    27   28   14 1
    28   29   15 1
    29   30   15 1
    30   31   15 1
    31   32   18 1
    32   33   18 1
    33   34   18 1
    34   35    6 1
    35   36    8 1
    36    9   10 ar
    37   11   13 1
@<TRIPOS>SUBSTRUCTURE
     1 RES1 1

@<TRIPOS>CRYSIN
  11.1960   16.4900    7.7330  90.0000 108.6400  90.0000  14 1

