# MOL2 file generated by ConQuest
# Please check atom types

@<TRIPOS>MOLECULE
JITWUE
    40    41     1
SMALL
NO_CHARGES
****
Generated from CSD

@<TRIPOS>ATOM
      1 O1        -0.1371    3.1272   -0.9462 O.2       1 RES1    0.0000
      2 O2         0.4228    4.8646   -2.7328 O.3       1 RES1    0.0000
      3 O3         1.1779    4.9682    1.6522 O.2       1 RES1    0.0000
      4 O4         2.7796    4.6173    3.0466 O.2       1 RES1    0.0000
      5 N1         1.9787    4.2370    2.2071 N.pl3     1 RES1    0.0000
      6 C1         1.0117    3.2956   -0.4923 C.2       1 RES1    0.0000
      7 C2         1.9309    4.2231   -1.0597 C.2       1 RES1    0.0000
      8 C3         1.5944    4.9806   -2.1339 C.2       1 RES1    0.0000
      9 C4         2.4648    6.0286   -2.7279 C.ar      1 RES1    0.0000
     10 C5         3.5773    5.6824   -3.4925 C.ar      1 RES1    0.0000
     11 C6         4.3376    6.7010   -4.0601 C.ar      1 RES1    0.0000
     12 C7         4.0333    8.0351   -3.8673 C.ar      1 RES1    0.0000
     13 C8         2.9406    8.3473   -3.0911 C.ar      1 RES1    0.0000
     14 C9         2.1356    7.3766   -2.5122 C.ar      1 RES1    0.0000
     15 C10        1.4459    2.3991    0.6322 C.ar      1 RES1    0.0000
     16 C11        1.3794    1.0295    0.4034 C.ar      1 RES1    0.0000
     17 C12        1.8281    0.1298    1.3557 C.ar      1 RES1    0.0000
     18 C13        2.3662    0.5642    2.5244 C.ar      1 RES1    0.0000
     19 C14        2.4389    1.9137    2.7873 C.ar      1 RES1    0.0000
     20 C15        1.9694    2.8072    1.8462 C.ar      1 RES1    0.0000
     21 C16        3.9533    4.2510   -3.7424 C.3       1 RES1    0.0000
     22 C17        4.8777    9.1202   -4.4940 C.3       1 RES1    0.0000
     23 C18        0.9587    7.7661   -1.6528 C.3       1 RES1    0.0000
     24 H1        -0.0208    4.2510   -2.2234 H         1 RES1    0.0000
     25 H2         2.8045    4.3437   -0.6434 H         1 RES1    0.0000
     26 H3         5.1000    6.4924   -4.6121 H         1 RES1    0.0000
     27 H4         2.7629    9.2593   -2.9435 H         1 RES1    0.0000
     28 H5         0.9556    0.7729   -0.4132 H         1 RES1    0.0000
     29 H6         1.8385   -0.8038    1.0822 H         1 RES1    0.0000
     30 H7         2.6798   -0.0309    3.3056 H         1 RES1    0.0000
     31 H8         2.7733    2.2414    3.6637 H         1 RES1    0.0000
     32 H9         4.1860    3.8181   -2.9120 H         1 RES1    0.0000
     33 H10        4.6430    4.2046   -4.3877 H         1 RES1    0.0000
     34 H11        3.2096    3.8027   -3.9942 H         1 RES1    0.0000
     35 H12        5.3597    9.5840   -3.8958 H         1 RES1    0.0000
     36 H13        4.3625    9.7231   -4.9584 H         1 RES1    0.0000
     37 H14        5.5467    8.7492   -5.1158 H         1 RES1    0.0000
     38 H15        0.8206    7.2189   -0.9444 H         1 RES1    0.0000
     39 H16        1.0699    8.6874   -1.4167 H         1 RES1    0.0000
     40 H17        0.2389    7.6826   -2.1644 H         1 RES1    0.0000
@<TRIPOS>BOND
     1    1    6 2
     2    2    8 1
     3    3    5 2
     4    4    5 2
     5    5   20 1
     6    6    7 1
     7    7    8 2
     8    8    9 1
     9    9   10 ar
    10   10   11 ar
    11   11   12 ar
    12   12   13 ar
    13   13   14 ar
    14   14    9 ar
    15   15    6 1
    16   16   15 ar
    17   17   16 ar
    18   18   17 ar
    19   19   18 ar
    20   20   15 ar
    21   21   10 1
    22   22   12 1
    23   23   14 1
    24   24    2 1
    25   25    7 1
    26   26   11 1
    27   27   13 1
    28   28   16 1
    29   29   17 1
    30   30   18 1
    31   31   19 1
    32   32   21 1
    33   33   21 1
    34   34   21 1
    35   35   22 1
    36   36   22 1
    37   37   22 1
    38   38   23 1
    39   39   23 1
    40   40   23 1
    41   19   20 ar
@<TRIPOS>SUBSTRUCTURE
     1 RES1 1

@<TRIPOS>CRYSIN
  10.3870   15.4580   19.6760  90.0000  90.0000  90.0000  61 1

