# MOL2 file generated by ConQuest
# Please check atom types

@<TRIPOS>MOLECULE
JITWOY
    40    41     1
SMALL
NO_CHARGES
****
Generated from CSD

@<TRIPOS>ATOM
      1 O1         6.7068    3.9219    8.1897 O.2       1 RES1    0.0000
      2 O2         4.9310    4.3589    9.8830 O.3       1 RES1    0.0000
      3 O3        10.7273    2.1631    6.1485 O.2       1 RES1    0.0000
      4 O4        10.6499    0.4615    4.8404 O.2       1 RES1    0.0000
      5 N1        10.1155    1.3000    5.5526 N.pl3     1 RES1    0.0000
      6 C1         6.0602    2.8778    7.8363 C.2       1 RES1    0.0000
      7 C2         4.8537    2.5361    8.4627 C.2       1 RES1    0.0000
      8 C3         4.3509    3.2739    9.5047 C.2       1 RES1    0.0000
      9 C4         3.1385    2.8628   10.2683 C.ar      1 RES1    0.0000
     10 C5         3.2563    1.9235   11.2923 C.ar      1 RES1    0.0000
     11 C6         2.1078    1.5464   11.9796 C.ar      1 RES1    0.0000
     12 C7         0.8717    2.0678   11.6886 C.ar      1 RES1    0.0000
     13 C8         0.7815    2.9989   10.6812 C.ar      1 RES1    0.0000
     14 C9         1.8936    3.4264    9.9565 C.ar      1 RES1    0.0000
     15 C10        6.6792    2.0256    6.7956 C.ar      1 RES1    0.0000
     16 C11        5.9394    1.1435    6.0265 C.ar      1 RES1    0.0000
     17 C12        6.5691    0.3213    5.1092 C.ar      1 RES1    0.0000
     18 C13        7.9305    0.3635    4.9457 C.ar      1 RES1    0.0000
     19 C14        8.6511    1.2524    5.7009 C.ar      1 RES1    0.0000
     20 C15        8.0532    2.0923    6.6127 C.ar      1 RES1    0.0000
     21 C16        4.5834    1.3300   11.6817 C.3       1 RES1    0.0000
     22 C17       -0.3437    1.6268   12.4633 C.3       1 RES1    0.0000
     23 C18        1.7685    4.4773    8.8895 C.3       1 RES1    0.0000
     24 H1         5.8570    4.3970    9.1181 H         1 RES1    0.0000
     25 H2         4.4243    1.7697    8.1620 H         1 RES1    0.0000
     26 H3         2.1878    0.9257   12.7072 H         1 RES1    0.0000
     27 H4        -0.0258    3.4169   10.4623 H         1 RES1    0.0000
     28 H5         5.0183    1.1571    6.1111 H         1 RES1    0.0000
     29 H6         6.0230   -0.2450    4.6006 H         1 RES1    0.0000
     30 H7         8.4001   -0.2042    4.3373 H         1 RES1    0.0000
     31 H8         8.5791    2.6681    7.1088 H         1 RES1    0.0000
     32 H9         5.0540    1.1027   11.0166 H         1 RES1    0.0000
     33 H10        4.5221    0.7215   12.4439 H         1 RES1    0.0000
     34 H11        5.0075    1.8922   12.2360 H         1 RES1    0.0000
     35 H12       -0.1351    1.4430   13.4277 H         1 RES1    0.0000
     36 H13       -0.9182    2.2598   12.4854 H         1 RES1    0.0000
     37 H14       -0.7364    0.8440   12.1390 H         1 RES1    0.0000
     38 H15        0.8631    4.8054    8.8271 H         1 RES1    0.0000
     39 H16        2.2134    5.2818    9.1320 H         1 RES1    0.0000
     40 H17        1.9485    4.1384    8.0234 H         1 RES1    0.0000
@<TRIPOS>BOND
     1    1    6 2
     2    2    8 1
     3    3    5 2
     4    4    5 2
     5    5   19 1
     6    6    7 1
     7    7    8 2
     8    8    9 1
     9    9   10 ar
    10   10   11 ar
    11   11   12 ar
    12   12   13 ar
    13   13   14 ar
    14   14    9 ar
    15   15    6 1
    16   16   15 ar
    17   17   16 ar
    18   18   17 ar
    19   19   18 ar
    20   20   15 ar
    21   21   10 1
    22   22   12 1
    23   23   14 1
    24   24    2 1
    25   25    7 1
    26   26   11 1
    27   27   13 1
    28   28   16 1
    29   29   17 1
    30   30   18 1
    31   31   20 1
    32   32   21 1
    33   33   21 1
    34   34   21 1
    35   35   22 1
    36   36   22 1
    37   37   22 1
    38   38   23 1
    39   39   23 1
    40   40   23 1
    41   19   20 ar
@<TRIPOS>SUBSTRUCTURE
     1 RES1 1

@<TRIPOS>CRYSIN
   8.5520   13.6130   13.8640  90.0000  91.7800  90.0000 231 1

