# MOL2 file generated by ConQuest
# Please check atom types

@<TRIPOS>MOLECULE
JITWUE04
    44    41     2
SMALL
NO_CHARGES
****
Generated from CSD

@<TRIPOS>ATOM
      1 O1         5.0684    4.5987    0.9401 O.2       1 RES1    0.0000
      2 H1         4.8523    3.9408    1.3795 Du        2 SUP2    0.0000
      3 O2         5.6256    2.8641    2.7325 O.3       1 RES1    0.0000
      4 H2         5.1959    3.4287    2.2914 H         1 RES1    0.0000
      5 O3         6.3928    2.7621   -1.6647 O.2       1 RES1    0.0000
      6 O4         7.9976    3.1158   -3.0450 O.2       1 RES1    0.0000
      7 N1         7.1935    3.4967   -2.2039 N.pl3     1 RES1    0.0000
      8 C1         6.2205    4.4376    0.4919 C.2       1 RES1    0.0000
      9 C2         7.1396    3.5062    1.0602 C.2       1 RES1    0.0000
     10 C3         6.8022    2.7437    2.1318 C.2       1 RES1    0.0000
     11 C4         7.6756    1.6976    2.7233 C.ar      1 RES1    0.0000
     12 C5         7.3458    0.3534    2.5124 C.ar      1 RES1    0.0000
     13 C6         8.1528   -0.6231    3.0920 C.ar      1 RES1    0.0000
     14 C7         9.2491   -0.3096    3.8596 C.ar      1 RES1    0.0000
     15 C8         9.5565    1.0253    4.0476 C.ar      1 RES1    0.0000
     16 C9         8.7954    2.0433    3.4860 C.ar      1 RES1    0.0000
     17 C10        6.6558    5.3356   -0.6273 C.ar      1 RES1    0.0000
     18 C11        6.5849    6.7009   -0.4062 C.ar      1 RES1    0.0000
     19 C12        7.0410    7.6012   -1.3508 C.ar      1 RES1    0.0000
     20 C13        7.5762    7.1606   -2.5246 C.ar      1 RES1    0.0000
     21 C14        7.6526    5.8176   -2.7819 C.ar      1 RES1    0.0000
     22 C15        7.1866    4.9247   -1.8437 C.ar      1 RES1    0.0000
     23 C16        6.1622   -0.0418    1.6629 C.3       1 RES1    0.0000
     24 C17        9.1683    3.4772    3.7352 C.3       1 RES1    0.0000
     25 C18       10.0950   -1.3948    4.4929 C.3       1 RES1    0.0000
     26 H3         8.0094    3.4132    0.6701 H         1 RES1    0.0000
     27 H4         7.9448   -1.5906    2.9222 H         1 RES1    0.0000
     28 H5        10.3428    1.2409    4.6122 H         1 RES1    0.0000
     29 H6         6.2476    6.9935    0.4402 H         1 RES1    0.0000
     30 H7         7.0285    8.5098   -1.1418 H         1 RES1    0.0000
     31 H8         7.8928    7.7810   -3.1953 H         1 RES1    0.0000
     32 H9         7.9969    5.4540   -3.5962 H         1 RES1    0.0000
     33 H10        6.2267   -0.9438    1.4287 H         1 RES1    0.0000
     34 H11        6.0601    0.4642    0.8254 H         1 RES1    0.0000
     35 H12        5.3521    0.1083    2.1479 H         1 RES1    0.0000
     36 H13       10.5896   -1.8257    3.7338 H         1 RES1    0.0000
     37 H14        9.4338   -2.1197    4.8539 H         1 RES1    0.0000
     38 H15       10.7562   -0.9438    5.2470 Du        2 SUP2    0.0000
     39 H16        9.8920   -2.2435    4.0679 Du        2 SUP2    0.0000
     40 H17        9.9024   -1.5472    5.4828 Du        2 SUP2    0.0000
     41 H18       10.9749   -1.2533    4.3233 H         1 RES1    0.0000
     42 H19        9.4130    3.9331    2.9654 H         1 RES1    0.0000
     43 H20        9.9336    3.5153    4.3587 H         1 RES1    0.0000
     44 H21        8.4550    4.0011    4.0482 H         1 RES1    0.0000
@<TRIPOS>BOND
     1    1    8 2
     2    3    4 1
     3    5    7 2
     4    6    7 2
     5    7   22 1
     6    8    9 1
     7    9   10 2
     8   10    3 1
     9   11   10 1
    10   12   11 ar
    11   13   12 ar
    12   14   13 ar
    13   15   14 ar
    14   16   11 ar
    15   17    8 1
    16   18   17 ar
    17   19   18 ar
    18   20   19 ar
    19   21   20 ar
    20   22   17 ar
    21   23   12 1
    22   24   16 1
    23   25   14 1
    24   26    9 1
    25   27   13 1
    26   28   15 1
    27   29   18 1
    28   30   19 1
    29   31   20 1
    30   32   21 1
    31   33   23 1
    32   34   23 1
    33   35   23 1
    34   36   25 1
    35   37   25 1
    36   41   25 1
    37   42   24 1
    38   43   24 1
    39   44   24 1
    40   15   16 ar
    41   21   22 ar
@<TRIPOS>SUBSTRUCTURE
     1 RES1 1
     2 SUP2 2

@<TRIPOS>CRYSIN
  10.4126   15.4723   19.6515  90.0000  90.0000  90.0000  61 1

