# MOL2 file generated by ConQuest
# Please check atom types

@<TRIPOS>MOLECULE
JITWUE03
    44    41     2
SMALL
NO_CHARGES
****
Generated from CSD

@<TRIPOS>ATOM
      1 O1         5.0778    4.5456    0.9250 O.2       1 RES1    0.0000
      2 H1         4.8712    3.8875    1.3667 Du        2 SUP2    0.0000
      3 O2         5.6326    2.7735    2.6847 O.3       1 RES1    0.0000
      4 H2         5.2005    3.3860    2.2559 H         1 RES1    0.0000
      5 O3         6.4481    2.7575   -1.6828 O.2       1 RES1    0.0000
      6 O4         8.0670    3.1472   -3.0601 O.2       1 RES1    0.0000
      7 N1         7.2542    3.5081   -2.2136 N.pl3     1 RES1    0.0000
      8 C1         6.2301    4.4011    0.4808 C.2       1 RES1    0.0000
      9 C2         7.1679    3.4653    1.0377 C.2       1 RES1    0.0000
     10 C3         6.8229    2.6775    2.0918 C.2       1 RES1    0.0000
     11 C4         7.6948    1.6231    2.6698 C.ar      1 RES1    0.0000
     12 C5         7.3362    0.2775    2.4780 C.ar      1 RES1    0.0000
     13 C6         8.1344   -0.7070    3.0487 C.ar      1 RES1    0.0000
     14 C7         9.2579   -0.4035    3.8028 C.ar      1 RES1    0.0000
     15 C8         9.5944    0.9329    3.9708 C.ar      1 RES1    0.0000
     16 C9         8.8378    1.9582    3.4063 C.ar      1 RES1    0.0000
     17 C10        6.6742    5.3217   -0.6205 C.ar      1 RES1    0.0000
     18 C11        6.5843    6.6941   -0.3748 C.ar      1 RES1    0.0000
     19 C12        7.0400    7.6189   -1.3068 C.ar      1 RES1    0.0000
     20 C13        7.5994    7.1953   -2.4889 C.ar      1 RES1    0.0000
     21 C14        7.6947    5.8435   -2.7645 C.ar      1 RES1    0.0000
     22 C15        7.2269    4.9336   -1.8366 C.ar      1 RES1    0.0000
     23 C16        6.1406   -0.1000    1.6435 C.3       1 RES1    0.0000
     24 C17        9.2423    3.3904    3.6311 C.3       1 RES1    0.0000
     25 C18       10.0898   -1.4978    4.4231 C.3       1 RES1    0.0000
     26 H3         8.0520    3.3660    0.6418 H         1 RES1    0.0000
     27 H4         7.9186   -1.6784    2.9054 H         1 RES1    0.0000
     28 H5        10.3854    1.1722    4.5002 H         1 RES1    0.0000
     29 H6         6.2094    6.9873    0.4794 H         1 RES1    0.0000
     30 H7         6.9837    8.5595   -1.1096 H         1 RES1    0.0000
     31 H8         7.9321    7.8272   -3.1625 H         1 RES1    0.0000
     32 H9         8.0509    5.5243   -3.5897 H         1 RES1    0.0000
     33 H10        6.1698   -1.0061    1.4363 H         1 RES1    0.0000
     34 H11        6.0968    0.4415    0.8196 H         1 RES1    0.0000
     35 H12        5.3464    0.0415    2.1457 H         1 RES1    0.0000
     36 H13       10.7554   -1.8768    3.7309 H         1 RES1    0.0000
     37 H14        9.4631   -2.3076    4.7361 H         1 RES1    0.0000
     38 H15       10.5991   -1.1230    5.2193 H         1 RES1    0.0000
     39 H16       10.0467   -2.3229    3.9048 Du        2 SUP2    0.0000
     40 H17        9.8591   -1.6461    5.3547 Du        2 SUP2    0.0000
     41 H18       11.0264   -1.2615    4.4848 Du        2 SUP2    0.0000
     42 H19        9.5048    3.8321    2.8320 H         1 RES1    0.0000
     43 H20        9.9883    3.4290    4.2702 H         1 RES1    0.0000
     44 H21        8.5345    3.8998    4.0034 H         1 RES1    0.0000
@<TRIPOS>BOND
     1    1    8 2
     2    3    4 1
     3    5    7 2
     4    6    7 2
     5    7   22 1
     6    8    9 1
     7    9   10 2
     8   10    3 1
     9   11   10 1
    10   12   11 ar
    11   13   12 ar
    12   14   13 ar
    13   15   14 ar
    14   16   11 ar
    15   17    8 1
    16   18   17 ar
    17   19   18 ar
    18   20   19 ar
    19   21   20 ar
    20   22   17 ar
    21   23   12 1
    22   24   16 1
    23   25   14 1
    24   26    9 1
    25   27   13 1
    26   28   15 1
    27   29   18 1
    28   30   19 1
    29   31   20 1
    30   32   21 1
    31   33   23 1
    32   34   23 1
    33   35   23 1
    34   36   25 1
    35   37   25 1
    36   38   25 1
    37   42   24 1
    38   43   24 1
    39   44   24 1
    40   15   16 ar
    41   21   22 ar
@<TRIPOS>SUBSTRUCTURE
     1 RES1 1
     2 SUP2 2

@<TRIPOS>CRYSIN
  10.4219   15.3837   19.3309  90.0000  90.0000  90.0000  61 1

