# MOL2 file generated by ConQuest
# Please check atom types

@<TRIPOS>MOLECULE
JIVYIW
   108   116     2
SMALL
NO_CHARGES
****
Generated from CSD

@<TRIPOS>ATOM
      1 C1        14.1063    2.7320   12.7428 C.3       1 RES1    0.0000
      2 C2        14.7251    2.5758   14.0901 C.2       1 RES1    0.0000
      3 C3        16.1105    2.3652   14.3167 C.2       1 RES1    0.0000
      4 N1        16.3381    2.2814   15.5962 N.2       1 RES1    0.0000
      5 N2        14.0893    2.5803   15.2247 N.2       1 RES1    0.0000
      6 O1        15.0841    2.4058   16.1882 O.3       1 RES1    0.0000
      7 C4        17.0930    2.2452   13.2160 C.3       1 RES1    0.0000
      8 C5        16.3384    1.9482   11.9057 C.3       1 RES1    0.0000
      9 C6        17.3216    1.8454   10.7464 C.3       1 RES1    0.0000
     10 C7        16.6222    1.4938    9.4422 C.3       1 RES1    0.0000
     11 C8        15.5295    2.5092    9.1062 C.3       1 RES1    0.0000
     12 C9        14.5176    2.6203   10.2685 C.3       1 RES1    0.0000
     13 C10       15.1699    2.9503   11.6390 C.3       1 RES1    0.0000
     14 C11       13.3583    3.5728    9.9062 C.3       1 RES1    0.0000
     15 C12       12.6814    3.2276    8.5697 C.3       1 RES1    0.0000
     16 C13       13.7018    3.1533    7.4335 C.3       1 RES1    0.0000
     17 C14       14.7701    2.1240    7.8451 C.3       1 RES1    0.0000
     18 C15       15.5463    1.8549    6.5502 C.3       1 RES1    0.0000
     19 C16       14.4752    1.9558    5.4433 C.3       1 RES1    0.0000
     20 C17       13.1987    2.5644    6.0785 C.3       1 RES1    0.0000
     21 C18       14.3186    4.5361    7.1638 C.3       1 RES1    0.0000
     22 C19       15.6683    4.3971   11.6945 C.3       1 RES1    0.0000
     23 C20       12.1039    1.5142    6.2296 C.3       1 RES1    0.0000
     24 O2        12.7111    3.5823    5.1844 O.3       1 RES1    0.0000
     25 C21        8.8533    3.7181    3.9203 C.3       2 RES2    0.0000
     26 C22        8.9989    4.2937    5.2830 C.2       2 RES2    0.0000
     27 C23        7.8971    4.6142    6.1324 C.2       2 RES2    0.0000
     28 O3         9.7213    5.1263    7.1237 O.3       2 RES2    0.0000
     29 N3         8.3440    5.1257    7.2393 N.2       2 RES2    0.0000
     30 N4        10.1033    4.5977    5.8966 N.2       2 RES2    0.0000
     31 C24        6.4943    4.3502    5.7578 C.3       2 RES2    0.0000
     32 C25        6.3787    4.0138    4.2548 C.3       2 RES2    0.0000
     33 C26        4.9733    3.5214    3.9495 C.3       2 RES2    0.0000
     34 C27        4.7706    3.3215    2.4511 C.3       2 RES2    0.0000
     35 C28        5.8133    2.3677    1.8669 C.3       2 RES2    0.0000
     36 C29        7.2471    2.8303    2.2137 C.3       2 RES2    0.0000
     37 C30        7.4752    3.0391    3.7384 C.3       2 RES2    0.0000
     38 C31        8.3193    1.9546    1.5354 C.3       2 RES2    0.0000
     39 C32        8.1086    1.8378    0.0185 C.3       2 RES2    0.0000
     40 C33        6.7029    1.3403   -0.3068 C.3       2 RES2    0.0000
     41 C34        5.6953    2.2985    0.3453 C.3       2 RES2    0.0000
     42 C35        4.3461    1.9197   -0.2837 C.3       2 RES2    0.0000
     43 C36        4.7118    1.4044   -1.6865 C.3       2 RES2    0.0000
     44 C37        6.2582    1.4037   -1.7929 C.3       2 RES2    0.0000
     45 C38        6.5403   -0.1098    0.1757 C.3       2 RES2    0.0000
     46 C39        7.4808    1.7153    4.5153 C.3       2 RES2    0.0000
     47 C40        6.7424    2.6361   -2.5405 C.3       2 RES2    0.0000
     48 O4         6.7644    0.2431   -2.4727 O.3       2 RES2    0.0000
     49 H1        13.5003    3.4884   12.7566 H         1 RES1    0.0000
     50 H2        13.5892    1.9381   12.5362 H         1 RES1    0.0000
     51 H3        17.7175    1.5281   13.4087 H         1 RES1    0.0000
     52 H4        17.5935    3.0715   13.1297 H         1 RES1    0.0000
     53 H5        15.9321    1.0623   12.0105 H         1 RES1    0.0000
     54 H6        17.7839    2.6920   10.6431 H         1 RES1    0.0000
     55 H7        17.9842    1.1658   10.9468 H         1 RES1    0.0000
     56 H8        16.2285    0.6105    9.5178 H         1 RES1    0.0000
     57 H9        17.2738    1.4723    8.7238 H         1 RES1    0.0000
     58 H10       15.9455    3.3850    8.9674 H         1 RES1    0.0000
     59 H11       14.1183    1.7312   10.3656 H         1 RES1    0.0000
     60 H12       12.6919    3.5404   10.6123 H         1 RES1    0.0000
     61 H13       13.6979    4.4796    9.8615 H         1 RES1    0.0000
     62 H14       12.2269    2.3740    8.6499 H         1 RES1    0.0000
     63 H15       12.0164    3.9022    8.3616 H         1 RES1    0.0000
     64 H16       14.2875    1.2965    8.0548 H         1 RES1    0.0000
     65 H17       15.9470    0.9722    6.5641 H         1 RES1    0.0000
     66 H18       16.2421    2.5168    6.4192 H         1 RES1    0.0000
     67 H19       14.2808    1.0756    5.0842 H         1 RES1    0.0000
     68 H20       14.7918    2.5206    4.7219 H         1 RES1    0.0000
     69 H21       14.9355    4.4746    6.4300 H         1 RES1    0.0000
     70 H22       14.7824    4.8382    7.9469 H         1 RES1    0.0000
     71 H23       13.6218    5.1599    6.9449 H         1 RES1    0.0000
     72 H24       16.0507    4.5710   12.5578 H         1 RES1    0.0000
     73 H25       14.9334    4.9956   11.5434 H         1 RES1    0.0000
     74 H26       16.3352    4.5323   11.0177 H         1 RES1    0.0000
     75 H27       12.3872    0.8427    6.8539 H         1 RES1    0.0000
     76 H28       11.9315    1.1067    5.3771 H         1 RES1    0.0000
     77 H29       11.3018    1.9324    6.5517 H         1 RES1    0.0000
     78 H30       11.9569    3.8101    5.4141 H         1 RES1    0.0000
     79 H31        9.5561    3.0651    3.7707 H         2 RES2    0.0000
     80 H32        8.9546    4.4225    3.2620 H         2 RES2    0.0000
     81 H33        5.9536    5.1314    5.9567 H         2 RES2    0.0000
     82 H34        6.1539    3.6083    6.2820 H         2 RES2    0.0000
     83 H35        6.4953    4.8560    3.7676 H         2 RES2    0.0000
     84 H36        4.3275    4.1655    4.2779 H         2 RES2    0.0000
     85 H37        4.8203    2.6812    4.4089 H         2 RES2    0.0000
     86 H38        4.8339    4.1788    2.0010 H         2 RES2    0.0000
     87 H39        3.8834    2.9636    2.2923 H         2 RES2    0.0000
     88 H40        5.6700    1.4729    2.2384 H         2 RES2    0.0000
     89 H41        7.3396    3.7181    1.8114 H         2 RES2    0.0000
     90 H42        9.1950    2.3360    1.7065 H         2 RES2    0.0000
     91 H43        8.2997    1.0680    1.9285 H         2 RES2    0.0000
     92 H44        8.2476    2.7047   -0.3931 H         2 RES2    0.0000
     93 H45        8.7613    1.2216   -0.3499 H         2 RES2    0.0000
     94 H46        5.9107    3.1946    0.0123 H         2 RES2    0.0000
     95 H47        3.7617    2.6920   -0.3407 H         2 RES2    0.0000
     96 H48        3.9055    1.2286    0.2343 H         2 RES2    0.0000
     97 H49        4.3291    1.9812   -2.3648 H         2 RES2    0.0000
     98 H50        4.3666    0.5064   -1.8144 H         2 RES2    0.0000
     99 H51        7.1708   -0.6714   -0.2806 H         2 RES2    0.0000
    100 H52        5.6485   -0.4112   -0.0108 H         2 RES2    0.0000
    101 H53        6.7004   -0.1517    1.1207 H         2 RES2    0.0000
    102 H54        6.6042    1.3257    4.4891 H         2 RES2    0.0000
    103 H55        7.7311    1.8803    5.4264 H         2 RES2    0.0000
    104 H56        8.1110    1.1118    4.1145 H         2 RES2    0.0000
    105 H57        6.4218    3.4256   -2.0981 H         2 RES2    0.0000
    106 H58        6.4096    2.6158   -3.4408 H         2 RES2    0.0000
    107 H59        7.7028    2.6456   -2.5544 H         2 RES2    0.0000
    108 H60        6.3983    0.3078   -3.2142 H         2 RES2    0.0000
@<TRIPOS>BOND
     1    1    2 1
     2    2    3 1
     3    3    4 2
     4    4    6 1
     5    5    2 2
     6    6    5 1
     7    7    3 1
     8    8    7 1
     9    9    8 1
    10   10    9 1
    11   11   10 1
    12   12   11 1
    13   13    1 1
    14   14   12 1
    15   15   14 1
    16   16   15 1
    17   17   11 1
    18   18   17 1
    19   19   18 1
    20   20   16 1
    21   21   16 1
    22   22   13 1
    23   23   20 1
    24   24   20 1
    25   25   26 1
    26   26   27 1
    27   27   29 2
    28   28   29 1
    29   30   26 2
    30   31   27 1
    31   32   31 1
    32   33   32 1
    33   34   33 1
    34   35   34 1
    35   36   35 1
    36   37   25 1
    37   38   36 1
    38   39   38 1
    39   40   39 1
    40   41   35 1
    41   42   41 1
    42   43   42 1
    43   44   40 1
    44   45   40 1
    45   46   37 1
    46   47   44 1
    47   48   44 1
    48   49    1 1
    49   50    1 1
    50   51    7 1
    51   52    7 1
    52   53    8 1
    53   54    9 1
    54   55    9 1
    55   56   10 1
    56   57   10 1
    57   58   11 1
    58   59   12 1
    59   60   14 1
    60   61   14 1
    61   62   15 1
    62   63   15 1
    63   64   17 1
    64   65   18 1
    65   66   18 1
    66   67   19 1
    67   68   19 1
    68   69   21 1
    69   70   21 1
    70   71   21 1
    71   72   22 1
    72   73   22 1
    73   74   22 1
    74   75   23 1
    75   76   23 1
    76   77   23 1
    77   78   24 1
    78   79   25 1
    79   80   25 1
    80   81   31 1
    81   82   31 1
    82   83   32 1
    83   84   33 1
    84   85   33 1
    85   86   34 1
    86   87   34 1
    87   88   35 1
    88   89   36 1
    89   90   38 1
    90   91   38 1
    91   92   39 1
    92   93   39 1
    93   94   41 1
    94   95   42 1
    95   96   42 1
    96   97   43 1
    97   98   43 1
    98   99   45 1
    99  100   45 1
   100  101   45 1
   101  102   46 1
   102  103   46 1
   103  104   46 1
   104  105   47 1
   105  106   47 1
   106  107   47 1
   107  108   48 1
   108    8   13 1
   109   12   13 1
   110   16   17 1
   111   19   20 1
   112   28   30 1
   113   32   37 1
   114   36   37 1
   115   40   41 1
   116   43   44 1
@<TRIPOS>SUBSTRUCTURE
     1 RES1 1
     2 RES2 25

@<TRIPOS>CRYSIN
  18.7470    6.3460   15.6470  90.0000  99.8600  90.0000   4 1

