# MOL2 file generated by ConQuest
# Please check atom types

@<TRIPOS>MOLECULE
JIWPIO
    42    45     1
SMALL
NO_CHARGES
****
Generated from CSD

@<TRIPOS>ATOM
      1 O1         2.1120    1.2181    3.9713 O.3       1 RES1    0.0000
      2 O2        -0.3927    1.6478   -0.2435 O.2       1 RES1    0.0000
      3 O3         3.8808    0.6473   -1.5424 O.2       1 RES1    0.0000
      4 N1         1.1924    1.4790    5.0169 N.2       1 RES1    0.0000
      5 N2         2.9180    0.8372    0.5585 N.am      1 RES1    0.0000
      6 N3         1.6770    1.3047   -1.2209 N.am      1 RES1    0.0000
      7 C1         1.0069    2.7504    5.1046 C.2       1 RES1    0.0000
      8 C2         0.1135    3.3100    6.1340 C.ar      1 RES1    0.0000
      9 C3        -0.4683    2.4917    7.1081 C.ar      1 RES1    0.0000
     10 C4        -1.2672    3.0324    8.0953 C.ar      1 RES1    0.0000
     11 C5        -1.5193    4.3993    8.1212 C.ar      1 RES1    0.0000
     12 C6        -0.9610    5.2087    7.1536 C.ar      1 RES1    0.0000
     13 C7        -0.1441    4.6791    6.1632 C.ar      1 RES1    0.0000
     14 C8         1.8247    3.5499    4.1337 C.3       1 RES1    0.0000
     15 C9         2.3137    2.4461    3.2082 C.3       1 RES1    0.0000
     16 C10        1.5013    2.4095    1.9353 C.3       1 RES1    0.0000
     17 C11        1.5932    1.1381    1.0911 C.3       1 RES1    0.0000
     18 C12        0.7907    1.3824   -0.1689 C.2       1 RES1    0.0000
     19 C13        2.9585    0.8961   -0.7793 C.2       1 RES1    0.0000
     20 C14        1.4338    1.7189   -2.5750 C.ar      1 RES1    0.0000
     21 C15        1.7247    3.0258   -2.9257 C.ar      1 RES1    0.0000
     22 C16        1.5229    3.4333   -4.2279 C.ar      1 RES1    0.0000
     23 C17        1.0348    2.5416   -5.1695 C.ar      1 RES1    0.0000
     24 C18        0.7376    1.2414   -4.8059 C.ar      1 RES1    0.0000
     25 C19        0.9294    0.8328   -3.5005 C.ar      1 RES1    0.0000
     26 H1         3.5782    0.4419    1.0099 H         1 RES1    0.0000
     27 H2        -0.3107    1.5556    7.0919 H         1 RES1    0.0000
     28 H3        -1.6472    2.4684    8.7577 H         1 RES1    0.0000
     29 H4        -2.0705    4.7724    8.7999 H         1 RES1    0.0000
     30 H5        -1.1384    6.1426    7.1633 H         1 RES1    0.0000
     31 H6         0.2387    5.2487    5.5073 H         1 RES1    0.0000
     32 H7         2.5776    4.0107    4.5818 H         1 RES1    0.0000
     33 H8         1.2726    4.2139    3.6499 H         1 RES1    0.0000
     34 H9         3.2837    2.5716    2.9972 H         1 RES1    0.0000
     35 H10        1.7796    3.1734    1.3703 H         1 RES1    0.0000
     36 H11        0.5512    2.5516    2.1756 H         1 RES1    0.0000
     37 H12        1.2293    0.3542    1.5944 H         1 RES1    0.0000
     38 H13        2.0597    3.6342   -2.2795 H         1 RES1    0.0000
     39 H14        1.7193    4.3271   -4.4811 H         1 RES1    0.0000
     40 H15        0.9051    2.8248   -6.0658 H         1 RES1    0.0000
     41 H16        0.4008    0.6318   -5.4488 H         1 RES1    0.0000
     42 H17        0.7160   -0.0566   -3.2440 H         1 RES1    0.0000
@<TRIPOS>BOND
     1    1    4 1
     2    2   18 2
     3    3   19 2
     4    4    7 2
     5    5   17 1
     6    6   18 1
     7    7    8 1
     8    8    9 ar
     9    9   10 ar
    10   10   11 ar
    11   11   12 ar
    12   12   13 ar
    13   13    8 ar
    14   14    7 1
    15   15    1 1
    16   16   15 1
    17   17   16 1
    18   18   17 1
    19   19    5 1
    20   20    6 1
    21   21   20 ar
    22   22   21 ar
    23   23   22 ar
    24   24   23 ar
    25   25   20 ar
    26   26    5 1
    27   27    9 1
    28   28   10 1
    29   29   11 1
    30   30   12 1
    31   31   13 1
    32   32   14 1
    33   33   14 1
    34   34   15 1
    35   35   16 1
    36   36   16 1
    37   37   17 1
    38   38   21 1
    39   39   22 1
    40   40   23 1
    41   41   24 1
    42   42   25 1
    43    6   19 1
    44   14   15 1
    45   24   25 ar
@<TRIPOS>SUBSTRUCTURE
     1 RES1 1

@<TRIPOS>CRYSIN
   9.0062   11.1037   32.4720  90.0000  90.0000  90.0000  61 1

