# MOL2 file generated by ConQuest
# Please check atom types

@<TRIPOS>MOLECULE
JIXDID
    53    41     2
SMALL
NO_CHARGES
****
Generated from CSD

@<TRIPOS>ATOM
      1 C1         5.6568    0.3319   13.7509 C.3       1 RES1    0.0000
      2 C2         4.6899    0.1128   14.9627 C.3       1 RES1    0.0000
      3 C3         4.8866    1.4017   15.8173 C.3       1 RES1    0.0000
      4 C4         5.9598    2.1970   15.0100 C.3       1 RES1    0.0000
      5 C5         5.5548    1.8464   13.5747 C.3       1 RES1    0.0000
      6 C6         7.2350    1.3818   15.1144 C.ar      1 RES1    0.0000
      7 C7         7.0570    0.2432   14.3413 C.ar      1 RES1    0.0000
      8 C8         5.4703    0.0193   14.1684 Du        2 SUP2    0.0000
      9 C9         5.2753    1.1519   13.1572 Du        2 SUP2    0.0000
     10 C10        5.4511    2.4094   13.9808 Du        2 SUP2    0.0000
     11 C11        5.7308    1.8796   15.3867 Du        2 SUP2    0.0000
     12 C12        4.7857    0.6378   15.3672 Du        2 SUP2    0.0000
     13 C13        7.0968    1.1947   15.2921 Du        2 SUP2    0.0000
     14 C14        6.9205    0.0447   14.5239 Du        2 SUP2    0.0000
     15 C15        8.3948    1.5212   15.7912 C.ar      1 RES1    0.0000
     16 N1         9.4100    0.6384   15.6819 N.ar      1 RES1    0.0000
     17 C16        9.2287   -0.4272   14.9040 C.ar      1 RES1    0.0000
     18 C17        8.0373   -0.7374   14.2450 C.ar      1 RES1    0.0000
     19 N2        10.3940   -1.2309   14.7914 N.am      1 RES1    0.0000
     20 C18       10.6237   -2.2453   13.9205 C.2       1 RES1    0.0000
     21 O1         9.7912   -2.7310   13.1833 O.2       1 RES1    0.0000
     22 C19       12.0475   -2.7298   13.9074 C.ar      1 RES1    0.0000
     23 C20       13.0523   -1.9236   13.4018 C.ar      1 RES1    0.0000
     24 C21       14.3636   -2.3726   13.3627 C.ar      1 RES1    0.0000
     25 C22       14.6326   -3.6295   13.8699 C.ar      1 RES1    0.0000
     26 C23       13.6542   -4.4519   14.3723 C.ar      1 RES1    0.0000
     27 C24       12.3473   -4.0084   14.3820 C.ar      1 RES1    0.0000
     28 N3        16.0211   -4.1061   13.8536 N.pl3     1 RES1    0.0000
     29 O2        16.9013   -3.3205   13.5975 O.2       1 RES1    0.0000
     30 O3        16.2263   -5.2804   14.1048 O.2       1 RES1    0.0000
     31 H1         5.4681   -0.2957   12.8522 H         1 RES1    0.0000
     32 H2         4.9653   -0.7724   15.5107 H         1 RES1    0.0000
     33 H3         3.6569    0.0543   14.5973 H         1 RES1    0.0000
     34 H4         5.2594    1.1404   16.7992 H         1 RES1    0.0000
     35 H5         3.9551    1.9671   15.8695 H         1 RES1    0.0000
     36 H6         6.0262    3.2704   15.2497 H         1 RES1    0.0000
     37 H7         4.5430    2.1843   13.2925 H         1 RES1    0.0000
     38 H8         6.2756    2.2326   12.8196 H         1 RES1    0.0000
     39 H9         5.0287   -0.9715   13.8797 Du        2 SUP2    0.0000
     40 H10        4.2384    1.1223   12.7054 Du        2 SUP2    0.0000
     41 H11        6.0066    1.0741   12.3303 Du        2 SUP2    0.0000
     42 H12        4.5448    3.0532   13.9449 Du        2 SUP2    0.0000
     43 H13        6.3090    3.0049   13.5861 Du        2 SUP2    0.0000
     44 H14        5.6032    2.6308   16.2120 Du        2 SUP2    0.0000
     45 H15        4.9562    0.0543   16.3262 Du        2 SUP2    0.0000
     46 H16        3.7519    0.9111   15.2987 Du        2 SUP2    0.0000
     47 H17        8.5863    2.3834   16.3425 H         1 RES1    0.0000
     48 H18        7.9692   -1.5628   13.7003 H         1 RES1    0.0000
     49 H19       11.0835   -0.9232   15.3476 H         1 RES1    0.0000
     50 H20       12.8451   -1.0861   13.0805 H         1 RES1    0.0000
     51 H21       15.1236   -1.8162   13.0153 H         1 RES1    0.0000
     52 H22       13.9429   -5.2858   14.7115 H         1 RES1    0.0000
     53 H23       11.6397   -4.5858   14.6952 H         1 RES1    0.0000
@<TRIPOS>BOND
     1    1    2 1
     2    2    3 1
     3    3    4 1
     4    4    5 1
     5    5    1 1
     6    6    4 1
     7    7    1 1
     8   15    6 ar
     9   16   15 ar
    10   17   16 ar
    11   18    7 ar
    12   19   17 1
    13   20   19 1
    14   21   20 2
    15   22   20 1
    16   23   22 ar
    17   24   23 ar
    18   25   24 ar
    19   26   25 ar
    20   27   22 ar
    21   28   25 1
    22   29   28 2
    23   30   28 2
    24   31    1 1
    25   32    2 1
    26   33    2 1
    27   34    3 1
    28   35    3 1
    29   36    4 1
    30   37    5 1
    31   38    5 1
    32   47   15 1
    33   48   18 1
    34   49   19 1
    35   50   23 1
    36   51   24 1
    37   52   26 1
    38   53   27 1
    39    6    7 ar
    40   17   18 ar
    41   26   27 ar
@<TRIPOS>SUBSTRUCTURE
     1 RES1 1
     2 SUP2 8

@<TRIPOS>CRYSIN
  15.0800    6.0340   16.8180  90.0000 104.1200  90.0000  14 1

