# MOL2 file generated by ConQuest
# Please check atom types

@<TRIPOS>MOLECULE
JIYBIC
    25    27     1
SMALL
NO_CHARGES
****
Generated from CSD

@<TRIPOS>ATOM
      1 O1         4.0589   10.1786   11.9204 O.3       1 RES1    0.0000
      2 N1         3.3445    9.8826   10.7114 N.2       1 RES1    0.0000
      3 C1         3.8802    8.8240   10.3090 C.2       1 RES1    0.0000
      4 N2         4.8195    8.2613   11.1323 N.3       1 RES1    0.0000
      5 C2         4.7856    9.0001   12.2527 C.3       1 RES1    0.0000
      6 C3         3.5775    8.2087    8.8287 C.3       1 RES1    0.0000
      7 C4         2.6216    7.3006    9.0889 C.3       1 RES1    0.0000
      8 N3         2.3413    6.5892    7.7175 N.2       1 RES1    0.0000
      9 C5         1.3002    7.0078    7.0973 C.2       1 RES1    0.0000
     10 C6         0.7591    6.3802    5.9584 C.2       1 RES1    0.0000
     11 C7        -0.3601    6.8226    5.3899 C.2       1 RES1    0.0000
     12 C8        -1.0276    6.3395    4.1864 C.ar      1 RES1    0.0000
     13 C9        -2.2298    6.9096    3.8080 C.ar      1 RES1    0.0000
     14 C10       -2.8935    6.5184    2.6599 C.ar      1 RES1    0.0000
     15 C11       -2.3272    5.5531    1.8385 C.ar      1 RES1    0.0000
     16 C12       -1.1427    4.9475    2.2113 C.ar      1 RES1    0.0000
     17 C13       -0.4845    5.3397    3.3687 C.ar      1 RES1    0.0000
     18 C14        5.8594    9.3168   13.1572 C.2       1 RES1    0.0000
     19 C15        5.9749    9.3003   14.4013 C.2       1 RES1    0.0000
     20 C16        7.0341    9.8236   15.3113 C.ar      1 RES1    0.0000
     21 C17        6.7510    9.7457   16.6569 C.ar      1 RES1    0.0000
     22 C18        7.6213   10.2328   17.5909 C.ar      1 RES1    0.0000
     23 C19        8.7843   10.7823   17.1848 C.ar      1 RES1    0.0000
     24 C20        9.0816   10.8667   15.9112 C.ar      1 RES1    0.0000
     25 C21        8.2016   10.3975   14.9439 C.ar      1 RES1    0.0000
@<TRIPOS>BOND
     1    1    2 1
     2    2    3 2
     3    3    4 1
     4    4    5 1
     5    5    1 1
     6    6    3 1
     7    7    6 1
     8    8    7 1
     9    9    8 2
    10   10    9 1
    11   11   10 2
    12   12   11 1
    13   13   12 ar
    14   14   13 ar
    15   15   14 ar
    16   16   15 ar
    17   17   12 ar
    18   18    5 1
    19   19   18 2
    20   20   19 1
    21   21   20 ar
    22   22   21 ar
    23   23   22 ar
    24   24   23 ar
    25   25   20 ar
    26   16   17 ar
    27   24   25 ar
@<TRIPOS>SUBSTRUCTURE
     1 RES1 1

@<TRIPOS>CRYSIN
   5.9220    8.3190   18.8650  78.1300  87.1300  81.0200   2 1

