# MOL2 file generated by ConQuest
# Please check atom types

@<TRIPOS>MOLECULE
JIYBOI
    21    24     1
SMALL
NO_CHARGES
****
Generated from CSD

@<TRIPOS>ATOM
      1 N1         6.4065    1.7716    1.2409 N.2       1 RES1    0.0000
      2 O1         5.2120    1.2159    1.8697 O.3       1 RES1    0.0000
      3 C1         5.6385    0.0284    2.5373 C.3       1 RES1    0.0000
      4 N2         7.0177    0.3779    2.8924 N.3       1 RES1    0.0000
      5 C2         7.9321   -0.7171    3.3080 C.3       1 RES1    0.0000
      6 N3         9.3295   -0.4000    3.0691 N.3       1 RES1    0.0000
      7 C3         9.5610    0.1551    1.7326 C.3       1 RES1    0.0000
      8 C4         8.8084    1.4722    1.5523 C.3       1 RES1    0.0000
      9 C5         7.3820    1.2398    1.8683 C.2       1 RES1    0.0000
     10 C6         4.7175   -0.3040    3.6672 C.ar      1 RES1    0.0000
     11 C7         3.9806   -1.4785    3.6286 C.ar      1 RES1    0.0000
     12 C8         3.1101   -1.7915    4.6645 C.ar      1 RES1    0.0000
     13 C9         2.9867   -0.9375    5.7374 C.ar      1 RES1    0.0000
     14 C10        3.7286    0.2318    5.7851 C.ar      1 RES1    0.0000
     15 C11        4.5727    0.5512    4.7539 C.ar      1 RES1    0.0000
     16 C12        7.7079   -1.0478    4.7647 C.ar      1 RES1    0.0000
     17 C13        7.1103   -2.2427    5.1316 C.ar      1 RES1    0.0000
     18 C14        6.8938   -2.5467    6.4541 C.ar      1 RES1    0.0000
     19 C15        7.4503   -1.6665    7.4484 C.ar      1 RES1    0.0000
     20 C16        7.8994   -0.4710    7.0985 C.ar      1 RES1    0.0000
     21 C17        8.0916   -0.1602    5.7697 C.ar      1 RES1    0.0000
@<TRIPOS>BOND
     1    1    2 1
     2    2    3 1
     3    3    4 1
     4    4    5 1
     5    5    6 1
     6    6    7 1
     7    7    8 1
     8    8    9 1
     9    9    1 2
    10   10    3 1
    11   11   10 ar
    12   12   11 ar
    13   13   12 ar
    14   14   13 ar
    15   15   10 ar
    16   16    5 1
    17   17   16 ar
    18   18   17 ar
    19   19   18 ar
    20   20   19 ar
    21   21   16 ar
    22    4    9 1
    23   14   15 ar
    24   20   21 ar
@<TRIPOS>SUBSTRUCTURE
     1 RES1 1

@<TRIPOS>CRYSIN
  16.0890    5.6820   17.2470  90.0000 116.6500  90.0000 231 1

