# MOL2 file generated by ConQuest
# Please check atom types

@<TRIPOS>MOLECULE
JIZJIL
    17    17     1
SMALL
NO_CHARGES
****
Generated from CSD

@<TRIPOS>ATOM
      1 N1         1.6462   -0.4383    9.5340 N.3       1 RES1    0.0000
      2 C1         1.6462   -1.5282   10.3369 C.2       1 RES1    0.0000
      3 N2         1.6462   -1.1997   11.6263 N.2       1 RES1    0.0000
      4 C2         1.6462    0.1528   11.6636 C.2       1 RES1    0.0000
      5 C3         1.6462    0.6397   10.3972 C.2       1 RES1    0.0000
      6 C4         1.6462   -0.4731    8.0715 C.3       1 RES1    0.0000
      7 C5         1.6462   -2.9247    9.8352 C.3       1 RES1    0.0000
      8 N3         1.6462    1.9922    9.9984 N.pl3     1 RES1    0.0000
      9 O1         1.6462    2.8359   10.8869 O.2       1 RES1    0.0000
     10 O2         1.6462    2.2768    8.8131 O.2       1 RES1    0.0000
     11 H1         1.6462   -1.3086    7.7560 H         1 RES1    0.0000
     12 H2         0.9877    0.0366    7.7231 H         1 RES1    0.0000
     13 H3         1.6462   -3.5323   10.5276 H         1 RES1    0.0000
     14 H4         2.2190   -3.0290    9.2130 H         1 RES1    0.0000
     15 H5         1.6462    0.6131   12.5213 H         1 RES1    0.0000
     16 H2F        2.3046    0.0366    7.7231 H         1 RES1    0.0000
     17 H4F        1.0733   -3.0290    9.2130 H         1 RES1    0.0000
@<TRIPOS>BOND
     1    1    2 1
     2    2    3 2
     3    3    4 1
     4    4    5 2
     5    5    1 1
     6    6    1 1
     7    7    2 1
     8    8    5 1
     9    9    8 2
    10   10    8 2
    11   11    6 1
    12   12    6 1
    13   13    7 1
    14   14    7 1
    15   15    4 1
    16   16    6 1
    17   17    7 1
@<TRIPOS>SUBSTRUCTURE
     1 RES1 1

@<TRIPOS>CRYSIN
   6.5847    9.1511   10.9548  90.0000  90.0000  90.0000  62 3

