# MOL2 file generated by ConQuest
# Please check atom types

@<TRIPOS>MOLECULE
JIZJIL01
    17    11     2
SMALL
NO_CHARGES
****
Generated from CSD

@<TRIPOS>ATOM
      1 C1         1.6100   -2.9467    4.3049 C.3       1 RES1    0.0000
      2 C2         1.6100   -1.5486    4.8202 C.2       1 RES1    0.0000
      3 N1         1.6100   -1.2232    6.1167 N.2       1 RES1    0.0000
      4 C3         1.6100    0.1369    6.1543 C.2       1 RES1    0.0000
      5 H1         1.6100    0.6644    6.9449 H         1 RES1    0.0000
      6 C4         1.6100    0.6269    4.8772 C.2       1 RES1    0.0000
      7 N2         1.6100   -0.4549    4.0166 N.pl3     1 RES1    0.0000
      8 C5         1.6100   -0.4847    2.5457 C.3       1 RES1    0.0000
      9 N3         1.6100    1.9824    4.4713 N.pl3     1 RES1    0.0000
     10 O1         1.6100    2.8356    5.3679 O.2       1 RES1    0.0000
     11 O2         1.6100    2.2614    3.2731 O.2       1 RES1    0.0000
     12 H2         2.5194   -3.1967    4.0401 Du        2 SUP2    0.0000
     13 H3         1.0150   -3.0090    3.5284 Du        2 SUP2    0.0000
     14 H4         1.2957   -3.5537    5.0069 Du        2 SUP2    0.0000
     15 H5         0.7000   -0.3294    2.2161 Du        2 SUP2    0.0000
     16 H6         1.9249   -1.3600    2.2368 Du        2 SUP2    0.0000
     17 H7         2.2051    0.2153    2.2052 Du        2 SUP2    0.0000
@<TRIPOS>BOND
     1    1    2 1
     2    2    3 2
     3    3    4 1
     4    4    5 1
     5    6    4 2
     6    7    2 1
     7    8    7 1
     8    9    6 1
     9   10    9 2
    10   11    9 2
    11    6    7 1
@<TRIPOS>SUBSTRUCTURE
     1 RES1 1
     2 SUP2 12

@<TRIPOS>CRYSIN
   6.4401    9.2017   10.8633  90.0000  90.0000  90.0000  62 3

