# MOL2 file generated by ConQuest
# Please check atom types

@<TRIPOS>MOLECULE
JIZPAJ
    47    51     1
SMALL
NO_CHARGES
****
Generated from CSD

@<TRIPOS>ATOM
      1 O1         8.4755    2.2972    2.3245 O.3       1 RES1    0.0000
      2 N1         8.4626    1.2582    3.3669 N.3       1 RES1    0.0000
      3 C1         8.9303    1.9922    4.5552 C.3       1 RES1    0.0000
      4 H1         9.8901    1.9883    4.5667 H         1 RES1    0.0000
      5 C2         8.4951    1.4734    5.9312 C.3       1 RES1    0.0000
      6 H2         7.8006    0.8164    5.8425 H         1 RES1    0.0000
      7 H3         9.2397    1.0906    6.4007 H         1 RES1    0.0000
      8 C3         7.9729    2.7259    6.6658 C.3       1 RES1    0.0000
      9 H4         8.6566    3.1166    7.2146 H         1 RES1    0.0000
     10 H5         7.2089    2.5153    7.2077 H         1 RES1    0.0000
     11 C4         7.5965    3.6426    5.5301 C.2       1 RES1    0.0000
     12 H6         7.0341    4.4152    5.6217 H         1 RES1    0.0000
     13 C5         8.1360    3.2507    4.3992 C.2       1 RES1    0.0000
     14 C6         7.9568    3.5227    2.9359 C.3       1 RES1    0.0000
     15 C7         9.2210    0.1594    2.8817 C.ar      1 RES1    0.0000
     16 C8         9.3305   -0.0855    1.5370 C.ar      1 RES1    0.0000
     17 H7         8.9605    0.5307    0.9005 H         1 RES1    0.0000
     18 C9         9.9790   -1.2324    1.1051 C.ar      1 RES1    0.0000
     19 H8        10.0467   -1.4094    0.1640 H         1 RES1    0.0000
     20 C10       10.5261   -2.1168    1.9956 C.ar      1 RES1    0.0000
     21 H9        10.9890   -2.8976    1.6829 H         1 RES1    0.0000
     22 C11       10.4064   -1.8769    3.3183 C.ar      1 RES1    0.0000
     23 H10       10.7657   -2.5049    3.9493 H         1 RES1    0.0000
     24 C12        9.7700   -0.7374    3.7738 C.ar      1 RES1    0.0000
     25 H11        9.7108   -0.5688    4.7170 H         1 RES1    0.0000
     26 C13        8.8170    4.6469    2.3531 C.ar      1 RES1    0.0000
     27 C14        9.3347    5.6567    3.1301 C.ar      1 RES1    0.0000
     28 H12        9.2007    5.6455    4.0806 H         1 RES1    0.0000
     29 C15       10.0526    6.6937    2.5433 C.ar      1 RES1    0.0000
     30 H13       10.3926    7.4062    3.0895 H         1 RES1    0.0000
     31 C16       10.2757    6.7073    1.1993 C.ar      1 RES1    0.0000
     32 H14       10.7818    7.4196    0.8018 H         1 RES1    0.0000
     33 C17        9.7779    5.6988    0.4167 C.ar      1 RES1    0.0000
     34 H15        9.9382    5.7027   -0.5298 H         1 RES1    0.0000
     35 C18        9.0435    4.6784    0.9870 C.ar      1 RES1    0.0000
     36 H16        8.6862    3.9826    0.4304 H         1 RES1    0.0000
     37 C19        6.4872    3.7082    2.5617 C.ar      1 RES1    0.0000
     38 C20        5.8883    4.9578    2.6213 C.ar      1 RES1    0.0000
     39 H17        6.4041    5.7202    2.8941 H         1 RES1    0.0000
     40 C21        4.5534    5.1154    2.2901 C.ar      1 RES1    0.0000
     41 H18        4.1479    5.9839    2.3431 H         1 RES1    0.0000
     42 C22        3.8040    4.0342    1.8865 C.ar      1 RES1    0.0000
     43 H19        2.8820    4.1459    1.6434 H         1 RES1    0.0000
     44 C23        4.3895    2.7955    1.8355 C.ar      1 RES1    0.0000
     45 H20        3.8711    2.0355    1.5610 H         1 RES1    0.0000
     46 C24        5.7188    2.6307    2.1753 C.ar      1 RES1    0.0000
     47 H21        6.1123    1.7556    2.1414 H         1 RES1    0.0000
@<TRIPOS>BOND
     1    1    2 1
     2    2    3 1
     3    3    4 1
     4    5    3 1
     5    6    5 1
     6    7    5 1
     7    8    5 1
     8    9    8 1
     9   10    8 1
    10   11    8 1
    11   12   11 1
    12   13    3 1
    13   14    1 1
    14   15    2 1
    15   16   15 ar
    16   17   16 1
    17   18   16 ar
    18   19   18 1
    19   20   18 ar
    20   21   20 1
    21   22   20 ar
    22   23   22 1
    23   24   15 ar
    24   25   24 1
    25   26   14 1
    26   27   26 ar
    27   28   27 1
    28   29   27 ar
    29   30   29 1
    30   31   29 ar
    31   32   31 1
    32   33   31 ar
    33   34   33 1
    34   35   26 ar
    35   36   35 1
    36   37   14 1
    37   38   37 ar
    38   39   38 1
    39   40   38 ar
    40   41   40 1
    41   42   40 ar
    42   43   42 1
    43   44   42 ar
    44   45   44 1
    45   46   37 ar
    46   47   46 1
    47   11   13 2
    48   13   14 1
    49   22   24 ar
    50   33   35 ar
    51   44   46 ar
@<TRIPOS>SUBSTRUCTURE
     1 RES1 1

@<TRIPOS>CRYSIN
  16.5200   12.7940    9.0420  90.0000 104.3200  90.0000  14 2

