# MOL2 file generated by ConQuest
# Please check atom types

@<TRIPOS>MOLECULE
JOBDOU
    67    71     1
SMALL
NO_CHARGES
****
Generated from CSD

@<TRIPOS>ATOM
      1 O1        -5.5871  -13.9114   -3.1488 O.3       1 RES1    0.0000
      2 O2        -2.9559  -13.1898   -2.2940 O.3       1 RES1    0.0000
      3 C1        -0.9705  -12.1642   -2.9499 C.3       1 RES1    0.0000
      4 H1        -0.2426  -11.6400   -2.6087 H         1 RES1    0.0000
      5 H2        -1.4207  -11.6764   -3.6436 H         1 RES1    0.0000
      6 H3        -0.6314  -12.9875   -3.3058 H         1 RES1    0.0000
      7 O3        -2.6258  -15.4940   -0.7390 O.3       1 RES1    0.0000
      8 O4        -3.0342  -14.7751    1.3463 O.2       1 RES1    0.0000
      9 O5        -4.3973  -17.2012   -2.0380 O.3       1 RES1    0.0000
     10 O6        -2.5507  -17.7590   -3.1525 O.2       1 RES1    0.0000
     11 O7        -6.8447  -11.4966   -0.3195 O.2       1 RES1    0.0000
     12 O8        -6.5447   -5.1902   -2.0251 O.3       1 RES1    0.0000
     13 H4        -6.0058   -4.7905   -2.4953 H         1 RES1    0.0000
     14 N1        -5.5197  -11.7989   -2.1899 N.am      1 RES1    0.0000
     15 N2        -7.5882   -8.9778    0.0446 N.pl3     1 RES1    0.0000
     16 H5        -7.6662   -9.7743    0.3614 H         1 RES1    0.0000
     17 N3        -6.3253   -6.5655   -2.1305 N.2       1 RES1    0.0000
     18 C2        -5.3431  -13.2094   -1.9488 C.3       1 RES1    0.0000
     19 H6        -6.0248  -13.4862   -1.3017 H         1 RES1    0.0000
     20 C3        -3.9860  -13.5540   -1.3591 C.3       1 RES1    0.0000
     21 H7        -3.8558  -13.0856   -0.5086 H         1 RES1    0.0000
     22 C4        -3.9411  -15.0508   -1.1450 C.3       1 RES1    0.0000
     23 H8        -4.5866  -15.2903   -0.4485 H         1 RES1    0.0000
     24 C5        -4.2880  -15.8002   -2.4176 C.3       1 RES1    0.0000
     25 H9        -3.5971  -15.6741   -3.1005 H         1 RES1    0.0000
     26 C6        -5.6502  -15.3379   -2.9235 C.3       1 RES1    0.0000
     27 H10       -6.3215  -15.5200   -2.2332 H         1 RES1    0.0000
     28 C7        -6.0897  -15.9823   -4.2097 C.3       1 RES1    0.0000
     29 H11       -6.9544  -15.6489   -4.4555 H         1 RES1    0.0000
     30 H12       -6.1359  -16.9348   -4.0914 H         1 RES1    0.0000
     31 H13       -5.4577  -15.7778   -4.9027 H         1 RES1    0.0000
     32 C8        -1.9280  -12.4572   -1.8495 C.2       1 RES1    0.0000
     33 O9        -1.8387  -12.0939   -0.7228 O.2       1 RES1    0.0000
     34 C9        -2.3123  -15.3556    0.5681 C.2       1 RES1    0.0000
     35 C10       -1.0217  -15.9758    0.8984 C.3       1 RES1    0.0000
     36 H14       -0.8390  -15.8590    1.8333 H         1 RES1    0.0000
     37 H15       -0.3259  -15.5621    0.3823 H         1 RES1    0.0000
     38 H16       -1.0553  -16.9124    0.6944 H         1 RES1    0.0000
     39 C11       -3.4319  -18.0413   -2.3872 C.2       1 RES1    0.0000
     40 C12       -3.5781  -19.3645   -1.7036 C.3       1 RES1    0.0000
     41 H17       -2.8721  -19.9491   -1.9839 H         1 RES1    0.0000
     42 H18       -4.4258  -19.7530   -1.9353 H         1 RES1    0.0000
     43 H19       -3.5328  -19.2404   -0.7532 H         1 RES1    0.0000
     44 C13       -6.2721  -11.0282   -1.3206 C.2       1 RES1    0.0000
     45 C14       -6.2502   -9.6510   -1.8144 C.2       1 RES1    0.0000
     46 C15       -5.4865   -9.6698   -3.0519 C.ar      1 RES1    0.0000
     47 C16       -5.1606   -8.7232   -4.0219 C.ar      1 RES1    0.0000
     48 H20       -5.4402   -7.8413   -3.9205 H         1 RES1    0.0000
     49 C17       -4.4277   -9.0845   -5.1276 C.ar      1 RES1    0.0000
     50 H21       -4.2080   -8.4436   -5.7646 H         1 RES1    0.0000
     51 C18       -4.0133  -10.3965   -5.3033 C.ar      1 RES1    0.0000
     52 H22       -3.5167  -10.6203   -6.0564 H         1 RES1    0.0000
     53 C19       -4.3266  -11.3792   -4.3751 C.ar      1 RES1    0.0000
     54 H23       -4.0589  -12.2619   -4.4994 H         1 RES1    0.0000
     55 C20       -5.0496  -11.0010   -3.2599 C.ar      1 RES1    0.0000
     56 C21       -6.8913   -8.6750   -1.0747 C.2       1 RES1    0.0000
     57 C22       -6.9860   -7.1936   -1.2240 C.2       1 RES1    0.0000
     58 C23       -7.8406   -6.7330   -0.1290 C.ar      1 RES1    0.0000
     59 C24       -8.3649   -5.4850    0.2506 C.ar      1 RES1    0.0000
     60 H24       -8.1720   -4.7204   -0.2418 H         1 RES1    0.0000
     61 C25       -9.1644   -5.4180    1.3604 C.ar      1 RES1    0.0000
     62 H25       -9.5269   -4.6000    1.6137 H         1 RES1    0.0000
     63 C26       -9.4421   -6.5377    2.1075 C.ar      1 RES1    0.0000
     64 H26       -9.9771   -6.4573    2.8648 H         1 RES1    0.0000
     65 C27       -8.9466   -7.7861    1.7603 C.ar      1 RES1    0.0000
     66 H27       -9.1323   -8.5416    2.2703 H         1 RES1    0.0000
     67 C28       -8.1632   -7.8575    0.6221 C.ar      1 RES1    0.0000
@<TRIPOS>BOND
     1    1   18 1
     2    2   20 1
     3    3    4 1
     4    5    3 1
     5    6    3 1
     6    7   22 1
     7    8   34 2
     8    9   24 1
     9   10   39 2
    10   11   44 2
    11   12   13 1
    12   14   18 1
    13   15   16 1
    14   17   12 1
    15   18   19 1
    16   20   18 1
    17   21   20 1
    18   22   20 1
    19   23   22 1
    20   24   22 1
    21   25   24 1
    22   26    1 1
    23   27   26 1
    24   28   26 1
    25   29   28 1
    26   30   28 1
    27   31   28 1
    28   32    2 1
    29   33   32 2
    30   34    7 1
    31   35   34 1
    32   36   35 1
    33   37   35 1
    34   38   35 1
    35   39    9 1
    36   40   39 1
    37   41   40 1
    38   42   40 1
    39   43   40 1
    40   44   14 1
    41   45   44 1
    42   46   45 1
    43   47   46 ar
    44   48   47 1
    45   49   47 ar
    46   50   49 1
    47   51   49 ar
    48   52   51 1
    49   53   51 ar
    50   54   53 1
    51   55   14 1
    52   56   15 1
    53   57   17 2
    54   58   57 1
    55   59   58 ar
    56   60   59 1
    57   61   59 ar
    58   62   61 1
    59   63   61 ar
    60   64   63 1
    61   65   63 ar
    62   66   65 1
    63   67   15 1
    64    3   32 1
    65   24   26 1
    66   45   56 2
    67   46   55 ar
    68   53   55 ar
    69   56   57 1
    70   58   67 ar
    71   65   67 ar
@<TRIPOS>SUBSTRUCTURE
     1 RES1 1

@<TRIPOS>CRYSIN
  14.6163   28.0145    6.7549  90.0000  90.0000  90.0000  18 1

