# MOL2 file generated by ConQuest
# Please check atom types

@<TRIPOS>MOLECULE
JOBHAJ01
    36    37     1
SMALL
NO_CHARGES
****
Generated from CSD

@<TRIPOS>ATOM
      1 O1         7.4822    4.2070    0.3230 O.3       1 RES1    0.0000
      2 C1         1.6238    6.0902    2.3850 C.2       1 RES1    0.0000
      3 O2         3.7068    3.4180    4.3559 O.2       1 RES1    0.0000
      4 C2         2.0879    7.4951    2.5699 C.3       1 RES1    0.0000
      5 O3         2.3606    1.7493    3.7239 O.3       1 RES1    0.0000
      6 H1         4.9534    4.9760    0.5212 H         1 RES1    0.0000
      7 O4         0.4764    5.8409    2.0172 O.2       1 RES1    0.0000
      8 H2         3.7357    0.2611    1.7030 H         1 RES1    0.0000
      9 N1         6.3644    3.5586    0.8251 N.pl3     1 RES1    0.0000
     10 H3         5.4710   -1.2591    2.0113 H         1 RES1    0.0000
     11 N2         2.5108    5.1377    2.6367 N.am      1 RES1    0.0000
     12 H4         7.7167   -0.6644    1.7030 H         1 RES1    0.0000
     13 C3         5.0894    4.0529    0.7421 C.2       1 RES1    0.0000
     14 H5         8.2323    1.5574    1.1231 H         1 RES1    0.0000
     15 C4         4.2078    3.0637    1.0358 C.2       1 RES1    0.0000
     16 H6         2.3130    2.2976    1.0277 H         1 RES1    0.0000
     17 C5         4.9860    1.8824    1.2773 C.ar      1 RES1    0.0000
     18 H7         2.3776    3.7986    0.4625 H         1 RES1    0.0000
     19 C6         4.6740    0.5678    1.6061 C.ar      1 RES1    0.0000
     20 H8         1.2734    3.5825    2.5619 H         1 RES1    0.0000
     21 C7         5.6939   -0.3373    1.7427 C.ar      1 RES1    0.0000
     22 H9         2.5303    0.0483    4.6539 H         1 RES1    0.0000
     23 C8         7.0157    0.0249    1.5643 C.ar      1 RES1    0.0000
     24 H10        3.8431    0.7234    4.4924 H         1 RES1    0.0000
     25 C9         7.3682    1.3043    1.2281 C.ar      1 RES1    0.0000
     26 H11        2.9717    1.3534    5.5275 H         1 RES1    0.0000
     27 C10        6.3392    2.2269    1.1099 C.ar      1 RES1    0.0000
     28 H12        2.6347    7.5675    3.2592 H         1 RES1    0.0000
     29 C11        2.7224    3.1752    1.1444 C.3       1 RES1    0.0000
     30 H13        2.3425    7.8942    1.8058 H         1 RES1    0.0000
     31 C12        2.2241    3.7280    2.4958 C.3       1 RES1    0.0000
     32 H14        1.4108    8.0578    2.7601 H         1 RES1    0.0000
     33 C13        2.8493    2.9820    3.6439 C.2       1 RES1    0.0000
     34 H15        7.7922    4.6984    1.0497 H         1 RES1    0.0000
     35 C14        2.9115    0.9223    4.7714 C.3       1 RES1    0.0000
     36 H16        3.2823    5.3992    2.8482 H         1 RES1    0.0000
@<TRIPOS>BOND
     1    1    9 1
     2    2    4 1
     3    3   33 2
     4    4   28 1
     5    5   33 1
     6    6   13 1
     7    7    2 2
     8    8   19 1
     9    9   13 1
    10   10   21 1
    11   11    2 1
    12   12   23 1
    13   13   15 2
    14   14   25 1
    15   15   17 1
    16   16   29 1
    17   17   19 ar
    18   18   29 1
    19   19   21 ar
    20   20   31 1
    21   21   23 ar
    22   22   35 1
    23   23   25 ar
    24   24   35 1
    25   25   27 ar
    26   26   35 1
    27   27    9 1
    28   29   15 1
    29   30    4 1
    30   31   11 1
    31   32    4 1
    32   33   31 1
    33   34    1 1
    34   35    5 1
    35   36   11 1
    36   17   27 ar
    37   29   31 1
@<TRIPOS>SUBSTRUCTURE
     1 RES1 1

@<TRIPOS>CRYSIN
   8.1630   12.0860    8.0126 107.9400 109.5600  73.1610   2 1

