# MOL2 file generated by ConQuest
# Please check atom types

@<TRIPOS>MOLECULE
JOCJIU
    21    23     1
SMALL
NO_CHARGES
****
Generated from CSD

@<TRIPOS>ATOM
      1 O1        -3.5118    6.4912    4.1661 O.3       1 RES1    0.0000
      2 O2        -5.0116    3.7381    7.3597 O.3       1 RES1    0.0000
      3 N1        -4.1045    5.3178    3.6591 N.2       1 RES1    0.0000
      4 C1        -4.7796    4.8076    4.6557 C.2       1 RES1    0.0000
      5 C2        -4.6455    5.5726    5.8667 C.2       1 RES1    0.0000
      6 C3        -3.8671    6.6239    5.4805 C.2       1 RES1    0.0000
      7 C4        -3.2901    7.8461    6.0850 C.ar      1 RES1    0.0000
      8 C5        -4.0971    8.8679    6.5775 C.ar      1 RES1    0.0000
      9 C6        -3.5079   10.0267    7.0787 C.ar      1 RES1    0.0000
     10 C7        -2.1345   10.1703    7.0845 C.ar      1 RES1    0.0000
     11 C8        -1.3338    9.1620    6.5852 C.ar      1 RES1    0.0000
     12 C9        -1.9080    8.0037    6.0869 C.ar      1 RES1    0.0000
     13 C10       -5.2247    5.1691    7.2120 C.3       1 RES1    0.0000
     14 C11       -6.7654    5.3173    7.2101 C.3       1 RES1    0.0000
     15 C12       -7.3691    4.8912    8.5553 C.3       1 RES1    0.0000
     16 C13       -6.7615    5.6698    9.7171 C.3       1 RES1    0.0000
     17 C14       -5.2536    5.5061    9.7344 C.3       1 RES1    0.0000
     18 C15       -4.4113    5.5323    8.4114 C.3       1 RES1    0.0000
     19 C16       -7.2324    6.7277    6.8170 C.3       1 RES1    0.0000
     20 C17       -3.0692    5.6023    8.5408 C.3       1 RES1    0.0000
     21 C18       -5.5718    3.5581    4.3892 C.3       1 RES1    0.0000
@<TRIPOS>BOND
     1    1    3 1
     2    2   13 1
     3    3    4 2
     4    4    5 1
     5    5    6 2
     6    6    1 1
     7    7    6 1
     8    8    7 ar
     9    9    8 ar
    10   10    9 ar
    11   11   10 ar
    12   12    7 ar
    13   13    5 1
    14   14   13 1
    15   15   14 1
    16   16   15 1
    17   17   16 1
    18   18   13 1
    19   19   14 1
    20   20   18 1
    21   21    4 1
    22   11   12 ar
    23   17   18 1
@<TRIPOS>SUBSTRUCTURE
     1 RES1 1

@<TRIPOS>CRYSIN
   9.0630    9.8510   10.0930  90.4200 105.2600 113.6700   2 1

