# MOL2 file generated by ConQuest
# Please check atom types

@<TRIPOS>MOLECULE
JOCPUM
    72    76     2
SMALL
USER_CHARGES
****
Generated from CSD

@<TRIPOS>ATOM
      1 O1         5.1349    2.9914    7.7354 O.3       1 RES1    0.0000
      2 O2         5.8289    0.6113    8.5844 O.2       1 RES1   -1.0000
      3 O3         9.8335    2.2148   10.2159 O.2       1 RES1    0.0000
      4 N1         4.3149    6.5892   10.4447 N.3       1 RES1    0.0000
      5 N2         8.3692    3.6292    9.2015 N.am      1 RES1    0.0000
      6 N3         6.6752    1.5577    8.7736 N.pl3     1 RES1    1.0000
      7 C1         4.7199    5.7732    9.4135 C.2       1 RES1    0.0000
      8 C2         6.0476    5.9641    9.1678 C.2       1 RES1    0.0000
      9 C3         6.4931    6.9414   10.0802 C.ar      1 RES1    0.0000
     10 C4         7.7236    7.5226   10.3595 C.ar      1 RES1    0.0000
     11 C5         7.8226    8.4358   11.3689 C.ar      1 RES1    0.0000
     12 C6         6.6963    8.8032   12.1118 C.ar      1 RES1    0.0000
     13 C7         5.4657    8.2392   11.8929 C.ar      1 RES1    0.0000
     14 C8         5.3843    7.3167   10.8736 C.ar      1 RES1    0.0000
     15 C9         6.8585    5.2519    8.1287 C.3       1 RES1    0.0000
     16 C10        7.1863    3.8456    8.5249 C.2       1 RES1    0.0000
     17 C11        6.3345    2.8379    8.3100 C.2       1 RES1    0.0000
     18 C12        7.8424    1.2912    9.4095 C.2       1 RES1    0.0000
     19 C13        8.7458    2.3841    9.6384 C.2       1 RES1    0.0000
     20 C14        5.0041    2.4461    6.3585 C.3       1 RES1    0.0000
     21 C15        8.1259   -0.0699    9.8404 C.3       1 RES1    0.0000
     22 C16        7.5494   -0.4024   11.2520 C.3       1 RES1    0.0000
     23 C17        7.7733   -1.8776   11.4481 C.3       1 RES1    0.0000
     24 C18        8.1569    0.4189   12.3793 C.3       1 RES1    0.0000
     25 H1         3.2878    6.7827   10.9855 H         1 RES1    0.0000
     26 H2         9.3317    4.3549    9.2322 H         1 RES1    0.0000
     27 H3         4.1407    5.0452    9.0044 H         1 RES1    0.0000
     28 H4         8.4447    7.2856    9.7968 H         1 RES1    0.0000
     29 H5         8.6455    8.8727   11.5106 H         1 RES1    0.0000
     30 H6         6.8384    9.4558   12.7785 H         1 RES1    0.0000
     31 H7         4.5000    8.4064   12.5308 H         1 RES1    0.0000
     32 H8         7.6239    5.6785    8.0138 H         1 RES1    0.0000
     33 H9         6.2570    5.0878    7.2709 H         1 RES1    0.0000
     34 H10        7.7063   -0.7207    9.0539 H         1 RES1    0.0000
     35 H11        8.9078   -0.1772    9.9553 H         1 RES1    0.0000
     36 H12        6.6218   -0.1666   11.2827 H         1 RES1    0.0000
     37 O4         0.2290    3.4952    6.2981 O.3       2 RES2    0.0000
     38 O5         1.9100    2.8121    4.4160 O.2       2 RES2   -1.0000
     39 O6        -0.2140   -1.2525    3.8514 O.2       2 RES2    0.0000
     40 N4        -3.8056    4.8029    5.4106 N.3       2 RES2    0.0000
     41 N5        -1.0459    0.3029    5.2808 N.am      2 RES2    0.0000
     42 N6         0.9952    1.9405    4.6983 N.pl3     2 RES2    1.0000
     43 C19       -2.8828    4.2342    6.2615 C.2       2 RES2    0.0000
     44 C20       -2.9903    2.8777    6.1634 C.2       2 RES2    0.0000
     45 C21       -4.0161    2.5991    5.2223 C.ar      2 RES2    0.0000
     46 C22       -4.5558    1.4304    4.7072 C.ar      2 RES2    0.0000
     47 C23       -5.5121    1.5101    3.7444 C.ar      2 RES2    0.0000
     48 C24       -5.9801    2.7548    3.3135 C.ar      2 RES2    0.0000
     49 C25       -5.4897    3.9199    3.8088 C.ar      2 RES2    0.0000
     50 C26       -4.5065    3.8301    4.7647 C.ar      2 RES2    0.0000
     51 C27       -2.0941    1.9008    6.8627 C.3       2 RES2    0.0000
     52 C28       -0.9683    1.4761    5.9623 C.2       2 RES2    0.0000
     53 C29        0.0822    2.3004    5.7028 C.2       2 RES2    0.0000
     54 C30        0.9067    0.8018    4.0188 C.2       2 RES2    0.0000
     55 C31       -0.1311   -0.1335    4.3605 C.2       2 RES2    0.0000
     56 C32        1.1968    3.5312    7.3996 C.3       2 RES2    0.0000
     57 C33        1.8332    0.5590    2.8757 C.3       2 RES2    0.0000
     58 C34        3.2453    0.0948    3.2442 C.3       2 RES2    0.0000
     59 C35        4.1036    0.0247    1.9574 C.3       2 RES2    0.0000
     60 C36        3.1929   -1.2929    3.9732 C.3       2 RES2    0.0000
     61 H13       -3.7161    5.5974    5.1510 H         2 RES2    0.0000
     62 H14       -1.6126   -0.3087    5.3987 H         2 RES2    0.0000
     63 H15       -2.2046    4.7445    6.9242 H         2 RES2    0.0000
     64 H16       -4.3460    0.6235    5.1312 H         2 RES2    0.0000
     65 H17       -6.0054    0.6378    3.4472 H         2 RES2    0.0000
     66 H18       -6.5692    2.8055    2.5755 H         2 RES2    0.0000
     67 H19       -5.7691    4.8074    3.4868 H         2 RES2    0.0000
     68 H20       -1.8181    2.2740    7.6770 H         2 RES2    0.0000
     69 H21       -2.6190    1.0449    7.0331 H         2 RES2    0.0000
     70 H22        1.5462   -0.2071    2.1496 H         2 RES2    0.0000
     71 H23        1.8116    1.2059    2.3576 H         2 RES2    0.0000
     72 H24        3.5794    0.4509    3.8930 H         2 RES2    0.0000
@<TRIPOS>BOND
     1    1   17 1
     2    2    6 1
     3    3   19 2
     4    4    7 1
     5    5   16 1
     6    6   17 1
     7    7    8 2
     8    8    9 1
     9    9   10 ar
    10   10   11 ar
    11   11   12 ar
    12   12   13 ar
    13   13   14 ar
    14   14    4 1
    15   15    8 1
    16   16   15 1
    17   17   16 2
    18   18    6 2
    19   19    5 1
    20   20    1 1
    21   21   18 1
    22   22   21 1
    23   23   22 1
    24   24   22 1
    25   25    4 1
    26   26    5 1
    27   27    7 1
    28   28   10 1
    29   29   11 1
    30   30   12 1
    31   31   13 1
    32   32   15 1
    33   33   15 1
    34   34   21 1
    35   35   21 1
    36   36   22 1
    37   37   53 1
    38   38   42 1
    39   39   55 2
    40   40   43 1
    41   41   52 1
    42   42   53 1
    43   43   44 2
    44   44   45 1
    45   45   46 ar
    46   46   47 ar
    47   47   48 ar
    48   48   49 ar
    49   49   50 ar
    50   50   40 1
    51   51   44 1
    52   52   51 1
    53   53   52 2
    54   54   42 2
    55   55   41 1
    56   56   37 1
    57   57   54 1
    58   58   57 1
    59   59   58 1
    60   60   58 1
    61   61   40 1
    62   62   41 1
    63   63   43 1
    64   64   46 1
    65   65   47 1
    66   66   48 1
    67   67   49 1
    68   68   51 1
    69   69   51 1
    70   70   57 1
    71   71   57 1
    72   72   58 1
    73    9   14 ar
    74   18   19 1
    75   45   50 ar
    76   54   55 1
@<TRIPOS>SUBSTRUCTURE
     1 RES1 1
     2 RES2 37

@<TRIPOS>CRYSIN
  12.7860   13.5640   10.8040 107.0000 106.9300  86.0700   2 1

