# MOL2 file generated by ConQuest
# Please check atom types

@<TRIPOS>MOLECULE
JODHOA
    21    22     1
SMALL
NO_CHARGES
****
Generated from CSD

@<TRIPOS>ATOM
      1 N1         7.2784    2.7064    1.7934 N.pl3     1 RES1    0.0000
      2 N2         6.6678    2.3684    0.6120 N.2       1 RES1    0.0000
      3 N3         5.6451    1.6683    0.9296 N.2       1 RES1    0.0000
      4 N4         5.5278    1.5242    2.2786 N.2       1 RES1    0.0000
      5 N5         6.8510    2.2697    4.1069 N.pl3     1 RES1    0.0000
      6 H1         6.2748    1.9375    4.6632 H         1 RES1    0.0000
      7 H2         7.3981    2.9019    4.3628 H         1 RES1    0.0000
      8 C1         6.5570    2.1752    2.8054 C.2       1 RES1    0.0000
      9 C2         8.4948    3.4428    1.8258 C.ar      1 RES1    0.0000
     10 C3         8.5690    4.6681    1.1819 C.ar      1 RES1    0.0000
     11 H3         7.8164    5.0527    0.7240 H         1 RES1    0.0000
     12 C4         9.7561    5.3877    1.2493 C.ar      1 RES1    0.0000
     13 H4         9.8267    6.2658    0.7746 H         1 RES1    0.0000
     14 C5        10.8140    4.8529    1.9596 C.ar      1 RES1    0.0000
     15 C6        10.7618    3.6184    2.5706 C.ar      1 RES1    0.0000
     16 H5        11.5361    3.2502    3.0153 H         1 RES1    0.0000
     17 C7         9.5777    2.8988    2.4978 C.ar      1 RES1    0.0000
     18 H6         9.5128    2.0125    2.9070 H         1 RES1    0.0000
     19 N6        12.0424    5.6404    2.1036 N.pl3     1 RES1    0.0000
     20 O1        12.0245    6.8131    1.7651 O.2       1 RES1    0.0000
     21 O2        13.0275    5.0932    2.5883 O.2       1 RES1    0.0000
@<TRIPOS>BOND
     1    1    2 1
     2    2    3 2
     3    3    4 1
     4    4    8 2
     5    5    6 1
     6    7    5 1
     7    8    1 1
     8    9    1 1
     9   10    9 ar
    10   11   10 1
    11   12   10 ar
    12   13   12 1
    13   14   12 ar
    14   15   14 ar
    15   16   15 1
    16   17    9 ar
    17   18   17 1
    18   19   14 1
    19   20   19 2
    20   21   19 2
    21    5    8 1
    22   15   17 ar
@<TRIPOS>SUBSTRUCTURE
     1 RES1 1

@<TRIPOS>CRYSIN
   7.8891    7.9921    8.5877  68.1350  74.0490  63.1350   2 1

