# MOL2 file generated by ConQuest
# Please check atom types

@<TRIPOS>MOLECULE
JODKET
    64    68     2
SMALL
NO_CHARGES
****
Generated from CSD

@<TRIPOS>ATOM
      1 C1        -1.6169   11.3340    1.5229 C.2       1 RES1    0.0000
      2 C2        -0.6046   12.4879   -1.1392 C.3       1 RES1    0.0000
      3 H1        -1.1402   12.2645   -1.9164 H         1 RES1    0.0000
      4 H2        -0.1371   11.6900   -0.8469 H         1 RES1    0.0000
      5 C3         0.3654   13.5602   -1.4702 C.ar      1 RES1    0.0000
      6 C4         0.2384   14.2913   -2.6055 C.ar      1 RES1    0.0000
      7 H3        -0.4711   14.1181   -3.1804 H         1 RES1    0.0000
      8 C5         1.1334   15.2793   -2.9240 C.ar      1 RES1    0.0000
      9 H4         1.0277   15.7589   -3.7137 H         1 RES1    0.0000
     10 C6         2.1359   15.5545   -2.1245 C.ar      1 RES1    0.0000
     11 H5         2.7253   16.2404   -2.3423 H         1 RES1    0.0000
     12 C7         2.3216   14.8455   -0.9805 C.ar      1 RES1    0.0000
     13 H6         3.0446   15.0315   -0.4249 H         1 RES1    0.0000
     14 C8         1.4207   13.8377   -0.6465 C.ar      1 RES1    0.0000
     15 H7         1.5358   13.3535    0.1384 H         1 RES1    0.0000
     16 C9        -3.4198    8.8354    3.3342 C.ar      1 RES1    0.0000
     17 C10       -3.5842    7.9096    4.3545 C.ar      1 RES1    0.0000
     18 H8        -4.3690    7.4207    4.4484 H         1 RES1    0.0000
     19 C11       -2.5358    7.7544    5.2159 C.ar      1 RES1    0.0000
     20 H9        -2.6081    7.1438    5.9137 H         1 RES1    0.0000
     21 C12       -1.3651    8.4851    5.0746 C.ar      1 RES1    0.0000
     22 H10       -0.6757    8.3444    5.6834 H         1 RES1    0.0000
     23 C13       -1.1804    9.4031    4.0780 C.ar      1 RES1    0.0000
     24 H11       -0.3945    9.8943    3.9954 H         1 RES1    0.0000
     25 C14       -2.2432    9.5549    3.1977 C.ar      1 RES1    0.0000
     26 N1        -2.1756   11.9754    0.4991 N.am      1 RES1    0.0000
     27 H12       -2.9587   11.7665    0.2120 H         1 RES1    0.0000
     28 N2        -2.4716   10.3524    2.0980 N.am      1 RES1    0.0000
     29 N3        -3.7349   10.1300    1.6077 N.2       1 RES1    0.0000
     30 N4        -4.2977    9.2247    2.3427 N.2       1 RES1    0.0000
     31 O1        -0.5179   11.5138    1.9765 O.2       1 RES1    0.0000
     32 O2        -1.4412   12.9936   -0.0831 O.3       1 RES1    0.0000
     33 C15       -8.3129    9.4438    2.0220 C.2       2 RES2    0.0000
     34 C16       -6.6924    8.3128   -0.3863 C.3       2 RES2    0.0000
     35 H13       -5.8283    8.7536   -0.3465 H         2 RES2    0.0000
     36 H14       -7.3485    8.9540   -0.7017 H         2 RES2    0.0000
     37 C17       -6.6298    7.1471   -1.3109 C.ar      2 RES2    0.0000
     38 C18       -7.7849    6.6416   -1.8728 C.ar      2 RES2    0.0000
     39 H15       -8.6073    7.0157   -1.6493 H         2 RES2    0.0000
     40 C19       -7.7347    5.5925   -2.7575 C.ar      2 RES2    0.0000
     41 H16       -8.5221    5.2716   -3.1340 H         2 RES2    0.0000
     42 C20       -6.5658    5.0267   -3.0856 C.ar      2 RES2    0.0000
     43 H17       -6.5503    4.3169   -3.6847 H         2 RES2    0.0000
     44 C21       -5.4024    5.4809   -2.5494 C.ar      2 RES2    0.0000
     45 H18       -4.5936    5.0835   -2.7778 H         2 RES2    0.0000
     46 C22       -5.4337    6.5550   -1.6483 C.ar      2 RES2    0.0000
     47 H19       -4.6415    6.8689   -1.2757 H         2 RES2    0.0000
     48 C23       -8.7136   12.1267    4.3423 C.ar      2 RES2    0.0000
     49 C24       -9.4284   13.1215    4.9836 C.ar      2 RES2    0.0000
     50 H20       -9.0344   13.6594    5.6311 H         2 RES2    0.0000
     51 C25      -10.7349   13.2802    4.6255 C.ar      2 RES2    0.0000
     52 H21      -11.2445   13.9383    5.0407 H         2 RES2    0.0000
     53 C26      -11.3223   12.4722    3.6450 C.ar      2 RES2    0.0000
     54 H22      -12.2149   12.6117    3.4234 H         2 RES2    0.0000
     55 C27      -10.6293   11.4867    3.0004 C.ar      2 RES2    0.0000
     56 H23      -11.0268   10.9544    2.3490 H         2 RES2    0.0000
     57 C28       -9.2999   11.3203    3.3708 C.ar      2 RES2    0.0000
     58 N5        -7.1285    8.8864    1.8101 N.am      2 RES2    0.0000
     59 H24       -6.4244    9.1731    2.2116 H         2 RES2    0.0000
     60 N6        -8.2858   10.4911    2.9794 N.am      2 RES2    0.0000
     61 N7        -7.1323   10.7849    3.6836 N.2       2 RES2    0.0000
     62 N8        -7.3888   11.7537    4.4876 N.2       2 RES2    0.0000
     63 O3        -9.3614    9.1466    1.4951 O.2       2 RES2    0.0000
     64 O4        -7.0623    7.8282    0.9218 O.3       2 RES2    0.0000
@<TRIPOS>BOND
     1    1   26 1
     2    2    3 1
     3    4    2 1
     4    5    2 1
     5    6    5 ar
     6    7    6 1
     7    8    6 ar
     8    9    8 1
     9   10    8 ar
    10   11   10 1
    11   12   10 ar
    12   13   12 1
    13   14    5 ar
    14   15   14 1
    15   16   17 ar
    16   17   18 1
    17   19   17 ar
    18   20   19 1
    19   21   19 ar
    20   22   21 1
    21   23   21 ar
    22   24   23 1
    23   25   16 ar
    24   26   27 1
    25   28    1 1
    26   29   28 1
    27   30   16 1
    28   31    1 2
    29   32    2 1
    30   33   58 1
    31   34   35 1
    32   36   34 1
    33   37   34 1
    34   38   37 ar
    35   39   38 1
    36   40   38 ar
    37   41   40 1
    38   42   40 ar
    39   43   42 1
    40   44   42 ar
    41   45   44 1
    42   46   37 ar
    43   47   46 1
    44   48   49 ar
    45   49   50 1
    46   51   49 ar
    47   52   51 1
    48   53   51 ar
    49   54   53 1
    50   55   53 ar
    51   56   55 1
    52   57   48 ar
    53   58   59 1
    54   60   33 1
    55   61   60 1
    56   62   48 1
    57   63   33 2
    58   64   34 1
    59   12   14 ar
    60   23   25 ar
    61   25   28 1
    62   26   32 1
    63   29   30 2
    64   44   46 ar
    65   55   57 ar
    66   57   60 1
    67   58   64 1
    68   61   62 2
@<TRIPOS>SUBSTRUCTURE
     1 RES1 1
     2 RES2 33

@<TRIPOS>CRYSIN
  13.4267   20.6647   11.0684  90.0000 119.0200  90.0000  14 1

