# MOL2 file generated by ConQuest
# Please check atom types

@<TRIPOS>MOLECULE
JODROK
    22    23     1
SMALL
NO_CHARGES
****
Generated from CSD

@<TRIPOS>ATOM
      1 N1         4.3650    0.4502   11.2945 N.pl3     1 RES1    0.0000
      2 O1         2.2107    0.1077    9.2771 O.3       1 RES1    0.0000
      3 C1         0.9074    0.2912    7.2930 C.3       1 RES1    0.0000
      4 H1         1.6083   -0.1474    6.8049 H         1 RES1    0.0000
      5 H2         1.0599    1.2393    7.2888 H         1 RES1    0.0000
      6 H3         0.0623    0.1012    6.8785 H         1 RES1    0.0000
      7 O2         4.7281    0.2955   10.1406 O.2       1 RES1    0.0000
      8 C2         0.8964   -0.1799    8.6320 C.3       1 RES1    0.0000
      9 H4         0.7978   -1.1547    8.5960 H         1 RES1    0.0000
     10 O3         5.1376    0.4979   12.2297 O.2       1 RES1    0.0000
     11 C3        -0.1449    0.3418    9.6098 C.3       1 RES1    0.0000
     12 H5        -0.5173    1.1836    9.3062 H         1 RES1    0.0000
     13 H6        -0.8636   -0.2984    9.7278 H         1 RES1    0.0000
     14 C4         0.6344    0.5239   10.8879 C.ar      1 RES1    0.0000
     15 C5         0.2401    0.8035   12.1586 C.ar      1 RES1    0.0000
     16 H7        -0.6639    0.8960   12.3593 H         1 RES1    0.0000
     17 C6         1.1930    0.9495   13.1512 C.ar      1 RES1    0.0000
     18 H8         0.9209    1.1251   14.0230 H         1 RES1    0.0000
     19 C7         2.5275    0.8411   12.8737 C.ar      1 RES1    0.0000
     20 H9         3.1568    0.9531   13.5505 H         1 RES1    0.0000
     21 C8         2.9412    0.5593   11.5622 C.ar      1 RES1    0.0000
     22 C9         1.9883    0.3880   10.5758 C.ar      1 RES1    0.0000
@<TRIPOS>BOND
     1    1    7 2
     2    2    8 1
     3    3    4 1
     4    5    3 1
     5    6    3 1
     6    8    3 1
     7    9    8 1
     8   10    1 2
     9   11    8 1
    10   12   11 1
    11   13   11 1
    12   14   11 1
    13   15   14 ar
    14   16   15 1
    15   17   15 ar
    16   18   17 1
    17   19   17 ar
    18   20   19 1
    19   21    1 1
    20   22    2 1
    21   14   22 ar
    22   19   21 ar
    23   21   22 ar
@<TRIPOS>SUBSTRUCTURE
     1 RES1 1

@<TRIPOS>CRYSIN
   8.4250    7.2260   28.2950  90.0000  90.0000  90.0000  61 1

