# MOL2 file generated by ConQuest
# Please check atom types

@<TRIPOS>MOLECULE
JODSEA
    62    64     2
SMALL
NO_CHARGES
****
Generated from CSD

@<TRIPOS>ATOM
      1 C1         0.6765    3.0485    1.0948 C.ar      1 RES1    0.0000
      2 N1         1.8769    3.4114    1.7227 N.am      1 RES1    0.0000
      3 C2         0.1723    1.7888    1.3848 C.ar      1 RES1    0.0000
      4 C3        -0.9840    1.3510    0.7872 C.ar      1 RES1    0.0000
      5 C4        -1.6482    2.1974   -0.0876 C.ar      1 RES1    0.0000
      6 N2        -2.9011    1.7244   -0.7092 N.pl3     1 RES1    0.0000
      7 O1        -3.5511    2.5486   -1.3386 O.2       1 RES1    0.0000
      8 O2        -3.2235    0.5877   -0.5530 O.2       1 RES1    0.0000
      9 C5        -1.1852    3.4383   -0.3586 C.ar      1 RES1    0.0000
     10 C6        -0.0189    3.8738    0.2231 C.ar      1 RES1    0.0000
     11 C7         2.7409    4.3901    1.3833 C.2       1 RES1    0.0000
     12 O3         2.5144    5.2166    0.5004 O.2       1 RES1    0.0000
     13 C8         4.0737    4.3351    2.0860 C.3       1 RES1    0.0000
     14 C9         5.0299    3.5894    1.1856 C.ar      1 RES1    0.0000
     15 C10        5.0118    2.2103    1.1219 C.ar      1 RES1    0.0000
     16 C11        5.8089    1.5324    0.2183 C.ar      1 RES1    0.0000
     17 C12        6.6403    2.2255   -0.6263 C.ar      1 RES1    0.0000
     18 C13        6.6735    3.5976   -0.5689 C.ar      1 RES1    0.0000
     19 C14        5.8739    4.2754    0.3331 C.ar      1 RES1    0.0000
     20 C15        2.9790   -0.5409    5.4788 C.ar      2 RES2    0.0000
     21 N3         2.2673    0.6053    5.8772 N.am      2 RES2    0.0000
     22 C16        2.7076   -1.7233    6.1386 C.ar      2 RES2    0.0000
     23 C17        3.3737   -2.8834    5.8167 C.ar      2 RES2    0.0000
     24 C18        4.3150   -2.8460    4.8366 C.ar      2 RES2    0.0000
     25 N4         5.0197   -4.0857    4.4669 N.pl3     2 RES2    0.0000
     26 O4         5.9386   -3.9991    3.6717 O.2       2 RES2    0.0000
     27 O5         4.6828   -5.1312    5.0007 O.2       2 RES2    0.0000
     28 C19        4.6385   -1.6811    4.1944 C.ar      2 RES2    0.0000
     29 C20        3.9686   -0.5221    4.5147 C.ar      2 RES2    0.0000
     30 C21        2.1162    1.7596    5.1904 C.2       2 RES2    0.0000
     31 O6         2.5030    1.8954    4.0350 O.2       2 RES2    0.0000
     32 C22        1.4478    2.8694    5.9760 C.3       2 RES2    0.0000
     33 C23        0.9039    3.9792    5.1250 C.ar      2 RES2    0.0000
     34 C24       -0.3801    3.9254    4.6406 C.ar      2 RES2    0.0000
     35 C25       -0.8794    4.9275    3.8167 C.ar      2 RES2    0.0000
     36 C26       -0.0785    5.9858    3.4948 C.ar      2 RES2    0.0000
     37 C27        1.1781    6.0666    3.9776 C.ar      2 RES2    0.0000
     38 C28        1.6680    5.0703    4.7920 C.ar      2 RES2    0.0000
     39 H1         2.1994    2.8249    2.4350 H         1 RES1    0.0000
     40 H2         0.6335    1.2210    2.0064 H         1 RES1    0.0000
     41 H3        -1.3270    0.4730    0.9705 H         1 RES1    0.0000
     42 H4        -1.6705    4.0132   -0.9562 H         1 RES1    0.0000
     43 H5         0.3172    4.7507    0.0255 H         1 RES1    0.0000
     44 H6         4.3972    5.2248    2.2422 H         1 RES1    0.0000
     45 H7         3.9842    3.8750    2.9227 H         1 RES1    0.0000
     46 H8         4.4379    1.7151    1.7099 H         1 RES1    0.0000
     47 H9         5.7814    0.5736    0.1817 H         1 RES1    0.0000
     48 H10        7.1940    1.7537   -1.2526 H         1 RES1    0.0000
     49 H11        7.2530    4.0869   -1.1570 H         1 RES1    0.0000
     50 H12        5.9062    5.2342    0.3665 H         1 RES1    0.0000
     51 H13        1.8430    0.5526    6.7569 H         2 RES2    0.0000
     52 H14        2.0449   -1.7350    6.8318 H         2 RES2    0.0000
     53 H15        3.1780   -3.7029    6.2756 H         2 RES2    0.0000
     54 H16        5.3267   -1.6729    3.5267 H         2 RES2    0.0000
     55 H17        4.1882    0.2985    4.0685 H         2 RES2    0.0000
     56 H18        2.0927    3.2417    6.5816 H         2 RES2    0.0000
     57 H19        0.7216    2.4901    6.4764 H         2 RES2    0.0000
     58 H20       -0.9446    3.1843    4.8764 H         2 RES2    0.0000
     59 H21       -1.7749    4.8771    3.4757 H         2 RES2    0.0000
     60 H22       -0.4116    6.6777    2.9211 H         2 RES2    0.0000
     61 H23        1.7303    6.8205    3.7545 H         2 RES2    0.0000
     62 H24        2.5625    5.1405    5.1314 H         2 RES2    0.0000
@<TRIPOS>BOND
     1    1    2 1
     2    2   11 1
     3    3    1 ar
     4    4    3 ar
     5    5    4 ar
     6    6    5 1
     7    7    6 2
     8    8    6 2
     9    9    5 ar
    10   10    1 ar
    11   11   12 2
    12   13   11 1
    13   14   13 1
    14   15   14 ar
    15   16   15 ar
    16   17   16 ar
    17   18   17 ar
    18   19   14 ar
    19   20   21 1
    20   21   30 1
    21   22   20 ar
    22   23   22 ar
    23   24   23 ar
    24   25   24 1
    25   26   25 2
    26   27   25 2
    27   28   24 ar
    28   29   20 ar
    29   30   31 2
    30   32   30 1
    31   33   32 1
    32   34   33 ar
    33   35   34 ar
    34   36   35 ar
    35   37   36 ar
    36   38   33 ar
    37   39    2 1
    38   40    3 1
    39   41    4 1
    40   42    9 1
    41   43   10 1
    42   44   13 1
    43   45   13 1
    44   46   15 1
    45   47   16 1
    46   48   17 1
    47   49   18 1
    48   50   19 1
    49   51   21 1
    50   52   22 1
    51   53   23 1
    52   54   28 1
    53   55   29 1
    54   56   32 1
    55   57   32 1
    56   58   34 1
    57   59   35 1
    58   60   36 1
    59   61   37 1
    60   62   38 1
    61    9   10 ar
    62   18   19 ar
    63   28   29 ar
    64   37   38 ar
@<TRIPOS>SUBSTRUCTURE
     1 RES1 1
     2 RES2 20

@<TRIPOS>CRYSIN
  13.8900   11.7070   16.2410  90.0000 101.1200  90.0000  14 1

