# MOL2 file generated by ConQuest
# Please check atom types

@<TRIPOS>MOLECULE
JOFGER
    60    62     2
SMALL
NO_CHARGES
****
Generated from CSD

@<TRIPOS>ATOM
      1 O1         1.6721    7.0469    2.7454 O.3       1 RES1    0.0000
      2 N1         0.3778   10.8962    5.2066 N.pl3     1 RES1    0.0000
      3 C1         1.8918    7.6489    6.3497 C.ar      1 RES1    0.0000
      4 N2         2.1806    7.2757    7.6472 N.pl3     1 RES1    0.0000
      5 C2         1.3557    8.9527    6.4480 C.ar      1 RES1    0.0000
      6 C3         1.0508    8.8762    4.0446 C.ar      1 RES1    0.0000
      7 H1         0.7525    9.2801    3.2614 H         1 RES1    0.0000
      8 C4         2.0545    6.9469    5.1510 C.ar      1 RES1    0.0000
      9 H2         2.4377    6.1003    5.1264 H         1 RES1    0.0000
     10 O2        -0.2131   11.2606    4.1939 O.2       1 RES1    0.0000
     11 C5         0.9420    9.5465    5.2470 C.ar      1 RES1    0.0000
     12 C6         1.6111    7.5857    3.9979 C.ar      1 RES1    0.0000
     13 N3         1.3114    9.3558    7.7754 N.2       1 RES1    0.0000
     14 O3         0.5248   11.6127    6.1867 O.2       1 RES1    0.0000
     15 C7         1.6554    4.8753    7.8671 C.3       1 RES1    0.0000
     16 H3         0.8785    5.0825    8.3914 H         1 RES1    0.0000
     17 H4         2.0106    4.0279    8.1437 H         1 RES1    0.0000
     18 H5         1.4133    4.8329    6.9393 H         1 RES1    0.0000
     19 C8         2.2085    5.7241    2.6413 C.3       1 RES1    0.0000
     20 H6         3.1015    5.7114    2.9940 H         1 RES1    0.0000
     21 H7         2.2253    5.4570    1.7196 H         1 RES1    0.0000
     22 H8         1.6592    5.1161    3.1412 H         1 RES1    0.0000
     23 C9         2.7084    5.9584    8.0689 C.3       1 RES1    0.0000
     24 H9         3.4896    5.7418    7.5191 H         1 RES1    0.0000
     25 C10        1.8006    8.3258    8.4309 C.2       1 RES1    0.0000
     26 H10        1.8815    8.3135    9.3571 H         1 RES1    0.0000
     27 C11        3.1405    6.0169    9.5255 C.3       1 RES1    0.0000
     28 H11        3.7761    6.7276    9.6425 H         1 RES1    0.0000
     29 H12        3.5446    5.1817    9.7736 H         1 RES1    0.0000
     30 H13        2.3743    6.1787   10.0805 H         1 RES1    0.0000
     31 C12        4.8696    8.8845    1.9626 C.ar      2 RES2    0.0000
     32 N4         3.9570   10.8405    3.2241 N.pl3     2 RES2    0.0000
     33 O4         5.6750    7.1573    5.6785 O.3       2 RES2    0.0000
     34 C13        4.5876    9.5227    3.1803 C.ar      2 RES2    0.0000
     35 N5         5.6547    7.2112    0.7415 N.3       2 RES2    0.0000
     36 C14        5.4652    7.6070    2.0498 C.ar      2 RES2    0.0000
     37 C15        5.4622    7.6388    4.4181 C.ar      2 RES2    0.0000
     38 C16        5.7755    6.9590    3.2462 C.ar      2 RES2    0.0000
     39 H14        6.1709    6.1179    3.2596 H         2 RES2    0.0000
     40 N6         4.7120    9.2569    0.6383 N.2       2 RES2    0.0000
     41 C17        4.8751    8.9173    4.3845 C.ar      2 RES2    0.0000
     42 H15        4.6798    9.3569    5.1803 H         2 RES2    0.0000
     43 O5         4.0220   11.4923    4.2623 O.2       2 RES2    0.0000
     44 O6         3.3896   11.2448    2.2188 O.2       2 RES2    0.0000
     45 C18        5.1778    4.7985    0.5936 C.3       2 RES2    0.0000
     46 H16        4.9303    4.8233    1.5203 H         2 RES2    0.0000
     47 H17        5.5674    3.9447    0.3895 H         2 RES2    0.0000
     48 H18        4.3979    4.9321    0.0503 H         2 RES2    0.0000
     49 C19        5.1889    8.2289   -0.0346 C.2       2 RES2    0.0000
     50 H19        5.2061    8.2015   -0.9639 H         2 RES2    0.0000
     51 C20        6.1876    5.8977    0.3089 C.3       2 RES2    0.0000
     52 H20        7.0021    5.7098    0.8203 H         2 RES2    0.0000
     53 C21        6.5460    5.9425   -1.1676 C.3       2 RES2    0.0000
     54 H21        5.7470    6.0507   -1.6873 H         2 RES2    0.0000
     55 H22        6.9807    5.1241   -1.4162 H         2 RES2    0.0000
     56 H23        7.1373    6.6812   -1.3319 H         2 RES2    0.0000
     57 C22        6.2030    5.8305    5.7753 C.3       2 RES2    0.0000
     58 H24        5.6041    5.2153    5.3454 H         2 RES2    0.0000
     59 H25        6.2985    5.5914    6.7006 H         2 RES2    0.0000
     60 H26        7.0601    5.7947    5.3454 H         2 RES2    0.0000
@<TRIPOS>BOND
     1    1   12 1
     2    2   10 2
     3    3    4 1
     4    4   23 1
     5    5    3 ar
     6    6    7 1
     7    8    3 ar
     8    9    8 1
     9   11    2 1
    10   12    6 ar
    11   13    5 1
    12   14    2 2
    13   15   16 1
    14   17   15 1
    15   18   15 1
    16   19    1 1
    17   20   19 1
    18   21   19 1
    19   22   19 1
    20   23   15 1
    21   24   23 1
    22   25    4 1
    23   26   25 1
    24   27   23 1
    25   28   27 1
    26   29   27 1
    27   30   27 1
    28   31   34 ar
    29   32   34 1
    30   33   37 1
    31   34   41 ar
    32   35   36 1
    33   36   31 ar
    34   37   38 ar
    35   38   36 ar
    36   39   38 1
    37   40   31 1
    38   41   37 ar
    39   42   41 1
    40   43   32 2
    41   44   32 2
    42   45   46 1
    43   47   45 1
    44   48   45 1
    45   49   35 1
    46   50   49 1
    47   51   35 1
    48   52   51 1
    49   53   51 1
    50   54   53 1
    51   55   53 1
    52   56   53 1
    53   57   33 1
    54   58   57 1
    55   59   57 1
    56   60   57 1
    57    5   11 ar
    58    6   11 ar
    59    8   12 ar
    60   13   25 2
    61   40   49 2
    62   45   51 1
@<TRIPOS>SUBSTRUCTURE
     1 RES1 1
     2 RES2 31

@<TRIPOS>CRYSIN
   7.6392   16.0029   17.9496  90.0000  90.0000  90.0000  19 1

