# MOL2 file generated by ConQuest
# Please check atom types

@<TRIPOS>MOLECULE
JOFGUH
    36    37     1
SMALL
NO_CHARGES
****
Generated from CSD

@<TRIPOS>ATOM
      1 N1         0.8066   14.6935    3.7999 N.2       1 RES1    0.0000
      2 N2         1.5556   15.8115    3.5449 N.pl3     1 RES1    0.0000
      3 H1         1.5877   16.1424    2.7526 H         1 RES1    0.0000
      4 N3         4.4210   18.2733    7.6570 N.pl3     1 RES1    0.0000
      5 O1        -2.2887   10.2120    1.4225 O.3       1 RES1    0.0000
      6 O2         4.4121   17.7663    8.7797 O.2       1 RES1    0.0000
      7 O3         5.0292   19.3286    7.4165 O.2       1 RES1    0.0000
      8 C1        -0.6218   12.9389    3.1484 C.ar      1 RES1    0.0000
      9 C2        -1.1387   12.1052    2.1667 C.ar      1 RES1    0.0000
     10 H2        -1.0053   12.3174    1.2713 H         1 RES1    0.0000
     11 C3        -1.8512   10.9602    2.4962 C.ar      1 RES1    0.0000
     12 C4        -2.0776   10.6333    3.8044 C.ar      1 RES1    0.0000
     13 H3        -2.5530    9.8663    4.0291 H         1 RES1    0.0000
     14 C5        -1.5806   11.4739    4.7864 C.ar      1 RES1    0.0000
     15 H4        -1.7373   11.2673    5.6789 H         1 RES1    0.0000
     16 C6        -0.8651   12.6016    4.4805 C.ar      1 RES1    0.0000
     17 H5        -0.5406   13.1427    5.1620 H         1 RES1    0.0000
     18 C7         0.1629   14.1511    2.8159 C.2       1 RES1    0.0000
     19 C8         0.1812   14.6917    1.4153 C.3       1 RES1    0.0000
     20 H6         0.0110   15.6359    1.4344 H         1 RES1    0.0000
     21 H7        -0.4973   14.2546    0.8954 H         1 RES1    0.0000
     22 H8         1.0411   14.5289    1.0207 H         1 RES1    0.0000
     23 C9        -2.9654    8.9896    1.7037 C.3       1 RES1    0.0000
     24 H9        -2.4211    8.4480    2.2789 H         1 RES1    0.0000
     25 H10       -3.1314    8.5197    0.8836 H         1 RES1    0.0000
     26 H11       -3.8000    9.1794    2.1379 H         1 RES1    0.0000
     27 C10        2.2558   16.3964    4.5744 C.ar      1 RES1    0.0000
     28 C11        2.2827   15.8439    5.8581 C.ar      1 RES1    0.0000
     29 H12        1.8202   15.0577    6.0365 H         1 RES1    0.0000
     30 C12        2.9960   16.4673    6.8584 C.ar      1 RES1    0.0000
     31 H13        3.0088   16.1053    7.7150 H         1 RES1    0.0000
     32 C13        3.6898   17.6269    6.5934 C.ar      1 RES1    0.0000
     33 C14        3.6961   18.1782    5.3206 C.ar      1 RES1    0.0000
     34 H14        4.1797   18.9518    5.1451 H         1 RES1    0.0000
     35 C15        2.9770   17.5639    4.3223 C.ar      1 RES1    0.0000
     36 H15        2.9713   17.9313    3.4679 H         1 RES1    0.0000
@<TRIPOS>BOND
     1    1    2 1
     2    2    3 1
     3    4    6 2
     4    5   11 1
     5    7    4 2
     6    8    9 ar
     7    9   10 1
     8   11    9 ar
     9   12   11 ar
    10   13   12 1
    11   14   12 ar
    12   15   14 1
    13   16    8 ar
    14   17   16 1
    15   18    1 2
    16   19   18 1
    17   20   19 1
    18   21   19 1
    19   22   19 1
    20   23    5 1
    21   24   23 1
    22   25   23 1
    23   26   23 1
    24   27    2 1
    25   28   27 ar
    26   29   28 1
    27   30   28 ar
    28   31   30 1
    29   32    4 1
    30   33   32 ar
    31   34   33 1
    32   35   27 ar
    33   36   35 1
    34    8   18 1
    35   14   16 ar
    36   30   32 ar
    37   33   35 ar
@<TRIPOS>SUBSTRUCTURE
     1 RES1 1

@<TRIPOS>CRYSIN
   4.2977   24.7090   13.1320  90.0000  96.3320  90.0000  14 1

