# MOL2 file generated by ConQuest
# Please check atom types

@<TRIPOS>MOLECULE
JOFHES
    59    61     1
SMALL
NO_CHARGES
****
Generated from CSD

@<TRIPOS>ATOM
      1 O1         3.4762    3.8730    4.8833 O.3       1 RES1    0.0000
      2 H1         3.6925    3.7717    5.6678 H         1 RES1    0.0000
      3 O2         5.4191    3.6889    6.8218 O.3       1 RES1    0.0000
      4 H2         5.4869    4.2741    7.4290 H         1 RES1    0.0000
      5 O3        11.4006    8.1470    2.6599 O.2       1 RES1    0.0000
      6 O4        12.0989    7.6683    4.7194 O.3       1 RES1    0.0000
      7 O5        14.8021    4.2925    0.8235 O.2       1 RES1    0.0000
      8 O6        14.0061    6.1481    1.4898 O.2       1 RES1    0.0000
      9 N1        13.9094    4.9592    1.2816 N.pl3     1 RES1    0.0000
     10 C1         8.6813    5.7167    0.1182 C.2       1 RES1    0.0000
     11 H3         8.2384    6.1981   -0.5427 H         1 RES1    0.0000
     12 H4         9.3140    5.0776   -0.1182 H         1 RES1    0.0000
     13 C2         8.4121    5.9377    1.3850 C.2       1 RES1    0.0000
     14 C3         7.4045    6.9516    1.8176 C.3       1 RES1    0.0000
     15 H5         7.0502    7.4119    1.0411 H         1 RES1    0.0000
     16 H6         7.8289    7.6092    2.3913 H         1 RES1    0.0000
     17 C4         6.2576    6.2638    2.5820 C.3       1 RES1    0.0000
     18 H7         5.6468    6.9358    2.9219 H         1 RES1    0.0000
     19 H8         5.7642    5.6891    1.9748 H         1 RES1    0.0000
     20 C5         6.8017    5.4314    3.7454 C.3       1 RES1    0.0000
     21 H9         7.3366    6.0692    4.2613 H         1 RES1    0.0000
     22 C6         7.8358    4.3688    3.2739 C.3       1 RES1    0.0000
     23 C7         8.9965    5.1591    2.5538 C.3       1 RES1    0.0000
     24 H10        9.3036    5.8298    3.1973 H         1 RES1    0.0000
     25 C8         5.6951    4.9724    4.7449 C.3       1 RES1    0.0000
     26 C9         6.3945    4.2570    5.9056 C.3       1 RES1    0.0000
     27 H11        6.9260    4.9185    6.3959 H         1 RES1    0.0000
     28 C10        7.3148    3.1497    5.4582 C.3       1 RES1    0.0000
     29 H12        6.7960    2.4671    5.0042 H         1 RES1    0.0000
     30 H13        7.7266    2.7420    6.2361 H         1 RES1    0.0000
     31 C11        8.4064    3.6612    4.5192 C.3       1 RES1    0.0000
     32 H14        8.9562    2.9143    4.2357 H         1 RES1    0.0000
     33 H15        8.9746    4.2807    5.0028 H         1 RES1    0.0000
     34 C12        4.9831    6.2099    5.3037 C.3       1 RES1    0.0000
     35 H16        4.2975    5.9350    5.9177 H         1 RES1    0.0000
     36 H17        4.5874    6.7044    4.5823 H         1 RES1    0.0000
     37 H18        5.6181    6.7649    5.7618 H         1 RES1    0.0000
     38 C13        4.6380    4.0571    4.0933 C.3       1 RES1    0.0000
     39 H19        4.3780    4.4385    3.2403 H         1 RES1    0.0000
     40 H20        5.0383    3.1917    3.9187 H         1 RES1    0.0000
     41 C14        7.2710    3.3193    2.3026 C.3       1 RES1    0.0000
     42 H21        6.5590    2.8367    2.7298 H         1 RES1    0.0000
     43 H22        7.9658    2.7065    2.0514 H         1 RES1    0.0000
     44 H23        6.9329    3.7572    1.5180 H         1 RES1    0.0000
     45 C15       10.2262    4.3135    2.2099 C.3       1 RES1    0.0000
     46 H24       10.0559    3.8322    1.3850 H         1 RES1    0.0000
     47 H25       10.3654    3.6599    2.9111 H         1 RES1    0.0000
     48 C16       11.5099    5.1552    2.0447 C.3       1 RES1    0.0000
     49 H26       11.3604    5.8193    1.3407 H         1 RES1    0.0000
     50 C17       12.6383    4.2373    1.6134 C.3       1 RES1    0.0000
     51 H27       12.8155    3.6021    2.3254 H         1 RES1    0.0000
     52 H28       12.3519    3.7336    0.8343 H         1 RES1    0.0000
     53 C18       11.8354    5.8746    3.3222 C.2       1 RES1    0.0000
     54 C19       11.7331    7.3251    3.4579 C.2       1 RES1    0.0000
     55 C20       12.4428    6.4926    5.4367 C.3       1 RES1    0.0000
     56 H29       11.8711    6.3848    6.2132 H         1 RES1    0.0000
     57 H30       13.3665    6.5295    5.7336 H         1 RES1    0.0000
     58 C21       12.2461    5.3906    4.4896 C.2       1 RES1    0.0000
     59 H31       12.3876    4.4911    4.6764 H         1 RES1    0.0000
@<TRIPOS>BOND
     1    1    2 1
     2    3    4 1
     3    5   54 2
     4    6   54 1
     5    7    9 2
     6    8    9 2
     7    9   50 1
     8   10   11 1
     9   12   10 1
    10   13   10 2
    11   14   13 1
    12   15   14 1
    13   16   14 1
    14   17   14 1
    15   18   17 1
    16   19   17 1
    17   20   17 1
    18   21   20 1
    19   22   20 1
    20   23   13 1
    21   24   23 1
    22   25   20 1
    23   26    3 1
    24   27   26 1
    25   28   26 1
    26   29   28 1
    27   30   28 1
    28   31   22 1
    29   32   31 1
    30   33   31 1
    31   34   25 1
    32   35   34 1
    33   36   34 1
    34   37   34 1
    35   38    1 1
    36   39   38 1
    37   40   38 1
    38   41   22 1
    39   42   41 1
    40   43   41 1
    41   44   41 1
    42   45   23 1
    43   46   45 1
    44   47   45 1
    45   48   45 1
    46   49   48 1
    47   50   48 1
    48   51   50 1
    49   52   50 1
    50   53   48 1
    51   54   53 1
    52   55    6 1
    53   56   55 1
    54   57   55 1
    55   58   53 2
    56   59   58 1
    57   22   23 1
    58   25   26 1
    59   25   38 1
    60   28   31 1
    61   55   58 1
@<TRIPOS>SUBSTRUCTURE
     1 RES1 1

@<TRIPOS>CRYSIN
  11.5030   13.1510   13.4340  90.0000  90.0000  90.0000  19 1

