# MOL2 file generated by ConQuest
# Please check atom types

@<TRIPOS>MOLECULE
JOHBUD01
    17    18     1
SMALL
NO_CHARGES
****
Generated from CSD

@<TRIPOS>ATOM
      1 C1        -1.4012    0.8264    2.5387 C.3       1 RES1    0.0000
      2 C2        -0.6422    2.0747    2.4619 C.3       1 RES1    0.0000
      3 C3        -0.6910    3.3442    1.7076 C.3       1 RES1    0.0000
      4 N1        -2.1387    0.3654    1.3511 N.pl3     1 RES1    0.0000
      5 O1        -3.2035   -0.2004    1.5539 O.2       1 RES1    0.0000
      6 O2        -1.6686    0.5646    0.2452 O.2       1 RES1    0.0000
      7 H1        -2.0458    0.4803    3.1492 H         1 RES1    0.0000
      8 H2        -1.4737    3.6150    1.2624 H         1 RES1    0.0000
      9 H3         0.0752    3.6150    1.1915 H         1 RES1    0.0000
     10 C1A        0.1168    0.8264    2.3851 C.3       1 RES1    0.0000
     11 C3A       -0.5934    3.3442    3.2162 C.3       1 RES1    0.0000
     12 H2A        0.1893    3.6150    3.6613 H         1 RES1    0.0000
     13 H3A       -1.3596    3.6150    3.7322 H         1 RES1    0.0000
     14 N1A        0.8543    0.3654    3.5727 N.pl3     1 RES1    0.0000
     15 O1A        1.9191   -0.2004    3.3698 O.2       1 RES1    0.0000
     16 O2A        0.3842    0.5646    4.6785 O.2       1 RES1    0.0000
     17 H1A        0.7614    0.4803    1.7745 H         1 RES1    0.0000
@<TRIPOS>BOND
     1    1    2 1
     2    2    3 1
     3    3    8 1
     4    4    1 1
     5    5    4 2
     6    6    4 2
     7    7    1 1
     8    9    3 1
     9   10    1 1
    10   11    2 1
    11   12   11 1
    12   13   11 1
    13   14   10 1
    14   15   14 2
    15   16   14 2
    16   17   10 1
    17    2   10 1
    18    3   11 1
@<TRIPOS>SUBSTRUCTURE
     1 RES1 1

@<TRIPOS>CRYSIN
  11.4210    6.0190   10.1770  90.0000 104.6200  90.0000  15 1

