# MOL2 file generated by ConQuest
# Please check atom types

@<TRIPOS>MOLECULE
JOHJEX
   110   114     2
SMALL
NO_CHARGES
****
Generated from CSD

@<TRIPOS>ATOM
      1 O1         4.6287    9.2516    4.0777 O.3       1 RES1    0.0000
      2 C1         6.1607    8.9606    0.0605 C.ar      1 RES1    0.0000
      3 C2         6.3356    7.8261   -2.4754 C.ar      1 RES1    0.0000
      4 C3         5.9630    9.5262    1.4623 C.3       1 RES1    0.0000
      5 C4         8.2898   11.8787    5.0837 C.ar      1 RES1    0.0000
      6 C5         3.6366    8.7047    1.3532 C.2       1 RES1    0.0000
      7 C6         6.7308   11.0611    3.3072 C.3       1 RES1    0.0000
      8 C7         6.2754    7.0102   -1.3558 C.ar      1 RES1    0.0000
      9 C8         6.8519   10.7270    1.8059 C.3       1 RES1    0.0000
     10 C9         2.2427    7.6714   -0.2576 C.3       1 RES1    0.0000
     11 C10        7.7182   12.0882    3.8285 C.ar      1 RES1    0.0000
     12 C11        5.0833   11.7399    5.0403 C.1       1 RES1    0.0000
     13 C12        4.8744   12.6896    2.8298 C.1       1 RES1    0.0000
     14 C13        6.2038    9.7713   -1.0680 C.ar      1 RES1    0.0000
     15 C14        8.9412   14.1575    3.6566 C.ar      1 RES1    0.0000
     16 C15        8.0454   13.2395    3.1155 C.ar      1 RES1    0.0000
     17 C16        4.4889    9.9148    1.7120 C.3       1 RES1    0.0000
     18 C17        4.2438   10.2970    3.2021 C.3       1 RES1    0.0000
     19 C18        9.1814   12.8009    5.6167 C.ar      1 RES1    0.0000
     20 C19        5.2335   11.4643    3.5851 C.3       1 RES1    0.0000
     21 C20        6.3060    9.2004   -2.3324 C.ar      1 RES1    0.0000
     22 C21        6.2069    7.5825   -0.0917 C.ar      1 RES1    0.0000
     23 C22        9.5063   13.9393    4.9024 C.ar      1 RES1    0.0000
     24 C23        1.2727    8.1384   -1.3008 C.3       1 RES1    0.0000
     25 N1         8.2893   10.3702    1.5046 N.pl3     1 RES1    0.0000
     26 N2         4.5868   13.5994    2.2045 N.1       1 RES1    0.0000
     27 N3         4.9739   11.9374    6.1590 N.1       1 RES1    0.0000
     28 O2         3.6325    7.6999    2.0330 O.2       1 RES1    0.0000
     29 O3         8.7213    9.3259    1.9702 O.2       1 RES1    0.0000
     30 O4         2.9805    8.8509    0.2178 O.3       1 RES1    0.0000
     31 O5         8.9423   11.1335    0.8153 O.2       1 RES1    0.0000
     32 C24        2.8024   10.7023    3.4498 C.3       1 RES1    0.0000
     33 H1         6.8705   10.2000    3.7728 H         1 RES1    0.0000
     34 H2         2.8934    7.0651   -0.6092 H         1 RES1    0.0000
     35 H3         7.6838   13.4042    2.2439 H         1 RES1    0.0000
     36 H4         6.2149    8.8193    2.0658 H         1 RES1    0.0000
     37 H5         6.2442    6.0272   -1.4553 H         1 RES1    0.0000
     38 H6         1.7964    7.2615    0.5021 H         1 RES1    0.0000
     39 H7         4.2242   10.6525    1.1340 H         1 RES1    0.0000
     40 H8         6.1548   10.7256   -0.9452 H         1 RES1    0.0000
     41 H9         0.6073    8.7403   -0.9064 H         1 RES1    0.0000
     42 H10        8.0606   11.0819    5.5883 H         1 RES1    0.0000
     43 H11        4.3544    8.5497    3.7487 H         1 RES1    0.0000
     44 H12        2.6970   11.0164    4.3753 H         1 RES1    0.0000
     45 H13        2.2581    9.9207    3.2681 H         1 RES1    0.0000
     46 H14        2.5201   11.4150    2.8705 H         1 RES1    0.0000
     47 H15        6.1775    7.0343    0.7163 H         1 RES1    0.0000
     48 H16       10.1765   14.5576    5.2924 H         1 RES1    0.0000
     49 H17        9.6117   12.6185    6.4947 H         1 RES1    0.0000
     50 H18        6.3489    9.7898   -3.0632 H         1 RES1    0.0000
     51 H19        6.4051    7.4155   -3.3390 H         1 RES1    0.0000
     52 H20        6.6906   11.4940    1.2518 H         1 RES1    0.0000
     53 H21        9.1157   14.9427    3.1449 H         1 RES1    0.0000
     54 H22        1.7492    8.6421   -2.0564 H         1 RES1    0.0000
     55 H23        0.8035    7.3558   -1.6387 H         1 RES1    0.0000
     56 C25        1.2404    4.3707    2.9373 C.3       2 RES2    0.0000
     57 C26        2.1394    6.7412    6.5565 C.ar      2 RES2    0.0000
     58 C27        0.8780    3.1077    3.6165 C.1       2 RES2    0.0000
     59 C28        3.7492    3.7829    2.7280 C.ar      2 RES2    0.0000
     60 C29        0.4403    5.8438    4.8553 C.3       2 RES2    0.0000
     61 C30        2.7216    4.7772    3.2548 C.3       2 RES2    0.0000
     62 C31        2.0453    6.4479    8.9524 C.ar      2 RES2    0.0000
     63 C32        1.9054    6.2569    5.1352 C.3       2 RES2    0.0000
     64 C33       -0.4561    7.0085    5.2395 C.2       2 RES2    0.0000
     65 C34        1.1314    4.1749    1.4660 C.1       2 RES2    0.0000
     66 C35        1.7896    5.9698    7.6690 C.ar      2 RES2    0.0000
     67 C36        5.6847    2.0506    1.6798 C.ar      2 RES2    0.0000
     68 C37        2.7390    7.9782    6.7508 C.ar      2 RES2    0.0000
     69 C38       -1.2127    5.0748    3.0894 C.3       2 RES2    0.0000
     70 C39        5.2387    3.1351    0.9368 C.ar      2 RES2    0.0000
     71 C40        3.0041    8.4407    8.0363 C.ar      2 RES2    0.0000
     72 C41        5.1518    1.8318    2.9477 C.ar      2 RES2    0.0000
     73 C42        4.2883    3.9981    1.4599 C.ar      2 RES2    0.0000
     74 C43        4.1816    2.6828    3.4692 C.ar      2 RES2    0.0000
     75 C44       -1.9692    7.8584    6.8507 C.3       2 RES2    0.0000
     76 N4         4.2334    5.4385    5.0933 N.pl3     2 RES2    0.0000
     77 N5         0.5941    2.1675    4.1880 N.1       2 RES2    0.0000
     78 N6         1.0918    4.0480    0.3339 N.1       2 RES2    0.0000
     79 O6         4.7043    6.4292    4.5522 O.2       2 RES2    0.0000
     80 O7        -1.1589    6.7558    6.3253 O.3       2 RES2    0.0000
     81 O8        -0.4808    8.0504    4.6178 O.2       2 RES2    0.0000
     82 O9         4.8388    4.7364    5.8816 O.2       2 RES2    0.0000
     83 C45        2.6564    7.6780    9.1300 C.ar      2 RES2    0.0000
     84 C46        0.2207    5.5001    3.3581 C.3       2 RES2    0.0000
     85 O10        0.5868    6.5833    2.5161 O.3       2 RES2    0.0000
     86 C47       -1.1276    8.7163    7.7453 C.3       2 RES2    0.0000
     87 C48        2.8107    5.0686    4.7625 C.3       2 RES2    0.0000
     88 H24        2.1441    7.0188    4.5373 H         2 RES2    0.0000
     89 H25        0.1978    5.0682    5.3928 H         2 RES2    0.0000
     90 H26        2.8870    7.9740   10.0479 H         2 RES2    0.0000
     91 H27       -2.3438    8.3186    6.1131 H         2 RES2    0.0000
     92 H28        3.8217    2.5245    4.3552 H         2 RES2    0.0000
     93 H29        5.5925    3.2851    0.0669 H         2 RES2    0.0000
     94 H30        1.3677    5.0894    7.5698 H         2 RES2    0.0000
     95 H31        3.0215    8.4977    5.9806 H         2 RES2    0.0000
     96 H32       -2.6884    7.4117    7.3435 H         2 RES2    0.0000
     97 H33       -1.8218    5.8365    3.3029 H         2 RES2    0.0000
     98 H34        5.4968    1.0995    3.4676 H         2 RES2    0.0000
     99 H35       -1.6661    9.5029    8.0999 H         2 RES2    0.0000
    100 H36       -0.3537    9.0754    7.2458 H         2 RES2    0.0000
    101 H37       -0.8184    8.2089    8.4855 H         2 RES2    0.0000
    102 H38        2.6297    4.3230    5.2670 H         2 RES2    0.0000
    103 H39       -1.4006    4.3750    3.6885 H         2 RES2    0.0000
    104 H40        0.3204    7.2807    2.8477 H         2 RES2    0.0000
    105 H41        6.3654    1.4885    1.2973 H         2 RES2    0.0000
    106 H42        4.0143    4.8005    0.9452 H         2 RES2    0.0000
    107 H43        1.7635    5.9193    9.7105 H         2 RES2    0.0000
    108 H44        2.8896    5.6286    2.7674 H         2 RES2    0.0000
    109 H45        3.4185    9.3122    8.0999 H         2 RES2    0.0000
    110 H46       -1.3116    4.8776    2.1595 H         2 RES2    0.0000
@<TRIPOS>BOND
     1    1   18 1
     2    2    4 1
     3    3    8 ar
     4    4    9 1
     5    5   11 ar
     6    6   17 1
     7    7    9 1
     8    8   22 ar
     9    9   25 1
    10   10   24 1
    11   11    7 1
    12   12   20 1
    13   13   20 1
    14   14    2 ar
    15   15   16 ar
    16   16   11 ar
    17   17    4 1
    18   18   17 1
    19   19    5 ar
    20   20    7 1
    21   21    3 ar
    22   22    2 ar
    23   23   15 ar
    24   24   41 1
    25   25   29 2
    26   26   13 3
    27   27   12 3
    28   28    6 2
    29   30    6 1
    30   31   25 2
    31   32   18 1
    32   33    7 1
    33   34   10 1
    34   35   16 1
    35   36    4 1
    36   37    8 1
    37   38   10 1
    38   39   17 1
    39   40   14 1
    40   42    5 1
    41   43    1 1
    42   44   32 1
    43   45   32 1
    44   46   32 1
    45   47   22 1
    46   48   23 1
    47   49   19 1
    48   50   21 1
    49   51    3 1
    50   52    9 1
    51   53   15 1
    52   54   24 1
    53   55   24 1
    54   56   58 1
    55   57   63 1
    56   58   77 3
    57   59   61 1
    58   60   63 1
    59   61   56 1
    60   62   66 ar
    61   63   87 1
    62   64   60 1
    63   65   56 1
    64   66   57 ar
    65   67   70 ar
    66   68   57 ar
    67   69   84 1
    68   70   73 ar
    69   71   68 ar
    70   72   67 ar
    71   73   59 ar
    72   74   59 ar
    73   75   80 1
    74   76   79 2
    75   78   65 3
    76   80   64 1
    77   81   64 2
    78   82   76 2
    79   83   62 ar
    80   84   56 1
    81   85   84 1
    82   86   75 1
    83   87   61 1
    84   88   63 1
    85   89   60 1
    86   90   83 1
    87   91   75 1
    88   92   74 1
    89   93   70 1
    90   94   66 1
    91   95   68 1
    92   96   75 1
    93   97   69 1
    94   98   72 1
    95   99   86 1
    96  100   86 1
    97  101   86 1
    98  102   87 1
    99  103   69 1
   100  104   85 1
   101  105   67 1
   102  106   73 1
   103  107   62 1
   104  108   61 1
   105  109   71 1
   106  110   69 1
   107   10   30 1
   108   14   21 ar
   109   18   20 1
   110   19   23 ar
   111   60   84 1
   112   71   83 ar
   113   72   74 ar
   114   76   87 1
@<TRIPOS>SUBSTRUCTURE
     1 RES1 1
     2 RES2 56

@<TRIPOS>CRYSIN
   8.5311   19.2561   13.4110  90.0000  93.3330  90.0000   4 1

