# MOL2 file generated by ConQuest
# Please check atom types

@<TRIPOS>MOLECULE
JOHROO
    50    51     1
SMALL
NO_CHARGES
****
Generated from CSD

@<TRIPOS>ATOM
      1 C1         1.6683   13.5090    8.0661 C.3       1 RES1    0.0000
      2 H1         0.8589   12.9851    7.8952 H         1 RES1    0.0000
      3 C2         1.9771   13.4229    9.5485 C.2       1 RES1    0.0000
      4 C3         3.2636   14.0195   10.0476 C.3       1 RES1    0.0000
      5 H2         3.4451   14.8198    9.5321 H         1 RES1    0.0000
      6 H3         3.9788   13.3898    9.8641 H         1 RES1    0.0000
      7 C4         3.3211   14.3830   11.5190 C.3       1 RES1    0.0000
      8 H4         3.0832   13.6032   12.0455 H         1 RES1    0.0000
      9 H5         4.2322   14.6260   11.7468 H         1 RES1    0.0000
     10 C5         2.3985   15.5267   11.8916 C.3       1 RES1    0.0000
     11 H6         1.5345   15.3815   11.4746 H         1 RES1    0.0000
     12 H7         2.2667   15.5238   12.8519 H         1 RES1    0.0000
     13 C6         2.9178   16.8816   11.4757 C.3       1 RES1    0.0000
     14 H8         3.2747   16.8139   10.5763 H         1 RES1    0.0000
     15 H9         3.6491   17.1254   12.0639 H         1 RES1    0.0000
     16 C7         1.8847   17.9933   11.5021 C.3       1 RES1    0.0000
     17 H10        2.3232   18.8301   11.2793 H         1 RES1    0.0000
     18 H11        1.5409   18.0747   12.4062 H         1 RES1    0.0000
     19 C8         0.7059   17.7894   10.5476 C.3       1 RES1    0.0000
     20 H12        0.2800   16.9439   10.7566 H         1 RES1    0.0000
     21 H13        0.0554   18.4917   10.7038 H         1 RES1    0.0000
     22 C9         1.0812   17.7936    9.0760 C.3       1 RES1    0.0000
     23 H14        1.1654   18.7149    8.7808 H         1 RES1    0.0000
     24 H15        1.9508   17.3732    8.9773 H         1 RES1    0.0000
     25 C10        0.0972   17.0838    8.1720 C.3       1 RES1    0.0000
     26 H16        0.2760   17.3388    7.2530 H         1 RES1    0.0000
     27 H17       -0.8000   17.3805    8.3914 H         1 RES1    0.0000
     28 C11        0.1553   15.5611    8.2811 C.3       1 RES1    0.0000
     29 H18        0.1306   15.3128    9.2185 H         1 RES1    0.0000
     30 H19       -0.6315   15.1853    7.8550 H         1 RES1    0.0000
     31 C12        1.3902   14.9564    7.6465 C.3       1 RES1    0.0000
     32 H20        2.1580   15.5017    7.8802 H         1 RES1    0.0000
     33 H21        1.2907   14.9866    6.6821 H         1 RES1    0.0000
     34 C13        2.8023   12.9137    7.2242 C.3       1 RES1    0.0000
     35 H22        2.5935   13.0661    6.2892 H         1 RES1    0.0000
     36 H23        3.6133   13.4070    7.4219 H         1 RES1    0.0000
     37 C14        3.0956   11.4408    7.4038 C.ar      1 RES1    0.0000
     38 C15        2.1510   10.5358    7.8498 C.ar      1 RES1    0.0000
     39 H24        1.3155   10.8389    8.1249 H         1 RES1    0.0000
     40 C16        2.4386    9.1877    7.8906 C.ar      1 RES1    0.0000
     41 H25        1.7913    8.5922    8.1915 H         1 RES1    0.0000
     42 C17        3.6562    8.7133    7.4966 C.ar      1 RES1    0.0000
     43 H26        3.8357    7.7999    7.5149 H         1 RES1    0.0000
     44 C18        4.6049    9.5966    7.0773 C.ar      1 RES1    0.0000
     45 H27        5.4402    9.2863    6.8108 H         1 RES1    0.0000
     46 C19        4.3352   10.9441    7.0474 C.ar      1 RES1    0.0000
     47 H28        5.0015   11.5355    6.7809 H         1 RES1    0.0000
     48 N1         1.2339   12.8738   10.4217 N.2       1 RES1    0.0000
     49 O1         0.0607   12.2853    9.8891 O.3       1 RES1    0.0000
     50 H29       -0.2994   12.0065   10.6027 H         1 RES1    0.0000
@<TRIPOS>BOND
     1    1    2 1
     2    3    1 1
     3    4    3 1
     4    5    4 1
     5    6    4 1
     6    7    4 1
     7    8    7 1
     8    9    7 1
     9   10    7 1
    10   11   10 1
    11   12   10 1
    12   13   10 1
    13   14   13 1
    14   15   13 1
    15   16   13 1
    16   17   16 1
    17   18   16 1
    18   19   16 1
    19   20   19 1
    20   21   19 1
    21   22   19 1
    22   23   22 1
    23   24   22 1
    24   25   22 1
    25   26   25 1
    26   27   25 1
    27   28   25 1
    28   29   28 1
    29   30   28 1
    30   31    1 1
    31   32   31 1
    32   33   31 1
    33   34    1 1
    34   35   34 1
    35   36   34 1
    36   37   34 1
    37   38   37 ar
    38   39   38 1
    39   40   38 ar
    40   41   40 1
    41   42   40 ar
    42   43   42 1
    43   44   42 ar
    44   45   44 1
    45   46   37 ar
    46   47   46 1
    47   48    3 2
    48   49   48 1
    49   50   49 1
    50   28   31 1
    51   44   46 ar
@<TRIPOS>SUBSTRUCTURE
     1 RES1 1

@<TRIPOS>CRYSIN
   6.1930   24.5280   11.8110  90.0000 103.4470  90.0000  14 1

