# MOL2 file generated by ConQuest
# Please check atom types

@<TRIPOS>MOLECULE
JOJGOE
    25    27     1
SMALL
NO_CHARGES
****
Generated from CSD

@<TRIPOS>ATOM
      1 O1         7.5383   -0.4904    2.9897 O.3       1 RES1    0.0000
      2 O2         9.6747   -0.7047    2.5020 O.2       1 RES1    0.0000
      3 C1         8.6069   -0.2277    2.1695 C.2       1 RES1    0.0000
      4 C2         8.4097    0.5487    0.9144 C.3       1 RES1    0.0000
      5 C3         7.1717    1.4803    0.8617 C.3       1 RES1    0.0000
      6 C4         6.3701    1.4812    2.1169 C.3       1 RES1    0.0000
      7 C5         6.2078    0.0708    2.6711 C.3       1 RES1    0.0000
      8 C6         5.4674    0.0430    3.9595 C.3       1 RES1    0.0000
      9 O3         5.2211   -1.3135    4.3058 O.3       1 RES1    0.0000
     10 C7         4.3212   -1.5063    5.3172 C.2       1 RES1    0.0000
     11 C8         4.1005   -2.9373    5.5998 C.3       1 RES1    0.0000
     12 O4         3.7816   -0.5971    5.8686 O.2       1 RES1    0.0000
     13 O5         6.3509    0.9361   -0.1773 O.3       1 RES1    0.0000
     14 N1         7.3183    0.3775   -1.1416 N.3       1 RES1    0.0000
     15 C9         8.1840   -0.4151   -0.2300 C.3       1 RES1    0.0000
     16 C10        9.4612   -0.8132   -0.9559 C.3       1 RES1    0.0000
     17 C11        6.5210   -0.4779   -2.0033 C.3       1 RES1    0.0000
     18 C12        5.7522    0.2770   -3.0673 C.ar      1 RES1    0.0000
     19 C13        6.1579    1.5242   -3.5549 C.ar      1 RES1    0.0000
     20 C14        5.5457    2.1384   -4.5995 C.ar      1 RES1    0.0000
     21 C15        4.4472    1.5072   -5.2507 C.ar      1 RES1    0.0000
     22 C16        4.0358    0.2851   -4.7741 C.ar      1 RES1    0.0000
     23 C17        4.6843   -0.3120   -3.7184 C.ar      1 RES1    0.0000
     24 O6         3.9019    2.1958   -6.2675 O.3       1 RES1    0.0000
     25 C18        2.7978    1.5422   -6.9602 C.3       1 RES1    0.0000
@<TRIPOS>BOND
     1    1    3 1
     2    2    3 2
     3    3    4 1
     4    4    5 1
     5    5    6 1
     6    6    7 1
     7    7    1 1
     8    8    7 1
     9    9    8 1
    10   10    9 1
    11   11   10 1
    12   12   10 2
    13   13    5 1
    14   14   13 1
    15   15    4 1
    16   16   15 1
    17   17   14 1
    18   18   17 1
    19   19   18 ar
    20   20   19 ar
    21   21   20 ar
    22   22   21 ar
    23   23   18 ar
    24   24   21 1
    25   25   24 1
    26   14   15 1
    27   22   23 ar
@<TRIPOS>SUBSTRUCTURE
     1 RES1 1

@<TRIPOS>CRYSIN
   7.1190    8.9660   27.7080  90.0000  90.0000  90.0000  19 1

