# MOL2 file generated by ConQuest
# Please check atom types

@<TRIPOS>MOLECULE
JOKBIU
    36    38     1
SMALL
NO_CHARGES
****
Generated from CSD

@<TRIPOS>ATOM
      1 O1        -0.0936    0.6569    3.1537 O.3       1 RES1    0.0000
      2 C1        -1.2592    1.2849    3.6977 C.3       1 RES1    0.0000
      3 C2        -2.5248    0.7934    3.0432 C.ar      1 RES1    0.0000
      4 C3        -3.0781   -0.4167    3.3951 C.ar      1 RES1    0.0000
      5 C4        -4.2441   -0.8376    2.8239 C.ar      1 RES1    0.0000
      6 C5        -4.8989   -0.0659    1.8888 C.ar      1 RES1    0.0000
      7 C6        -4.3459    1.1389    1.5063 C.ar      1 RES1    0.0000
      8 C7        -3.1833    1.5651    2.0911 C.ar      1 RES1    0.0000
      9 C8        -5.0169    1.9471    0.4301 C.3       1 RES1    0.0000
     10 O2        -4.3848    1.7493   -0.8416 O.3       1 RES1    0.0000
     11 N1        -4.7661    0.4697   -1.3159 N.2       1 RES1    0.0000
     12 C9        -3.9338    0.0518   -2.1982 C.2       1 RES1    0.0000
     13 C10       -4.2738   -1.2684   -2.7950 C.3       1 RES1    0.0000
     14 C11       -2.7055    0.7558   -2.6386 C.3       1 RES1    0.0000
     15 C12       -1.5736    0.6893   -1.6049 C.3       1 RES1    0.0000
     16 C13       -1.1181   -0.6981   -1.2887 C.2       1 RES1    0.0000
     17 C14       -1.6388   -1.3915   -0.0918 C.3       1 RES1    0.0000
     18 N2         0.2915    1.3826    2.0010 N.2       1 RES1    0.0000
     19 N2B       -0.2915   -1.3826   -2.0010 N.2       1 RES1    0.0000
     20 C13B       1.1181    0.6981    1.2887 C.2       1 RES1    0.0000
     21 O1B        0.0936   -0.6569   -3.1537 O.3       1 RES1    0.0000
     22 C12B       1.5736   -0.6893    1.6049 C.3       1 RES1    0.0000
     23 C14B       1.6388    1.3915    0.0918 C.3       1 RES1    0.0000
     24 C1B        1.2592   -1.2849   -3.6977 C.3       1 RES1    0.0000
     25 C11B       2.7055   -0.7558    2.6386 C.3       1 RES1    0.0000
     26 C2B        2.5248   -0.7934   -3.0432 C.ar      1 RES1    0.0000
     27 C9B        3.9338   -0.0518    2.1982 C.2       1 RES1    0.0000
     28 C3B        3.0781    0.4167   -3.3951 C.ar      1 RES1    0.0000
     29 C7B        3.1833   -1.5651   -2.0911 C.ar      1 RES1    0.0000
     30 N1B        4.7661   -0.4697    1.3159 N.2       1 RES1    0.0000
     31 C10B       4.2738    1.2684    2.7950 C.3       1 RES1    0.0000
     32 C4B        4.2441    0.8376   -2.8239 C.ar      1 RES1    0.0000
     33 C6B        4.3459   -1.1389   -1.5063 C.ar      1 RES1    0.0000
     34 O2B        4.3848   -1.7493    0.8416 O.3       1 RES1    0.0000
     35 C5B        4.8989    0.0659   -1.8888 C.ar      1 RES1    0.0000
     36 C8B        5.0169   -1.9471   -0.4301 C.3       1 RES1    0.0000
@<TRIPOS>BOND
     1    1    2 1
     2    2    3 1
     3    3    4 ar
     4    4    5 ar
     5    5    6 ar
     6    6    7 ar
     7    7    8 ar
     8    8    3 ar
     9    9    7 1
    10   10    9 1
    11   11   10 1
    12   12   11 2
    13   13   12 1
    14   14   12 1
    15   15   14 1
    16   16   15 1
    17   17   16 1
    18   18    1 1
    19   19   16 2
    20   20   18 2
    21   21   19 1
    22   22   20 1
    23   23   20 1
    24   24   21 1
    25   25   22 1
    26   26   24 1
    27   27   25 1
    28   28   26 ar
    29   29   26 ar
    30   30   27 2
    31   31   27 1
    32   32   28 ar
    33   33   29 ar
    34   34   30 1
    35   35   32 ar
    36   36   33 1
    37   33   35 ar
    38   34   36 1
@<TRIPOS>SUBSTRUCTURE
     1 RES1 1

@<TRIPOS>CRYSIN
  13.2420    5.8860   17.5300  90.0000 104.1100  90.0000 231 1

