# MOL2 file generated by ConQuest
# Please check atom types

@<TRIPOS>MOLECULE
JOKCOD
    39    42     1
SMALL
NO_CHARGES
****
Generated from CSD

@<TRIPOS>ATOM
      1 O1         8.8964    7.9122   13.4506 O.2       1 RES1    0.0000
      2 O2         5.2546    8.0421    9.4121 O.3       1 RES1    0.0000
      3 O3         8.9121    9.8064   14.4980 O.2       1 RES1    0.0000
      4 O4         2.4221    9.1485    9.6372 O.2       1 RES1    0.0000
      5 O5         2.0189    5.7701   10.0816 O.2       1 RES1    0.0000
      6 N1         8.3777    8.9834   13.7604 N.pl3     1 RES1    0.0000
      7 N2         3.4568   10.1411   11.4448 N.am      1 RES1    0.0000
      8 H1         2.8887   10.7693   11.5982 H         1 RES1    0.0000
      9 C1         7.0545    9.2937   13.2108 C.ar      1 RES1    0.0000
     10 C2         6.5633    8.4946   12.1771 C.ar      1 RES1    0.0000
     11 H2         7.0407    7.7668   11.8485 H         1 RES1    0.0000
     12 C3         5.3288    8.8450   11.6702 C.ar      1 RES1    0.0000
     13 C4         4.4952    8.1907   10.6020 C.3       1 RES1    0.0000
     14 C5         4.5603    7.4461    8.2890 C.3       1 RES1    0.0000
     15 H3         3.8542    8.0530    7.9849 H         1 RES1    0.0000
     16 C6         5.5848    7.2825    7.1931 C.ar      1 RES1    0.0000
     17 C7         6.8354    6.7296    7.4653 C.ar      1 RES1    0.0000
     18 H4         7.0563    6.4834    8.3351 H         1 RES1    0.0000
     19 C8         7.7524    6.5470    6.4387 C.ar      1 RES1    0.0000
     20 H5         8.5782    6.1609    6.6199 H         1 RES1    0.0000
     21 C9         7.4410    6.9391    5.1375 C.ar      1 RES1    0.0000
     22 H6         8.0600    6.8229    4.4536 H         1 RES1    0.0000
     23 C10        4.6363    9.9495   12.1728 C.ar      1 RES1    0.0000
     24 C11        5.1068   10.7003   13.2373 C.ar      1 RES1    0.0000
     25 H7         4.6101   11.4036   13.5910 H         1 RES1    0.0000
     26 C12        6.3516   10.3606   13.7549 C.ar      1 RES1    0.0000
     27 H8         6.7121   10.8462   14.4618 H         1 RES1    0.0000
     28 C13        3.3221    9.2078   10.4629 C.2       1 RES1    0.0000
     29 C14        3.9175    6.8387   11.0770 C.3       1 RES1    0.0000
     30 H9         4.6395    6.2570   11.3616 H         1 RES1    0.0000
     31 H10        3.3291    6.9831   11.8348 H         1 RES1    0.0000
     32 C15        3.1492    6.1842    9.9547 C.2       1 RES1    0.0000
     33 C16        3.9386    6.0956    8.6727 C.3       1 RES1    0.0000
     34 H11        3.3555    5.7979    7.9575 H         1 RES1    0.0000
     35 H12        4.6440    5.4370    8.7768 H         1 RES1    0.0000
     36 C17        6.2059    7.5022    4.8696 C.ar      1 RES1    0.0000
     37 H13        5.9983    7.7775    4.0056 H         1 RES1    0.0000
     38 C18        5.2735    7.6590    5.8922 C.ar      1 RES1    0.0000
     39 H14        4.4367    8.0188    5.7029 H         1 RES1    0.0000
@<TRIPOS>BOND
     1    1    6 2
     2    2   13 1
     3    3    6 2
     4    4   28 2
     5    5   32 2
     6    6    9 1
     7    7    8 1
     8    9   10 ar
     9   10   11 1
    10   12   10 ar
    11   13   12 1
    12   14    2 1
    13   15   14 1
    14   16   14 1
    15   17   16 ar
    16   18   17 1
    17   19   17 ar
    18   20   19 1
    19   21   19 ar
    20   22   21 1
    21   23    7 1
    22   24   23 ar
    23   25   24 1
    24   26    9 ar
    25   27   26 1
    26   28    7 1
    27   29   13 1
    28   30   29 1
    29   31   29 1
    30   32   29 1
    31   33   14 1
    32   34   33 1
    33   35   33 1
    34   36   21 ar
    35   37   36 1
    36   38   16 ar
    37   39   38 1
    38   12   23 ar
    39   13   28 1
    40   24   26 ar
    41   32   33 1
    42   36   38 ar
@<TRIPOS>SUBSTRUCTURE
     1 RES1 1

@<TRIPOS>CRYSIN
   7.0616   21.3550   10.6343  90.0000  98.5500  90.0000  14 1

