# MOL2 file generated by ConQuest
# Please check atom types

@<TRIPOS>MOLECULE
JOKLOK
    23    24     1
SMALL
NO_CHARGES
****
Generated from CSD

@<TRIPOS>ATOM
      1 O1        -0.6857    1.7320    5.5120 O.3       1 RES1    0.0000
      2 C1        -1.5042    1.6198    4.3473 C.2       1 RES1    0.0000
      3 O2        -2.6979    1.6870    4.5178 O.2       1 RES1    0.0000
      4 C2        -0.6368    1.7064    3.2473 C.2       1 RES1    0.0000
      5 N1         0.6372    1.6558    5.0751 N.pl3     1 RES1    0.0000
      6 C3        -0.9075    1.6994    1.8220 C.2       1 RES1    0.0000
      7 C4         0.3254    1.6489    0.9893 C.3       1 RES1    0.0000
      8 C5         1.5259    2.2932    1.5499 C.3       1 RES1    0.0000
      9 C6         1.8896    1.7362    2.9146 C.3       1 RES1    0.0000
     10 C7         0.6485    1.7036    3.7285 C.2       1 RES1    0.0000
     11 C8         1.6231    1.7646    6.0627 C.3       1 RES1    0.0000
     12 C9        -2.1287    1.7230    1.2909 C.2       1 RES1    0.0000
     13 H1         0.1311    2.0715    0.1606 H         1 RES1    0.0000
     14 H2         0.5324    0.7344    0.8368 H         1 RES1    0.0000
     15 H3         2.2546    2.1505    0.9565 H         1 RES1    0.0000
     16 H4         1.3642    3.2257    1.6335 H         1 RES1    0.0000
     17 H5         2.5383    2.2918    3.3309 H         1 RES1    0.0000
     18 H6         2.2375    0.8570    2.8228 H         1 RES1    0.0000
     19 H7         2.4814    1.6967    5.6620 H         1 RES1    0.0000
     20 H8         1.5155    1.0683    6.7004 H         1 RES1    0.0000
     21 H9         1.5416    2.6056    6.4963 H         1 RES1    0.0000
     22 H10       -2.8767    1.2200    1.7089 H         1 RES1    0.0000
     23 H11       -2.3315    2.0604    0.4180 H         1 RES1    0.0000
@<TRIPOS>BOND
     1    1    2 1
     2    2    3 2
     3    4    2 1
     4    5    1 1
     5    6    4 1
     6    7    6 1
     7    8    7 1
     8    9    8 1
     9   10    4 2
    10   11    5 1
    11   12    6 2
    12   13    7 1
    13   14    7 1
    14   15    8 1
    15   16    8 1
    16   17    9 1
    17   18    9 1
    18   19   11 1
    19   20   11 1
    20   21   11 1
    21   22   12 1
    22   23   12 1
    23    5   10 1
    24    9   10 1
@<TRIPOS>SUBSTRUCTURE
     1 RES1 1

@<TRIPOS>CRYSIN
   7.5440    6.9280    8.3073  90.0000  99.3800  90.0000   4 1

