# MOL2 file generated by ConQuest
# Please check atom types

@<TRIPOS>MOLECULE
JOKLIG
    38    40     1
SMALL
NO_CHARGES
****
Generated from CSD

@<TRIPOS>ATOM
      1 C1         5.0160    7.0723    3.6245 C.3       1 RES1    0.0000
      2 H1         4.1530    6.6554    3.4200 H         1 RES1    0.0000
      3 C2         6.1114    6.1463    3.1972 C.2       1 RES1    0.0000
      4 C3         6.5100    4.9020    3.5962 C.2       1 RES1    0.0000
      5 C4         7.0462    6.4667    2.2345 C.2       1 RES1    0.0000
      6 C5         6.1499    8.5686    1.8455 C.2       1 RES1    0.0000
      7 C6         5.1550    8.3209    2.8048 C.2       1 RES1    0.0000
      8 C7         5.9658    3.9826    4.6370 C.3       1 RES1    0.0000
      9 H2         6.4429    3.1503    4.6104 H         1 RES1    0.0000
     10 H3         5.0340    3.8227    4.4674 H         1 RES1    0.0000
     11 H4         6.0695    4.3827    5.5032 H         1 RES1    0.0000
     12 C8         7.3462    9.9016    0.1247 C.3       1 RES1    0.0000
     13 H5         7.3408    9.1862   -0.5154 H         1 RES1    0.0000
     14 H6         8.2060    9.9438    0.5503 H         1 RES1    0.0000
     15 H7         7.1695   10.7321   -0.3225 H         1 RES1    0.0000
     16 C9         5.0951    7.3271    5.1291 C.ar      1 RES1    0.0000
     17 C10        6.1975    7.8941    5.7177 C.ar      1 RES1    0.0000
     18 H8         6.8865    8.2127    5.1807 H         1 RES1    0.0000
     19 C11        6.3057    8.0036    7.0894 C.ar      1 RES1    0.0000
     20 H9         7.0715    8.3810    7.4568 H         1 RES1    0.0000
     21 C12        5.3082    7.5654    7.9173 C.ar      1 RES1    0.0000
     22 C13        4.1961    7.0224    7.3454 C.ar      1 RES1    0.0000
     23 H10        3.5022    6.7290    7.8891 H         1 RES1    0.0000
     24 C14        4.0739    6.8957    5.9605 C.ar      1 RES1    0.0000
     25 H11        3.3058    6.5213    5.5963 H         1 RES1    0.0000
     26 C15        5.4164    7.6869    9.4386 C.3       1 RES1    0.0000
     27 H12        5.6096    6.8253    9.8144 H         1 RES1    0.0000
     28 H13        4.5860    8.0124    9.7928 H         1 RES1    0.0000
     29 H14        6.1216    8.2993    9.6614 H         1 RES1    0.0000
     30 N1         7.9312    5.5475    1.9835 N.pl3     1 RES1    0.0000
     31 H15        8.5693    5.5602    1.4066 H         1 RES1    0.0000
     32 N2         7.5956    4.5548    2.8597 N.2       1 RES1    0.0000
     33 N3         4.1630    9.2548    2.9578 N.pl3     1 RES1    0.0000
     34 N4         6.3125    9.6601    1.1339 N.3       1 RES1    0.0000
     35 H16        5.7551   10.2999    1.2769 H         1 RES1    0.0000
     36 O1         7.0857    7.6518    1.5208 O.3       1 RES1    0.0000
     37 O2         4.1879   10.3861    2.3353 O.2       1 RES1    0.0000
     38 O3         3.2008    9.0186    3.7201 O.2       1 RES1    0.0000
@<TRIPOS>BOND
     1    1    2 1
     2    3    1 1
     3    4    3 1
     4    5    3 2
     5    6    7 2
     6    7    1 1
     7    8    4 1
     8    9    8 1
     9   10    8 1
    10   11    8 1
    11   12   13 1
    12   14   12 1
    13   15   12 1
    14   16    1 1
    15   17   16 ar
    16   18   17 1
    17   19   17 ar
    18   20   19 1
    19   21   19 ar
    20   22   21 ar
    21   23   22 1
    22   24   16 ar
    23   25   24 1
    24   26   21 1
    25   27   26 1
    26   28   26 1
    27   29   26 1
    28   30    5 1
    29   31   30 1
    30   32    4 2
    31   33    7 1
    32   34    6 1
    33   35   34 1
    34   36    5 1
    35   37   33 2
    36   38   33 2
    37    6   36 1
    38   12   34 1
    39   22   24 ar
    40   30   32 1
@<TRIPOS>SUBSTRUCTURE
     1 RES1 1

@<TRIPOS>CRYSIN
   5.7055    7.7151   17.1280  79.1760  80.9910  87.9410   2 1

