# MOL2 file generated by ConQuest
# Please check atom types

@<TRIPOS>MOLECULE
JOKQOR
    26    27     1
SMALL
NO_CHARGES
****
Generated from CSD

@<TRIPOS>ATOM
      1 O1         1.1580   -1.9814    2.0835 O.2       1 RES1    0.0000
      2 O2         5.2430    0.3850    2.8840 O.2       1 RES1    0.0000
      3 O3         4.6951    2.4293    3.2229 O.2       1 RES1    0.0000
      4 N1         4.5587    1.3676    2.6457 N.pl3     1 RES1    0.0000
      5 N2         3.2541   -1.1571    1.9692 N.am      1 RES1    0.0000
      6 H1         4.0800   -1.3041    2.1556 H         1 RES1    0.0000
      7 N3         0.5640    5.1404   -1.6586 N.2       1 RES1    0.0000
      8 N4         2.3102    4.8526   -0.3857 N.2       1 RES1    0.0000
      9 N5         0.6777    3.8462   -1.3419 N.pl3     1 RES1    0.0000
     10 H2         0.1457    3.2205   -1.5978 H         1 RES1    0.0000
     11 N6         1.5507    5.7330   -1.0789 N.2       1 RES1    0.0000
     12 C1         2.1721    2.4214    0.0289 C.ar      1 RES1    0.0000
     13 C2         1.7451    3.6826   -0.5695 C.2       1 RES1    0.0000
     14 C3         1.9867    0.0375    0.2858 C.ar      1 RES1    0.0000
     15 H3         1.6009   -0.7660    0.0206 H         1 RES1    0.0000
     16 C4         2.8956   -3.2589    3.0885 C.3       1 RES1    0.0000
     17 H4         3.8459   -3.1615    3.1792 H         1 RES1    0.0000
     18 H5         2.7007   -4.0687    2.6118 H         1 RES1    0.0000
     19 H6         2.4937   -3.2956    3.9596 H         1 RES1    0.0000
     20 C5         2.9382    0.0349    1.3055 C.ar      1 RES1    0.0000
     21 C6         3.1640    2.4303    0.9992 C.ar      1 RES1    0.0000
     22 H7         3.5832    3.2276    1.2296 H         1 RES1    0.0000
     23 C7         1.6094    1.1995   -0.3321 C.ar      1 RES1    0.0000
     24 H8         0.9669    1.1727   -1.0043 H         1 RES1    0.0000
     25 C8         2.3460   -2.0951    2.3370 C.2       1 RES1    0.0000
     26 C9         3.5243    1.2585    1.6187 C.ar      1 RES1    0.0000
@<TRIPOS>BOND
     1    1   25 2
     2    2    4 2
     3    3    4 2
     4    4   26 1
     5    5    6 1
     6    7    9 1
     7    8   11 1
     8    9   10 1
     9   11    7 2
    10   12   13 1
    11   13    8 2
    12   14   15 1
    13   16   17 1
    14   18   16 1
    15   19   16 1
    16   20    5 1
    17   21   12 ar
    18   22   21 1
    19   23   12 ar
    20   24   23 1
    21   25    5 1
    22   26   20 ar
    23    9   13 1
    24   14   20 ar
    25   14   23 ar
    26   16   25 1
    27   21   26 ar
@<TRIPOS>SUBSTRUCTURE
     1 RES1 1

@<TRIPOS>CRYSIN
   8.3500    8.9383   13.9900  90.0000 100.8700  90.0000 231 1

