# MOL2 file generated by ConQuest
# Please check atom types

@<TRIPOS>MOLECULE
JOKSOS
    29    31     1
SMALL
USER_CHARGES
****
Generated from CSD

@<TRIPOS>ATOM
      1 O1         2.0364    5.6979    7.2769 O.2       1 RES1   -1.0000
      2 N1         1.8193    6.9062    7.6568 N.pl3     1 RES1    1.0000
      3 C1         0.9473    7.8082    7.0004 C.ar      1 RES1    0.0000
      4 C2         0.1454    7.6569    5.8858 C.ar      1 RES1    0.0000
      5 H1         0.1882    6.8579    5.4783 H         1 RES1    0.0000
      6 C3        -0.5849    8.7655    5.5025 C.ar      1 RES1    0.0000
      7 H2        -1.1427    8.6630    4.7548 H         1 RES1    0.0000
      8 C4        -0.5198    9.9547    6.2062 C.ar      1 RES1    0.0000
      9 H3        -1.0632   10.6862    5.8660 H         1 RES1    0.0000
     10 C5         0.2909   10.1097    7.3217 C.ar      1 RES1    0.0000
     11 H4         0.4535   11.0089    7.7868 H         1 RES1    0.0000
     12 C6         1.0044    8.9941    7.6998 C.ar      1 RES1    0.0000
     13 N2         1.9066    8.7880    8.7567 N.pl3     1 RES1    0.0000
     14 O2         2.2170    9.6917    9.6207 O.2       1 RES1    0.0000
     15 C7         2.3837    7.5102    8.7249 C.2       1 RES1    0.0000
     16 C8         3.3094    6.9201    9.6508 C.2       1 RES1    0.0000
     17 C9         3.8572    7.5055   10.8068 C.2       1 RES1    0.0000
     18 H5         3.6298    8.3020   11.1634 H         1 RES1    0.0000
     19 N3         4.6579    6.6673   11.4485 N.2       1 RES1    0.0000
     20 N4         4.6275    5.5428   10.7112 N.pl3     1 RES1    0.0000
     21 C10        5.3964    4.3609   11.1419 C.3       1 RES1    0.0000
     22 H6         5.3887    3.7050   10.3451 H         1 RES1    0.0000
     23 H7         6.3475    4.6671   11.2237 H         1 RES1    0.0000
     24 C11        4.8327    3.7303   12.3538 C.3       1 RES1    0.0000
     25 H8         5.3593    2.8970   12.5933 H         1 RES1    0.0000
     26 H9         4.8524    4.3574   13.0412 H         1 RES1    0.0000
     27 H10        3.9321    3.4641   12.2315 H         1 RES1    0.0000
     28 C12        3.8458    5.6499    9.6259 C.2       1 RES1    0.0000
     29 H11        3.7621    5.0303    9.0358 H         1 RES1    0.0000
@<TRIPOS>BOND
     1    1    2 1
     2    2    3 1
     3    3    4 ar
     4    4    5 1
     5    6    4 ar
     6    7    6 1
     7    8    6 ar
     8    9    8 1
     9   10    8 ar
    10   11   10 1
    11   12    3 ar
    12   13   12 1
    13   14   13 1
    14   15    2 2
    15   16   15 1
    16   17   16 1
    17   18   17 1
    18   19   17 2
    19   20   19 1
    20   21   20 1
    21   22   21 1
    22   23   21 1
    23   24   21 1
    24   25   24 1
    25   26   24 1
    26   27   24 1
    27   28   16 2
    28   29   28 1
    29   10   12 ar
    30   13   15 1
    31   20   28 1
@<TRIPOS>SUBSTRUCTURE
     1 RES1 1

@<TRIPOS>CRYSIN
   4.4863    7.5100    8.8470  93.1740 102.2900  97.0260   1 1

