# MOL2 file generated by ConQuest
# Please check atom types

@<TRIPOS>MOLECULE
JOKTOS
    36    36     2
SMALL
NO_CHARGES
****
Generated from CSD

@<TRIPOS>ATOM
      1 O1         7.7531    0.7380    6.7612 O.3       1 RES1    0.0000
      2 O2         8.7869    3.0747    3.6342 O.2       1 RES1    0.0000
      3 O3         9.4787    1.1990    4.4792 O.2       1 RES1    0.0000
      4 O4         4.2947    2.5801    1.8658 O.2       1 RES1    0.0000
      5 O5         2.8162    1.7566    3.1308 O.2       1 RES1    0.0000
      6 O6         5.6440    0.0121    8.1096 O.2       1 RES1    0.0000
      7 O7         5.9236   -0.9020    7.6062 Du        2 SUP2    0.0000
      8 O8         4.4307   -1.0514    6.8548 O.2       1 RES1    0.0000
      9 O9         3.9675    0.0613    7.5024 Du        2 SUP2    0.0000
     10 N1         7.4688    3.5469    6.8712 N.ar      1 RES1    0.0000
     11 N2         8.6219    2.0121    4.2047 N.pl3     1 RES1    0.0000
     12 N3         3.9348    2.0225    2.8854 N.pl3     1 RES1    0.0000
     13 N4         5.1524   -0.0975    7.0724 N.pl3     1 RES1    0.0000
     14 C1         7.3942    4.8477    6.9547 C.ar      1 RES1    0.0000
     15 C2         8.4468    5.6971    7.3519 C.ar      1 RES1    0.0000
     16 C3         9.6171    5.1300    7.7276 C.ar      1 RES1    0.0000
     17 C4         9.7745    3.7385    7.6821 C.ar      1 RES1    0.0000
     18 C5        10.9681    3.0669    8.0742 C.ar      1 RES1    0.0000
     19 C6        11.0451    1.7143    8.0185 C.ar      1 RES1    0.0000
     20 C7         9.9642    0.9512    7.5429 C.ar      1 RES1    0.0000
     21 C8         8.8176    1.5805    7.1558 C.ar      1 RES1    0.0000
     22 C9         8.6624    2.9720    7.2229 C.ar      1 RES1    0.0000
     23 C10        6.9101    1.0514    5.7505 C.ar      1 RES1    0.0000
     24 C11        7.2289    1.6720    4.5424 C.ar      1 RES1    0.0000
     25 C12        6.2791    1.9923    3.5937 C.ar      1 RES1    0.0000
     26 C13        4.9648    1.6332    3.8581 C.ar      1 RES1    0.0000
     27 C14        4.6128    0.9418    4.9662 C.ar      1 RES1    0.0000
     28 C15        5.5924    0.6474    5.8884 C.ar      1 RES1    0.0000
     29 H1         6.6132    5.2483    6.6410 H         1 RES1    0.0000
     30 H2         8.1773    6.6553    7.4253 H         1 RES1    0.0000
     31 H3        11.7142    3.6859    8.1842 H         1 RES1    0.0000
     32 H4        11.9765    1.2948    8.2095 H         1 RES1    0.0000
     33 H5         9.9917    0.0000    7.5897 H         1 RES1    0.0000
     34 H6        10.2337    5.7058    8.0704 H         1 RES1    0.0000
     35 H7         6.6890    2.4946    2.6058 H         1 RES1    0.0000
     36 H8         3.9194    0.7424    5.0092 H         1 RES1    0.0000
@<TRIPOS>BOND
     1    1   21 1
     2    2   11 2
     3    3   11 2
     4    4   12 2
     5    5   12 2
     6    6   13 2
     7    8   13 2
     8   10   14 ar
     9   11   24 1
    10   12   26 1
    11   13   28 1
    12   14   15 ar
    13   15   16 ar
    14   16   17 ar
    15   17   18 ar
    16   18   19 ar
    17   19   20 ar
    18   20   21 ar
    19   21   22 ar
    20   22   10 ar
    21   23    1 1
    22   24   23 ar
    23   25   24 ar
    24   26   25 ar
    25   27   26 ar
    26   28   23 ar
    27   29   14 1
    28   30   15 1
    29   31   18 1
    30   32   19 1
    31   33   20 1
    32   34   16 1
    33   35   25 1
    34   36   27 1
    35   17   22 ar
    36   27   28 ar
@<TRIPOS>SUBSTRUCTURE
     1 RES1 1
     2 SUP2 7

@<TRIPOS>CRYSIN
  27.2580    8.6320   13.6420  90.0000 111.9900  90.0000  15 1

