# MOL2 file generated by ConQuest
# Please check atom types

@<TRIPOS>MOLECULE
JOKTIM
    31    33     1
SMALL
NO_CHARGES
****
Generated from CSD

@<TRIPOS>ATOM
      1 O1         1.3861    0.6590    7.2081 O.3       1 RES1    0.0000
      2 O2         0.7898    3.1513    8.2911 O.2       1 RES1    0.0000
      3 O3         2.6558    4.2225    8.5386 O.2       1 RES1    0.0000
      4 O4         5.9637    2.4379    3.6932 O.2       1 RES1    0.0000
      5 O5         6.1165    3.8476    5.3540 O.2       1 RES1    0.0000
      6 O6         0.7005   -0.5212    4.8200 O.2       1 RES1    0.0000
      7 O7         2.2635   -0.5040    3.3330 O.2       1 RES1    0.0000
      8 N1         0.2246    2.0926    5.8431 N.pl3     1 RES1    0.0000
      9 N2         1.9390    3.4182    7.9320 N.pl3     1 RES1    0.0000
     10 N3         5.5160    2.9706    4.7072 N.pl3     1 RES1    0.0000
     11 N4         1.7259   -0.0430    4.3435 N.pl3     1 RES1    0.0000
     12 C1        -0.0215    0.4715    7.4590 C.3       1 RES1    0.0000
     13 C2        -0.6936    1.4356    6.5578 C.ar      1 RES1    0.0000
     14 C3        -2.0316    1.7426    6.3749 C.ar      1 RES1    0.0000
     15 C4        -2.3518    2.7305    5.4829 C.ar      1 RES1    0.0000
     16 C5        -1.3661    3.3981    4.7601 C.ar      1 RES1    0.0000
     17 C6        -0.0548    3.0509    4.9604 C.ar      1 RES1    0.0000
     18 C7         1.6441    1.6460    6.2011 C.ar      1 RES1    0.0000
     19 C8         2.4607    2.7630    6.7616 C.ar      1 RES1    0.0000
     20 C9         3.6784    3.1523    6.3046 C.ar      1 RES1    0.0000
     21 C10        4.2135    2.5565    5.1745 C.ar      1 RES1    0.0000
     22 C11        3.5447    1.5398    4.5380 C.ar      1 RES1    0.0000
     23 C12        2.3386    1.0874    4.9949 C.ar      1 RES1    0.0000
     24 H1        -0.1937    0.7173    8.3901 H         1 RES1    0.0000
     25 H2        -0.2130   -0.5165    7.2392 H         1 RES1    0.0000
     26 H3        -2.6073    1.2624    6.8709 H         1 RES1    0.0000
     27 H4        -3.3045    2.9840    5.3287 H         1 RES1    0.0000
     28 H5        -1.5795    4.1221    4.1433 H         1 RES1    0.0000
     29 H6         0.6431    3.4717    4.5921 H         1 RES1    0.0000
     30 H7         4.1261    3.8830    6.6983 H         1 RES1    0.0000
     31 H8         3.8098    1.1286    3.8785 H         1 RES1    0.0000
@<TRIPOS>BOND
     1    1   12 1
     2    2    9 2
     3    3    9 2
     4    4   10 2
     5    5   10 2
     6    6   11 2
     7    7   11 2
     8    8   13 ar
     9    9   19 1
    10   10   21 1
    11   11   23 1
    12   12   13 1
    13   13   14 ar
    14   14   15 ar
    15   15   16 ar
    16   16   17 ar
    17   17    8 ar
    18   18    1 1
    19   19   18 ar
    20   20   19 ar
    21   21   20 ar
    22   22   21 ar
    23   23   18 ar
    24   24   12 1
    25   25   12 1
    26   26   14 1
    27   27   15 1
    28   28   16 1
    29   29   17 1
    30   30   20 1
    31   31   22 1
    32    8   18 1
    33   22   23 ar
@<TRIPOS>SUBSTRUCTURE
     1 RES1 1

@<TRIPOS>CRYSIN
  11.6950    9.5640   12.3520  90.0000 111.2900  90.0000 231 1

