# MOL2 file generated by ConQuest
# Please check atom types

@<TRIPOS>MOLECULE
JOKYOZ
    96    98     2
SMALL
NO_CHARGES
****
Generated from CSD

@<TRIPOS>ATOM
      1 C1        -1.6356   15.0013    4.0997 C.ar      1 RES1    0.0000
      2 C2        -0.5421   14.6270    3.1415 C.2       1 RES1    0.0000
      3 C3        -2.8488   14.3920    4.0611 C.ar      1 RES1    0.0000
      4 H1        -3.0091   13.7166    3.4426 H         1 RES1    0.0000
      5 C4        -3.8575   14.7750    4.9481 C.ar      1 RES1    0.0000
      6 H2        -4.6821   14.3450    4.9288 H         1 RES1    0.0000
      7 C5        -1.4473   15.9971    5.0163 C.ar      1 RES1    0.0000
      8 H3        -0.6234   16.4271    5.0549 H         1 RES1    0.0000
      9 C6        -2.4372   16.3801    5.8766 C.ar      1 RES1    0.0000
     10 H4        -2.2761   17.0608    6.4907 H         1 RES1    0.0000
     11 C7        -3.6328   15.7900    5.8484 C.ar      1 RES1    0.0000
     12 H5        -4.3061   16.0598    6.4314 H         1 RES1    0.0000
     13 N1        -0.4528   11.7770    3.4097 N.2       1 RES1    0.0000
     14 N2        -2.3878   10.6226    3.5613 N.3       1 RES1    0.0000
     15 C8         0.5724   12.5293    3.9351 C.2       1 RES1    0.0000
     16 C9         2.7116   12.4770    5.0386 C.2       1 RES1    0.0000
     17 C10        0.6133   13.8732    3.8105 C.2       1 RES1    0.0000
     18 C11        1.7121   14.6062    4.3281 C.2       1 RES1    0.0000
     19 C12        3.8523   14.5679    5.5503 C.3       1 RES1    0.0000
     20 H6         4.4669   13.9394    5.9360 H         1 RES1    0.0000
     21 H7         3.5276   15.1580    6.2341 H         1 RES1    0.0000
     22 H8         4.3024   15.0797    4.8739 H         1 RES1    0.0000
     23 C13        1.6396   10.3845    4.5610 C.3       1 RES1    0.0000
     24 H9         2.5273   10.0589    4.3963 H         1 RES1    0.0000
     25 H10        1.0411   10.0311    3.8995 H         1 RES1    0.0000
     26 H11        1.3537   10.1024    5.4331 H         1 RES1    0.0000
     27 N3         1.6342   11.8418    4.4953 N.am      1 RES1    0.0000
     28 N4         2.7299   13.8506    4.9536 N.am      1 RES1    0.0000
     29 O1         3.6205   11.8606    5.5815 O.2       1 RES1    0.0000
     30 O2         1.8370   15.8404    4.3148 O.2       1 RES1    0.0000
     31 C14       -1.4215   11.3454    4.1472 C.2       1 RES1    0.0000
     32 C15       -1.5199   11.5822    5.6215 C.3       1 RES1    0.0000
     33 H12       -1.4144   10.7501    6.0872 H         1 RES1    0.0000
     34 H13       -2.3764   11.9600    5.8277 H         1 RES1    0.0000
     35 H14       -0.8273   12.1898    5.8929 H         1 RES1    0.0000
     36 C16       -3.6113   10.1756    4.2495 C.3       1 RES1    0.0000
     37 H15       -3.3739    9.6603    5.0223 H         1 RES1    0.0000
     38 H16       -4.1347    9.6359    3.6518 H         1 RES1    0.0000
     39 H17       -4.1229   10.9416    4.5209 H         1 RES1    0.0000
     40 C17       -2.3325   10.3792    2.1299 C.3       1 RES1    0.0000
     41 H18       -2.4749   11.2044    1.6598 H         1 RES1    0.0000
     42 H19       -3.0140    9.7490    1.8867 H         1 RES1    0.0000
     43 H20       -1.4699   10.0241    1.9000 H         1 RES1    0.0000
     44 C18       -0.4264   15.1058    1.9890 C.2       1 RES1    0.0000
     45 H21        0.4109   15.0170    1.5945 H         1 RES1    0.0000
     46 N5        -1.4324   15.7830    1.1955 N.pl3     1 RES1    0.0000
     47 O3        -2.3526   15.1267    0.7757 O.2       1 RES1    0.0000
     48 O4        -1.3615   16.8815    0.9478 O.2       1 RES1    0.0000
     49 N6         6.2012   14.7599    2.6777 N.2       2 RES2    0.0000
     50 N7         8.0280   16.0843    2.5645 N.3       2 RES2    0.0000
     51 C19        7.1320   15.2921    1.9505 C.2       2 RES2    0.0000
     52 C20        7.2740   15.0536    0.4999 C.3       2 RES2    0.0000
     53 H22        6.5591   14.4913    0.1958 H         2 RES2    0.0000
     54 H23        8.1148   14.6236    0.3278 H         2 RES2    0.0000
     55 H24        7.2425   15.8909    0.0341 H         2 RES2    0.0000
     56 C21        7.8754   16.3209    3.9840 C.3       2 RES2    0.0000
     57 H25        7.0062   16.6883    4.1546 H         2 RES2    0.0000
     58 H26        8.5482   16.9372    4.2792 H         2 RES2    0.0000
     59 H27        7.9719   15.4905    4.4572 H         2 RES2    0.0000
     60 C22        9.1805   16.6656    1.8837 C.3       2 RES2    0.0000
     61 H28        9.9846   16.4115    2.3420 H         2 RES2    0.0000
     62 H29        9.1012   17.6214    1.8808 H         2 RES2    0.0000
     63 H30        9.2133   16.3436    0.9789 H         2 RES2    0.0000
     64 O5         2.2178   14.1291    0.4352 O.2       2 RES2    0.0000
     65 O6         4.3694   10.4534    2.0123 O.2       2 RES2    0.0000
     66 C23        5.2724   13.8819    2.1700 C.2       2 RES2    0.0000
     67 C24        5.3973   12.5501    2.3732 C.2       2 RES2    0.0000
     68 C25        6.6146   11.9408    3.0036 C.2       2 RES2    0.0000
     69 C26        4.0000   15.8735    1.4121 C.3       2 RES2    0.0000
     70 H31        4.2814   16.1399    0.5325 H         2 RES2    0.0000
     71 H32        4.5330   16.3262    2.0691 H         2 RES2    0.0000
     72 H33        3.0767   16.1033    1.5352 H         2 RES2    0.0000
     73 C27        2.2096   11.4412    0.7031 C.3       2 RES2    0.0000
     74 H34        1.4081   11.9617    0.6111 H         2 RES2    0.0000
     75 H35        2.0482   10.7065    1.2993 H         2 RES2    0.0000
     76 H36        2.4733   11.1052   -0.1557 H         2 RES2    0.0000
     77 C28        3.1587   13.6382    1.0442 C.2       2 RES2    0.0000
     78 C29        4.3485   11.6745    1.8852 C.2       2 RES2    0.0000
     79 N8         4.1676   14.4221    1.5605 N.am      2 RES2    0.0000
     80 N9         3.2834   12.2867    1.2480 N.am      2 RES2    0.0000
     81 C30        7.7358   11.7493    2.0810 C.ar      2 RES2    0.0000
     82 C31        8.8562   12.5606    2.1626 C.ar      2 RES2    0.0000
     83 H37        8.9407   13.1769    2.8523 H         2 RES2    0.0000
     84 C32        7.6353   10.8458    1.1169 C.ar      2 RES2    0.0000
     85 H38        6.8635   10.3288    1.0739 H         2 RES2    0.0000
     86 C33        6.6306   11.7319    4.2777 C.2       2 RES2    0.0000
     87 H39        5.8768   11.9791    4.7627 H         2 RES2    0.0000
     88 N10        7.7511   11.1296    5.0252 N.pl3     2 RES2    0.0000
     89 O7         7.7748    9.9719    5.1825 O.2       2 RES2    0.0000
     90 O8         8.5559   11.8573    5.4880 O.2       2 RES2    0.0000
     91 C34        9.6714   11.4342    0.2225 C.ar      2 RES2    0.0000
     92 H40       10.3194   11.3071   -0.4316 H         2 RES2    0.0000
     93 C35        9.8670   12.4422    1.1866 C.ar      2 RES2    0.0000
     94 H41       10.6154   12.9941    1.1792 H         2 RES2    0.0000
     95 C36        8.5710   10.6421    0.2166 C.ar      2 RES2    0.0000
     96 H42        8.4798    9.9649   -0.4153 H         2 RES2    0.0000
@<TRIPOS>BOND
     1    1    2 1
     2    2   17 1
     3    3    1 ar
     4    4    3 1
     5    5    3 ar
     6    6    5 1
     7    7    1 ar
     8    8    7 1
     9    9    7 ar
    10   10    9 1
    11   11    5 ar
    12   12   11 1
    13   13   15 1
    14   14   31 1
    15   15   17 2
    16   16   27 1
    17   17   18 1
    18   18   28 1
    19   19   20 1
    20   21   19 1
    21   22   19 1
    22   23   24 1
    23   25   23 1
    24   26   23 1
    25   27   15 1
    26   28   16 1
    27   29   16 2
    28   30   18 2
    29   31   13 2
    30   32   31 1
    31   33   32 1
    32   34   32 1
    33   35   32 1
    34   36   14 1
    35   37   36 1
    36   38   36 1
    37   39   36 1
    38   40   14 1
    39   41   40 1
    40   42   40 1
    41   43   40 1
    42   44    2 2
    43   45   44 1
    44   46   44 1
    45   47   46 2
    46   48   46 2
    47   49   51 2
    48   50   51 1
    49   51   52 1
    50   52   53 1
    51   54   52 1
    52   55   52 1
    53   56   50 1
    54   57   56 1
    55   58   56 1
    56   59   56 1
    57   60   50 1
    58   61   60 1
    59   62   60 1
    60   63   60 1
    61   64   77 2
    62   65   78 2
    63   66   49 1
    64   67   66 2
    65   68   67 1
    66   69   70 1
    67   71   69 1
    68   72   69 1
    69   73   74 1
    70   75   73 1
    71   76   73 1
    72   77   79 1
    73   78   67 1
    74   79   66 1
    75   80   73 1
    76   81   68 1
    77   82   81 ar
    78   83   82 1
    79   84   81 ar
    80   85   84 1
    81   86   68 2
    82   87   86 1
    83   88   86 1
    84   89   88 2
    85   90   88 2
    86   91   92 1
    87   93   82 ar
    88   94   93 1
    89   95   84 ar
    90   96   95 1
    91    9   11 ar
    92   19   28 1
    93   23   27 1
    94   69   79 1
    95   77   80 1
    96   78   80 1
    97   91   93 ar
    98   91   95 ar
@<TRIPOS>SUBSTRUCTURE
     1 RES1 1
     2 RES2 49

@<TRIPOS>CRYSIN
  15.0897   17.4090   15.1109  90.0000 101.0160  90.0000  14 1

