# MOL2 file generated by ConQuest
# Please check atom types

@<TRIPOS>MOLECULE
JOLDIX
    57    60     1
SMALL
NO_CHARGES
****
Generated from CSD

@<TRIPOS>ATOM
      1 O1         3.7892    0.0506   -1.5307 O.3       1 RES1    0.0000
      2 C1         2.7687    0.6911   -0.7546 C.3       1 RES1    0.0000
      3 C2         2.5514   -0.0867    0.5734 C.3       1 RES1    0.0000
      4 C3         2.0506   -1.4840    0.1681 C.2       1 RES1    0.0000
      5 C4         2.7937   -2.0914   -0.9408 C.ar      1 RES1    0.0000
      6 C5         2.6539   -3.4367   -1.2753 C.ar      1 RES1    0.0000
      7 C6         3.3328   -4.0053   -2.3380 C.ar      1 RES1    0.0000
      8 C7         4.1656   -3.1828   -3.0992 C.ar      1 RES1    0.0000
      9 C8         4.3180   -1.8340   -2.8043 C.ar      1 RES1    0.0000
     10 C9         3.6331   -1.2968   -1.7366 C.ar      1 RES1    0.0000
     11 O2         1.5199    0.5919   -1.3914 O.3       1 RES1    0.0000
     12 C10        1.4477    1.1004   -2.7277 C.3       1 RES1    0.0000
     13 O3         3.8336   -0.2081    1.1583 O.3       1 RES1    0.0000
     14 C11        3.8702   -0.9875    2.3586 C.3       1 RES1    0.0000
     15 O4         1.1337   -2.0387    0.7571 O.2       1 RES1    0.0000
     16 O5         4.8788   -3.6057   -4.1809 O.3       1 RES1    0.0000
     17 C12        4.6597   -4.9281   -4.6728 C.3       1 RES1    0.0000
     18 C13        3.2337    2.1203   -0.5759 C.ar      1 RES1    0.0000
     19 C14        2.2942    3.1451   -0.5001 C.ar      1 RES1    0.0000
     20 C15        2.7064    4.4477   -0.2480 C.ar      1 RES1    0.0000
     21 C16        4.0448    4.6874   -0.0535 C.ar      1 RES1    0.0000
     22 C17        5.0041    3.6947   -0.1401 C.ar      1 RES1    0.0000
     23 C18        4.5835    2.4017   -0.4004 C.ar      1 RES1    0.0000
     24 N1         4.4819    6.0534    0.2694 N.pl3     1 RES1    0.0000
     25 O6         3.6834    6.9452    0.1878 O.2       1 RES1    0.0000
     26 O7         5.6233    6.2449    0.5866 O.2       1 RES1    0.0000
     27 C19        1.6616    1.6736    2.1790 C.ar      1 RES1    0.0000
     28 C20        2.8774    2.2794    2.5629 C.ar      1 RES1    0.0000
     29 C21        2.8767    3.4407    3.2821 C.ar      1 RES1    0.0000
     30 C22        1.6810    4.0502    3.6817 C.ar      1 RES1    0.0000
     31 C23        0.4780    3.4456    3.3151 C.ar      1 RES1    0.0000
     32 C24        0.4620    2.2802    2.5909 C.ar      1 RES1    0.0000
     33 N2         1.5688    0.5100    1.4458 N.pl3     1 RES1    0.0000
     34 C25        1.6447    5.2735    4.4693 C.2       1 RES1    0.0000
     35 O8         2.5759    5.8931    4.8334 O.2       1 RES1    0.0000
     36 H1         2.1497   -3.9834   -0.7332 H         1 RES1    0.0000
     37 H2         3.2215   -5.0240   -2.5044 H         1 RES1    0.0000
     38 H3         4.8704   -1.2603   -3.4107 H         1 RES1    0.0000
     39 H4         0.5241    0.9788   -3.1306 H         1 RES1    0.0000
     40 H5         1.7728    2.0024   -2.8257 H         1 RES1    0.0000
     41 H6         2.1450    0.6535   -3.2459 H         1 RES1    0.0000
     42 H7         4.8386   -0.9480    2.6774 H         1 RES1    0.0000
     43 H8         3.2903   -0.5704    2.9905 H         1 RES1    0.0000
     44 H9         3.6755   -1.9261    2.1255 H         1 RES1    0.0000
     45 H10        5.1625   -4.9825   -5.4455 H         1 RES1    0.0000
     46 H11        4.9287   -5.4777   -3.8720 H         1 RES1    0.0000
     47 H12        3.6937   -5.0610   -4.9512 H         1 RES1    0.0000
     48 H13        1.3337    2.9115   -0.5932 H         1 RES1    0.0000
     49 H14        2.0609    5.1860   -0.1730 H         1 RES1    0.0000
     50 H15        5.9670    3.8931    0.0082 H         1 RES1    0.0000
     51 H16        5.2066    1.7188   -0.4284 H         1 RES1    0.0000
     52 H17        3.7270    1.9258    2.2655 H         1 RES1    0.0000
     53 H18        3.5932    3.8847    3.5837 H         1 RES1    0.0000
     54 H19       -0.3813    3.8478    3.6001 H         1 RES1    0.0000
     55 H20       -0.4129    1.8243    2.2655 H         1 RES1    0.0000
     56 H21        0.8591    0.1965    1.3181 H         1 RES1    0.0000
     57 H22        0.8554    5.9385    4.8112 H         1 RES1    0.0000
@<TRIPOS>BOND
     1    1    2 1
     2    2    3 1
     3    3    4 1
     4    4    5 1
     5    5    6 ar
     6    6    7 ar
     7    7    8 ar
     8    8    9 ar
     9    9   10 ar
    10   10    1 1
    11   11    2 1
    12   12   11 1
    13   13    3 1
    14   14   13 1
    15   15    4 2
    16   16    8 1
    17   17   16 1
    18   18    2 1
    19   19   18 ar
    20   20   19 ar
    21   21   20 ar
    22   22   21 ar
    23   23   18 ar
    24   24   21 1
    25   25   24 2
    26   26   24 2
    27   27   28 ar
    28   28   29 ar
    29   29   30 ar
    30   30   31 ar
    31   31   32 ar
    32   32   27 ar
    33   33    3 1
    34   34   30 1
    35   35   34 2
    36   36    6 1
    37   37    7 1
    38   38    9 1
    39   39   12 1
    40   40   12 1
    41   41   12 1
    42   42   14 1
    43   43   14 1
    44   44   14 1
    45   45   17 1
    46   46   17 1
    47   47   17 1
    48   48   19 1
    49   49   20 1
    50   50   22 1
    51   51   23 1
    52   52   28 1
    53   53   29 1
    54   54   31 1
    55   55   32 1
    56   56   33 1
    57   57   34 1
    58    5   10 ar
    59   22   23 ar
    60   27   33 1
@<TRIPOS>SUBSTRUCTURE
     1 RES1 1

@<TRIPOS>CRYSIN
  11.1170   13.1100    8.9370  91.8800 112.4500  75.2700   2 1

