# MOL2 file generated by ConQuest
# Please check atom types

@<TRIPOS>MOLECULE
JOLNED
    24    24     1
SMALL
NO_CHARGES
****
Generated from CSD

@<TRIPOS>ATOM
      1 O1         7.2092    0.9038   12.4682 O.2       1 RES1    0.0000
      2 O2         5.2208    0.5401   13.2017 O.2       1 RES1    0.0000
      3 N1         4.7987   -1.7553    7.3202 N.2       1 RES1    0.0000
      4 N2         3.5773   -2.1162    7.1696 N.2       1 RES1    0.0000
      5 N3         3.3140   -2.6689    6.0148 N.3       1 RES1    0.0000
      6 N4         6.0722    0.4934   12.3196 N.pl3     1 RES1    0.0000
      7 C1         5.0226   -1.1873    8.5950 C.ar      1 RES1    0.0000
      8 C2         4.1024   -1.1702    9.6469 C.ar      1 RES1    0.0000
      9 C3         4.4315   -0.6117   10.8566 C.ar      1 RES1    0.0000
     10 C4         5.7032   -0.0811   11.0306 C.ar      1 RES1    0.0000
     11 C5         6.6250   -0.0911   10.0122 C.ar      1 RES1    0.0000
     12 C6         6.2834   -0.6388    8.8056 C.ar      1 RES1    0.0000
     13 C7         1.9798   -3.1770    5.8398 C.3       1 RES1    0.0000
     14 C8         4.3514   -2.9297    5.0300 C.3       1 RES1    0.0000
     15 H1         3.1358   -1.5830    9.5432 H         1 RES1    0.0000
     16 H2         3.8379   -0.5529   11.4864 H         1 RES1    0.0000
     17 H3         7.4481    0.2956   10.1638 H         1 RES1    0.0000
     18 H4         6.8071   -0.6766    8.1392 H         1 RES1    0.0000
     19 H5         5.1748   -2.5184    5.3108 H         1 RES1    0.0000
     20 H6         4.4992   -3.8715    4.9547 H         1 RES1    0.0000
     21 H7         4.1071   -2.5818    4.1815 H         1 RES1    0.0000
     22 H8         1.4271   -2.9184    6.5520 H         1 RES1    0.0000
     23 H9         1.6144   -2.8527    5.0158 H         1 RES1    0.0000
     24 H10        2.0059   -4.1347    5.7890 H         1 RES1    0.0000
@<TRIPOS>BOND
     1    1    6 2
     2    2    6 2
     3    3    4 2
     4    4    5 1
     5    5   13 1
     6    6   10 1
     7    7    3 1
     8    8    7 ar
     9    9    8 ar
    10   10    9 ar
    11   11   10 ar
    12   12    7 ar
    13   13   22 1
    14   14    5 1
    15   15    8 1
    16   16    9 1
    17   17   11 1
    18   18   12 1
    19   19   14 1
    20   20   14 1
    21   21   14 1
    22   23   13 1
    23   24   13 1
    24   11   12 ar
@<TRIPOS>SUBSTRUCTURE
     1 RES1 1

@<TRIPOS>CRYSIN
   5.9660    7.6810   10.4830 103.2900  93.0800  94.6100   2 1

