# MOL2 file generated by ConQuest
# Please check atom types

@<TRIPOS>MOLECULE
JONQOU
    50    52     1
SMALL
NO_CHARGES
****
Generated from CSD

@<TRIPOS>ATOM
      1 O1         4.6929    8.3113    2.0041 O.3       1 RES1    0.0000
      2 O2         3.9188    8.5743   -0.0648 O.2       1 RES1    0.0000
      3 O3        13.0599    9.7414    6.1686 O.2       1 RES1    0.0000
      4 O4        14.3391    8.7715    7.6244 O.2       1 RES1    0.0000
      5 N1        10.8947    3.8904    5.8702 N.pl3     1 RES1    0.0000
      6 H1        11.2160    3.1950    6.2993 H         1 RES1    0.0000
      7 H2        10.1619    3.8044    5.3573 H         1 RES1    0.0000
      8 N2        13.4122    8.7428    6.7983 N.pl3     1 RES1    0.0000
      9 N3         8.7459    5.7213    4.8789 N.3       1 RES1    0.0000
     10 H3         8.5999    5.9970    5.7130 H         1 RES1    0.0000
     11 C1         3.9692    5.4583    1.7806 C.ar      1 RES1    0.0000
     12 C2         3.4516    6.5196    1.0233 C.ar      1 RES1    0.0000
     13 C3         2.2632    6.3632    0.3014 C.ar      1 RES1    0.0000
     14 H4         1.9095    7.1475   -0.2348 H         1 RES1    0.0000
     15 C4         1.5775    5.1694    0.3443 C.ar      1 RES1    0.0000
     16 H5         0.7303    5.0559   -0.1578 H         1 RES1    0.0000
     17 C5         2.0862    4.1195    1.0787 C.ar      1 RES1    0.0000
     18 H6         1.6396    3.2605    1.1048 H         1 RES1    0.0000
     19 C6         3.2772    4.2321    1.7904 C.ar      1 RES1    0.0000
     20 C7         4.0471    7.8820    0.9122 C.2       1 RES1    0.0000
     21 C8         5.2047    9.6599    1.8993 C.3       1 RES1    0.0000
     22 H7         4.4751   10.3126    1.6972 H         1 RES1    0.0000
     23 H8         5.8463    9.7601    1.1688 H         1 RES1    0.0000
     24 H9         5.6757    9.8513    2.7901 H         1 RES1    0.0000
     25 C9        11.0696    6.2506    5.3852 C.ar      1 RES1    0.0000
     26 C10       11.4686    5.0885    6.0981 C.ar      1 RES1    0.0000
     27 C11       12.5054    5.1883    7.0435 C.ar      1 RES1    0.0000
     28 H10       12.7545    4.4067    7.5370 H         1 RES1    0.0000
     29 C12       13.1384    6.3735    7.2730 C.ar      1 RES1    0.0000
     30 H11       13.8941    6.4071    7.8937 H         1 RES1    0.0000
     31 C13       12.7364    7.5043    6.5766 C.ar      1 RES1    0.0000
     32 C14       11.7050    7.4412    5.6443 C.ar      1 RES1    0.0000
     33 H12       11.4592    8.2367    5.1925 H         1 RES1    0.0000
     34 C15        5.2357    5.5669    2.5578 C.ar      1 RES1    0.0000
     35 C16        5.2059    5.4411    3.9494 C.ar      1 RES1    0.0000
     36 H13        4.3483    5.3321    4.4063 H         1 RES1    0.0000
     37 C17        6.3586    5.5127    4.6974 C.ar      1 RES1    0.0000
     38 H14        6.2908    5.4432    5.6540 H         1 RES1    0.0000
     39 C18        7.6032    5.7039    4.0817 C.ar      1 RES1    0.0000
     40 C19        7.6444    5.8270    2.6947 C.ar      1 RES1    0.0000
     41 H15        8.5029    5.9785    2.2586 H         1 RES1    0.0000
     42 C20        6.4692    5.7561    1.9519 C.ar      1 RES1    0.0000
     43 H16        6.5179    5.8433    0.9530 H         1 RES1    0.0000
     44 C21       10.0124    6.1686    4.3192 C.3       1 RES1    0.0000
     45 H17        9.9052    7.0877    3.8919 H         1 RES1    0.0000
     46 H18       10.2848    5.4973    3.6521 H         1 RES1    0.0000
     47 C22        3.8021    3.0301    2.5268 C.3       1 RES1    0.0000
     48 H19        3.6749    3.0825    3.5133 H         1 RES1    0.0000
     49 H20        4.7934    2.9188    2.4254 H         1 RES1    0.0000
     50 H21        3.3430    2.2083    2.2796 H         1 RES1    0.0000
@<TRIPOS>BOND
     1    1   20 1
     2    2   20 2
     3    3    8 2
     4    4    8 2
     5    5    6 1
     6    7    5 1
     7    8   31 1
     8    9   10 1
     9   11   12 ar
    10   12   13 ar
    11   13   14 1
    12   15   13 ar
    13   16   15 1
    14   17   15 ar
    15   18   17 1
    16   19   11 ar
    17   20   12 1
    18   21    1 1
    19   22   21 1
    20   23   21 1
    21   24   21 1
    22   25   26 ar
    23   26    5 1
    24   27   26 ar
    25   28   27 1
    26   29   27 ar
    27   30   29 1
    28   31   29 ar
    29   32   25 ar
    30   33   32 1
    31   34   11 1
    32   35   34 ar
    33   36   35 1
    34   37   35 ar
    35   38   37 1
    36   39    9 1
    37   40   39 ar
    38   41   40 1
    39   42   34 ar
    40   43   42 1
    41   44    9 1
    42   45   44 1
    43   46   44 1
    44   47   19 1
    45   48   47 1
    46   49   47 1
    47   50   47 1
    48   17   19 ar
    49   25   44 1
    50   31   32 ar
    51   37   39 ar
    52   40   42 ar
@<TRIPOS>SUBSTRUCTURE
     1 RES1 1

@<TRIPOS>CRYSIN
  13.4680   14.2380    9.9900  90.0000  90.6020  90.0000  14 1

