# MOL2 file generated by ConQuest
# Please check atom types

@<TRIPOS>MOLECULE
JOPNUX
    36    37     1
SMALL
NO_CHARGES
****
Generated from CSD

@<TRIPOS>ATOM
      1 C1         3.6329    5.2449    8.6810 C.ar      1 RES1    0.0000
      2 C2         3.5696    4.4624    9.8108 C.ar      1 RES1    0.0000
      3 H1         2.5943    4.2527   10.0356 H         1 RES1    0.0000
      4 C3         4.6986    4.2553   10.5846 C.ar      1 RES1    0.0000
      5 H2         4.6818    3.7818   11.5171 H         1 RES1    0.0000
      6 C4         5.8756    4.8398   10.1871 C.ar      1 RES1    0.0000
      7 C5         5.9748    5.6203    9.0361 C.ar      1 RES1    0.0000
      8 H3         6.8957    5.9585    8.8246 H         1 RES1    0.0000
      9 C6         4.8453    5.8330    8.2553 C.ar      1 RES1    0.0000
     10 N1         7.0882    4.6473   10.9856 N.pl3     1 RES1    0.0000
     11 O1         7.0222    3.8483   11.9216 O.2       1 RES1    0.0000
     12 O2         8.0851    5.2835   10.7274 O.2       1 RES1    0.0000
     13 O3         2.5149    5.3915    7.8790 O.3       1 RES1    0.0000
     14 C7         1.8554    6.6570    7.9909 C.3       1 RES1    0.0000
     15 H4         2.4759    7.4651    8.2500 H         1 RES1    0.0000
     16 H5         0.9206    6.9036    8.4888 H         1 RES1    0.0000
     17 C8         1.1808    6.9469    6.6495 C.3       1 RES1    0.0000
     18 H6         0.7255    6.0447    6.4125 H         1 RES1    0.0000
     19 H7         0.5453    7.7560    6.7341 H         1 RES1    0.0000
     20 N2         2.1717    7.0852    5.5858 N.3       1 RES1    0.0000
     21 H8         1.8638    6.5809    4.7794 H         1 RES1    0.0000
     22 C9         2.6401    8.4573    5.3619 C.3       1 RES1    0.0000
     23 H9         2.9904    8.7774    6.2626 H         1 RES1    0.0000
     24 H10        1.7421    9.1401    5.1416 H         1 RES1    0.0000
     25 C10        3.6517    8.4842    4.2585 C.3       1 RES1    0.0000
     26 H11        3.3019    8.1783    3.3957 H         1 RES1    0.0000
     27 H12        3.9853    9.3638    4.1043 H         1 RES1    0.0000
     28 O4         4.8094    7.6624    4.5079 O.3       1 RES1    0.0000
     29 C11        5.7141    8.1721    5.4941 C.3       1 RES1    0.0000
     30 H13        5.2353    8.9200    5.9595 H         1 RES1    0.0000
     31 H14        6.6742    8.6747    5.3020 H         1 RES1    0.0000
     32 C12        6.0377    7.0640    6.4812 C.3       1 RES1    0.0000
     33 H15        6.6049    6.2719    6.0141 H         1 RES1    0.0000
     34 H16        6.7877    7.5329    7.0814 H         1 RES1    0.0000
     35 N3         4.8251    6.6074    7.1202 N.3       1 RES1    0.0000
     36 H17        4.2283    6.3551    6.4257 H         1 RES1    0.0000
@<TRIPOS>BOND
     1    1    2 ar
     2    2    3 1
     3    4    2 ar
     4    5    4 1
     5    6    4 ar
     6    7    6 ar
     7    8    7 1
     8    9    1 ar
     9   10    6 1
    10   11   10 2
    11   12   10 2
    12   13    1 1
    13   14   13 1
    14   15   14 1
    15   16   14 1
    16   17   14 1
    17   18   17 1
    18   19   17 1
    19   20   17 1
    20   21   20 1
    21   22   20 1
    22   23   22 1
    23   24   22 1
    24   25   22 1
    25   26   25 1
    26   27   25 1
    27   28   25 1
    28   29   28 1
    29   30   29 1
    30   31   29 1
    31   32   29 1
    32   33   32 1
    33   34   32 1
    34   35    9 1
    35   36   35 1
    36    7    9 ar
    37   32   35 1
@<TRIPOS>SUBSTRUCTURE
     1 RES1 1

@<TRIPOS>CRYSIN
   8.5000    9.2620    9.7380  64.8900  78.9800  67.2100   2 1

