# MOL2 file generated by ConQuest
# Please check atom types

@<TRIPOS>MOLECULE
JOPWUG
    53    53     1
SMALL
NO_CHARGES
****
Generated from CSD

@<TRIPOS>ATOM
      1 C1         5.7308    0.3158   -0.2213 C.3       1 RES1    0.0000
      2 C2         5.7559   -4.2112    4.7228 C.3       1 RES1    0.0000
      3 C3         4.7840   -1.8635    7.4296 C.3       1 RES1    0.0000
      4 C4         6.2512   -1.1297    5.6201 C.2       1 RES1    0.0000
      5 C5         6.1446   -0.8096    4.1485 C.3       1 RES1    0.0000
      6 C6         6.1383    0.7170    3.9541 C.3       1 RES1    0.0000
      7 C7         5.1539    1.4213    4.8903 C.3       1 RES1    0.0000
      8 C8         7.5616    1.2118    4.1485 C.3       1 RES1    0.0000
      9 C9         4.4580   -0.1421    0.4397 C.3       1 RES1    0.0000
     10 C10        3.5990    1.0633    0.7358 C.3       1 RES1    0.0000
     11 C11        3.7118   -1.2107   -0.3499 C.3       1 RES1    0.0000
     12 C12        4.1382   -1.1360    2.6710 C.2       1 RES1    0.0000
     13 C13        4.2824   -2.1814    4.9112 C.3       1 RES1    0.0000
     14 C14        4.3012   -3.7038    4.7168 C.3       1 RES1    0.0000
     15 C15        3.6617   -4.1164    3.3918 C.3       1 RES1    0.0000
     16 C16        3.5237   -4.3796    5.8564 C.3       1 RES1    0.0000
     17 N1         4.8655   -1.4392    3.7926 N.am      1 RES1    0.0000
     18 N2         5.1038   -1.7150    6.0089 N.am      1 RES1    0.0000
     19 N3         7.6557    2.6288    3.6131 N.pl3     1 RES1    0.0000
     20 O1         4.9658   -0.7222    1.7049 O.3       1 RES1    0.0000
     21 O2         2.9406   -1.2802    2.5812 O.2       1 RES1    0.0000
     22 O3         7.1792   -0.8001    6.3200 O.2       1 RES1    0.0000
     23 O4         7.0851    2.9794    2.6500 O.2       1 RES1    0.0000
     24 O5         8.3642    3.3426    4.2502 O.2       1 RES1    0.0000
     25 H1         6.2073   -3.7374    3.9780 H         1 RES1    0.0000
     26 H2         5.5176   -5.3693    4.6061 H         1 RES1    0.0000
     27 H3         5.8311   -4.2112    5.6829 H         1 RES1    0.0000
     28 H4         5.7057    0.7580   -1.1366 H         1 RES1    0.0000
     29 H5         4.1382   -2.2109    7.5373 H         1 RES1    0.0000
     30 H6         5.1414   -1.1160    7.8065 H         1 RES1    0.0000
     31 H7         5.2041   -2.8215    7.5373 H         1 RES1    0.0000
     32 H8         6.3954   -0.4422   -0.2692 H         1 RES1    0.0000
     33 H9         6.2700    0.8422    0.3888 H         1 RES1    0.0000
     34 H10        6.9158   -1.2318    3.5892 H         1 RES1    0.0000
     35 H11        5.8311    0.9265    2.9910 H         1 RES1    0.0000
     36 H12        4.3263    1.1581    4.6660 H         1 RES1    0.0000
     37 H13        5.0787    2.4004    4.6061 H         1 RES1    0.0000
     38 H14        5.5803    1.4423    6.0717 H         1 RES1    0.0000
     39 H15        7.9629    0.7685    3.5593 H         1 RES1    0.0000
     40 H16        7.7748    1.2634    5.2343 H         1 RES1    0.0000
     41 H17        3.0723    1.4739   -0.0897 H         1 RES1    0.0000
     42 H18        3.9501    1.5581    1.4656 H         1 RES1    0.0000
     43 H19        2.6961    0.6633    1.1067 H         1 RES1    0.0000
     44 H20        3.6993   -0.7159   -1.2562 H         1 RES1    0.0000
     45 H21        2.9469   -1.7898    0.2094 H         1 RES1    0.0000
     46 H22        4.2636   -1.8529   -0.5085 H         1 RES1    0.0000
     47 H23        3.4360   -1.9477    5.0249 H         1 RES1    0.0000
     48 H24        3.9501   -3.6848    2.6620 H         1 RES1    0.0000
     49 H25        2.7588   -3.8111    3.3200 H         1 RES1    0.0000
     50 H26        3.5739   -5.1903    3.3499 H         1 RES1    0.0000
     51 H27        3.6993   -4.1375    6.8195 H         1 RES1    0.0000
     52 H28        3.4485   -5.3903    5.6530 H         1 RES1    0.0000
     53 H29        2.6961   -4.0428    5.8923 H         1 RES1    0.0000
@<TRIPOS>BOND
     1    1    9 1
     2    2   14 1
     3    3   18 1
     4    4    5 1
     5    5    6 1
     6    6    7 1
     7    7   36 1
     8    8    6 1
     9    9   10 1
    10   10   41 1
    11   11    9 1
    12   12   17 1
    13   13   14 1
    14   14   15 1
    15   15   48 1
    16   16   14 1
    17   17    5 1
    18   18    4 1
    19   19    8 1
    20   20    9 1
    21   21   12 2
    22   22    4 2
    23   23   19 2
    24   24   19 2
    25   25    2 1
    26   26    2 1
    27   27    2 1
    28   28    1 1
    29   29    3 1
    30   30    3 1
    31   31    3 1
    32   32    1 1
    33   33    1 1
    34   34    5 1
    35   35    6 1
    36   37    7 1
    37   38    7 1
    38   39    8 1
    39   40    8 1
    40   42   10 1
    41   43   10 1
    42   44   11 1
    43   45   11 1
    44   46   11 1
    45   47   13 1
    46   49   15 1
    47   50   15 1
    48   51   16 1
    49   52   16 1
    50   53   16 1
    51   12   20 1
    52   13   17 1
    53   13   18 1
@<TRIPOS>SUBSTRUCTURE
     1 RES1 1

@<TRIPOS>CRYSIN
   6.2700   10.5280   29.9100  90.0000  90.0000  90.0000  19 1

