# MOL2 file generated by ConQuest
# Please check atom types

@<TRIPOS>MOLECULE
JOPXUJ
    59    64     1
SMALL
NO_CHARGES
****
Generated from CSD

@<TRIPOS>ATOM
      1 O1         2.8496   -0.7309   12.0785 O.3       1 RES1    0.0000
      2 O2         6.6165    4.2307    7.9042 O.2       1 RES1    0.0000
      3 O3         1.8873   -0.9532   10.0541 O.2       1 RES1    0.0000
      4 O4         6.8597    4.8085    9.9850 O.2       1 RES1    0.0000
      5 N1         0.7550    4.8772   12.0085 N.3       1 RES1    0.0000
      6 N2         6.1567    4.5354    9.0128 N.pl3     1 RES1    0.0000
      7 N3         0.5488    4.6473    9.6043 N.3       1 RES1    0.0000
      8 C1         6.3122    1.0280   10.6138 C.ar      1 RES1    0.0000
      9 H1         7.1111    1.4362   10.3039 H         1 RES1    0.0000
     10 C2         6.1255   -0.3396   10.4490 C.ar      1 RES1    0.0000
     11 H2         6.7932   -0.8665   10.0238 H         1 RES1    0.0000
     12 C3         4.9578   -0.9283   10.9094 C.ar      1 RES1    0.0000
     13 H3         4.8170   -1.8626   10.8095 H         1 RES1    0.0000
     14 C4         4.0045   -0.1379   11.5138 C.ar      1 RES1    0.0000
     15 C5         1.8496   -1.0867   11.2437 C.2       1 RES1    0.0000
     16 C6         0.6981   -1.6427   12.0198 C.ar      1 RES1    0.0000
     17 C7        -0.2229   -0.7609   12.6042 C.ar      1 RES1    0.0000
     18 C8        -0.0021    0.7135   12.4585 C.ar      1 RES1    0.0000
     19 C9         0.4475    1.4923   13.5351 C.ar      1 RES1    0.0000
     20 H4         0.5767    1.0896   14.3854 H         1 RES1    0.0000
     21 C10        0.7059    2.8420   13.3685 C.ar      1 RES1    0.0000
     22 H5         1.0139    3.3561   14.1053 H         1 RES1    0.0000
     23 C11        0.5189    3.4573   12.1246 C.ar      1 RES1    0.0000
     24 C12        2.1840    5.2297   11.9534 C.3       1 RES1    0.0000
     25 H6         2.6728    4.7200   12.6466 H         1 RES1    0.0000
     26 H7         2.2895    6.1936   12.1537 H         1 RES1    0.0000
     27 C13        2.7918    4.9307   10.5916 C.ar      1 RES1    0.0000
     28 C14        4.1740    4.9202   10.4068 C.ar      1 RES1    0.0000
     29 H8         4.7525    5.1539   11.1242 H         1 RES1    0.0000
     30 C15        4.7022    4.5683    9.1749 C.ar      1 RES1    0.0000
     31 C16        5.3490    1.7900   11.2215 C.ar      1 RES1    0.0000
     32 H9         5.4871    2.7228   11.3315 H         1 RES1    0.0000
     33 C17        4.1716    1.2123   11.6793 C.ar      1 RES1    0.0000
     34 H10        3.5008    1.7391   12.0955 H         1 RES1    0.0000
     35 C18        0.5673   -3.0241   12.1387 C.ar      1 RES1    0.0000
     36 H11        1.2058   -3.6055   11.7426 H         1 RES1    0.0000
     37 C19       -0.5130   -3.5361   12.8452 C.ar      1 RES1    0.0000
     38 H12       -0.6064   -4.4757   12.9540 H         1 RES1    0.0000
     39 C20       -1.4588   -2.6760   13.3956 C.ar      1 RES1    0.0000
     40 H13       -2.2086   -3.0407   13.8507 H         1 RES1    0.0000
     41 C21       -1.3296   -1.2891   13.2928 C.ar      1 RES1    0.0000
     42 C22       -2.3698   -0.3810   13.8994 C.3       1 RES1    0.0000
     43 H14       -3.2034   -0.8802   14.0307 H         1 RES1    0.0000
     44 H15       -2.5335    0.3765   13.2995 H         1 RES1    0.0000
     45 H16       -2.0490   -0.0486   14.7637 H         1 RES1    0.0000
     46 C23       -0.1801    1.3289   11.2240 C.ar      1 RES1    0.0000
     47 H17       -0.4855    0.8104   10.4894 H         1 RES1    0.0000
     48 C24        0.0783    2.6901   11.0360 C.ar      1 RES1    0.0000
     49 C25        1.9642    4.5950    9.5025 C.ar      1 RES1    0.0000
     50 C26        0.1274    5.3978   10.7895 C.3       1 RES1    0.0000
     51 H18       -0.8567    5.3434   10.8786 H         1 RES1    0.0000
     52 H19        0.3713    6.3507   10.6767 H         1 RES1    0.0000
     53 C27       -0.0846    3.3146    9.6564 C.3       1 RES1    0.0000
     54 H20        0.3292    2.7253    8.9761 H         1 RES1    0.0000
     55 H21       -1.0473    3.3985    9.4435 H         1 RES1    0.0000
     56 C28        2.5293    4.2156    8.2767 C.ar      1 RES1    0.0000
     57 H22        1.9630    3.9570    7.5592 H         1 RES1    0.0000
     58 C29        3.9006    4.2138    8.1023 C.ar      1 RES1    0.0000
     59 H23        4.2851    3.9757    7.2664 H         1 RES1    0.0000
@<TRIPOS>BOND
     1    1   14 1
     2    2    6 2
     3    3   15 2
     4    4    6 2
     5    5   23 1
     6    6   30 1
     7    7   49 1
     8    8    9 1
     9   10    8 ar
    10   11   10 1
    11   12   10 ar
    12   13   12 1
    13   14   12 ar
    14   15    1 1
    15   16   15 1
    16   17   16 ar
    17   18   17 1
    18   19   18 ar
    19   20   19 1
    20   21   19 ar
    21   22   21 1
    22   23   21 ar
    23   24    5 1
    24   25   24 1
    25   26   24 1
    26   27   24 1
    27   28   27 ar
    28   29   28 1
    29   30   28 ar
    30   31    8 ar
    31   32   31 1
    32   33   14 ar
    33   34   33 1
    34   35   16 ar
    35   36   35 1
    36   37   35 ar
    37   38   37 1
    38   39   37 ar
    39   40   39 1
    40   41   17 ar
    41   42   41 1
    42   43   42 1
    43   44   42 1
    44   45   42 1
    45   46   18 ar
    46   47   46 1
    47   48   23 ar
    48   49   27 ar
    49   50    5 1
    50   51   50 1
    51   52   50 1
    52   53    7 1
    53   54   53 1
    54   55   53 1
    55   56   49 ar
    56   57   56 1
    57   58   30 ar
    58   59   58 1
    59    7   50 1
    60   31   33 ar
    61   39   41 ar
    62   46   48 ar
    63   48   53 1
    64   56   58 ar
@<TRIPOS>SUBSTRUCTURE
     1 RES1 1

@<TRIPOS>CRYSIN
  10.0960   12.4670   20.7730  90.0000 118.8850  90.0000  14 1

