# MOL2 file generated by ConQuest
# Please check atom types

@<TRIPOS>MOLECULE
JOQSIR
    52    54     2
SMALL
NO_CHARGES
****
Generated from CSD

@<TRIPOS>ATOM
      1 O1         2.6094    2.9489   -5.2215 O.2       1 RES1    0.0000
      2 O2         3.2244    4.9822   -5.5554 O.2       1 RES1    0.0000
      3 N1         3.0741    4.0137   -4.8369 N.pl3     1 RES1    0.0000
      4 C1         5.5879    4.7937    5.9768 C.1       1 RES1    0.0000
      5 H1         5.8095    4.8353    6.9000 H         1 RES1    0.0000
      6 C2         5.3094    4.7405    4.8180 C.1       1 RES1    0.0000
      7 C3         4.9755    4.6774    3.4238 C.ar      1 RES1    0.0000
      8 C4         3.9574    3.8378    2.9842 C.ar      1 RES1    0.0000
      9 H2         3.4706    3.3203    3.6151 H         1 RES1    0.0000
     10 C5         3.6468    3.7480    1.6514 C.ar      1 RES1    0.0000
     11 H3         2.9501    3.1668    1.3711 H         1 RES1    0.0000
     12 C6         4.3411    4.4992    0.7002 C.ar      1 RES1    0.0000
     13 C7         5.3614    5.3526    1.1475 C.ar      1 RES1    0.0000
     14 H4         5.8411    5.8791    0.5198 H         1 RES1    0.0000
     15 C8         5.6736    5.4347    2.4846 C.ar      1 RES1    0.0000
     16 H5         6.3714    6.0128    2.7696 H         1 RES1    0.0000
     17 C9         4.0264    4.3870   -0.7413 C.ar      1 RES1    0.0000
     18 C10        3.6347    3.1550   -1.2827 C.ar      1 RES1    0.0000
     19 H6         3.5708    2.3954   -0.7153 H         1 RES1    0.0000
     20 C11        3.3414    3.0243   -2.6200 C.ar      1 RES1    0.0000
     21 H7         3.0776    2.1857   -2.9795 H         1 RES1    0.0000
     22 C12        3.4382    4.1404   -3.4290 C.ar      1 RES1    0.0000
     23 C13        3.8240    5.3759   -2.9403 C.ar      1 RES1    0.0000
     24 H8         3.8855    6.1287   -3.5163 H         1 RES1    0.0000
     25 C14        4.1177    5.4885   -1.5966 C.ar      1 RES1    0.0000
     26 H9         4.3860    6.3300   -1.2468 H         1 RES1    0.0000
     27 O3         7.2658    7.9185    4.3925 O.2       2 RES2    0.0000
     28 O4         6.6354    9.9698    4.3612 O.2       2 RES2    0.0000
     29 N2         7.1461    9.0123    4.9300 N.pl3     2 RES2    0.0000
     30 C15       10.1128    9.8425   15.6114 C.1       2 RES2    0.0000
     31 H10       10.2888    9.8794   16.5433 H         2 RES2    0.0000
     32 C16        9.8946    9.7963   14.4527 C.1       2 RES2    0.0000
     33 C17        9.5735    9.7414   13.0480 C.ar      2 RES2    0.0000
     34 C18       10.3382    8.9760   12.1659 C.ar      2 RES2    0.0000
     35 H11       11.0954    8.5003   12.4881 H         2 RES2    0.0000
     36 C19       10.0034    8.9046   10.8313 C.ar      2 RES2    0.0000
     37 H12       10.5307    8.3734   10.2461 H         2 RES2    0.0000
     38 C20        8.9087    9.5942   10.3252 C.ar      2 RES2    0.0000
     39 C21        8.1571   10.3660   11.2106 C.ar      2 RES2    0.0000
     40 H13        7.4069   10.8504   10.8864 H         2 RES2    0.0000
     41 C22        8.4824   10.4366   12.5468 C.ar      2 RES2    0.0000
     42 H14        7.9538   10.9670   13.1317 H         2 RES2    0.0000
     43 C23        8.5055    9.4743    8.9018 C.ar      2 RES2    0.0000
     44 C24        8.7079    8.2819    8.2142 C.ar      2 RES2    0.0000
     45 H15        9.1530    7.5607    8.6431 H         2 RES2    0.0000
     46 C25        8.2663    8.1333    6.9130 C.ar      2 RES2    0.0000
     47 H16        8.4003    7.3158    6.4478 H         2 RES2    0.0000
     48 C26        7.6328    9.1835    6.3030 C.ar      2 RES2    0.0000
     49 C27        7.4431   10.3899    6.9378 C.ar      2 RES2    0.0000
     50 H17        7.0191   11.1125    6.4885 H         2 RES2    0.0000
     51 C28        7.8791   10.5311    8.2331 C.ar      2 RES2    0.0000
     52 H18        7.7535   11.3598    8.6809 H         2 RES2    0.0000
@<TRIPOS>BOND
     1    1    3 2
     2    2    3 2
     3    3   22 1
     4    4    5 1
     5    6    4 3
     6    7    6 1
     7    8    7 ar
     8    9    8 1
     9   10    8 ar
    10   11   10 1
    11   12   10 ar
    12   13   12 ar
    13   14   13 1
    14   15    7 ar
    15   16   15 1
    16   17   12 1
    17   18   17 ar
    18   19   18 1
    19   20   18 ar
    20   21   20 1
    21   22   20 ar
    22   23   22 ar
    23   24   23 1
    24   25   17 ar
    25   26   25 1
    26   27   29 2
    27   28   29 2
    28   29   48 1
    29   30   31 1
    30   32   30 3
    31   33   32 1
    32   34   33 ar
    33   35   34 1
    34   36   34 ar
    35   37   36 1
    36   38   36 ar
    37   39   38 ar
    38   40   39 1
    39   41   33 ar
    40   42   41 1
    41   43   38 1
    42   44   43 ar
    43   45   44 1
    44   46   44 ar
    45   47   46 1
    46   48   46 ar
    47   49   48 ar
    48   50   49 1
    49   51   43 ar
    50   52   51 1
    51   13   15 ar
    52   23   25 ar
    53   39   41 ar
    54   49   51 ar
@<TRIPOS>SUBSTRUCTURE
     1 RES1 1
     2 RES2 27

@<TRIPOS>CRYSIN
   8.5221    9.7649   14.9832  80.8730  76.5470  64.8540   2 1

