# MOL2 file generated by ConQuest
# Please check atom types

@<TRIPOS>MOLECULE
JORBUN
    23    22     1
SMALL
NO_CHARGES
****
Generated from CSD

@<TRIPOS>ATOM
      1 C1         0.0107    9.6762    3.6577 C.3       1 RES1    0.0000
      2 C2         0.5817   10.3826    2.4099 C.3       1 RES1    0.0000
      3 C3         0.6465   11.9278    2.5653 C.3       1 RES1    0.0000
      4 C4        -0.7470   12.5477    2.7636 C.3       1 RES1    0.0000
      5 C5        -0.1725    9.9881    1.1974 C.3       1 RES1    0.0000
      6 N1         2.0332    9.8334    2.3198 N.pl3     1 RES1    0.0000
      7 N2         1.2857   12.5660    1.3068 N.pl3     1 RES1    0.0000
      8 N3         1.5428   12.4166    3.7038 N.pl3     1 RES1    0.0000
      9 O1         2.2717    9.0051    1.4547 O.2       1 RES1    0.0000
     10 O2         2.8250   10.1952    3.1678 O.2       1 RES1    0.0000
     11 O3         0.9505   13.6840    1.0066 O.2       1 RES1    0.0000
     12 O4         2.1305   11.9120    0.7268 O.2       1 RES1    0.0000
     13 O5         2.5524   13.0483    3.4240 O.2       1 RES1    0.0000
     14 O6         1.1383   12.1873    4.8197 O.2       1 RES1    0.0000
     15 H1        -0.0050    8.7273    3.5129 H         1 RES1    0.0000
     16 H2         0.5781    9.8767    4.4048 H         1 RES1    0.0000
     17 H3        -0.8791    9.9868    3.8399 H         1 RES1    0.0000
     18 H4        -1.1689   12.1676    3.5376 H         1 RES1    0.0000
     19 H5        -0.6557   13.4966    2.8815 H         1 RES1    0.0000
     20 H6        -1.2848   12.3734    1.9875 H         1 RES1    0.0000
     21 H7         0.1863   10.4402    0.4299 H         1 RES1    0.0000
     22 H8        -0.0943    9.0392    1.0763 H         1 RES1    0.0000
     23 H9        -1.0976   10.2214    1.3036 H         1 RES1    0.0000
@<TRIPOS>BOND
     1    1    2 1
     2    2    3 1
     3    3    4 1
     4    4   18 1
     5    5    2 1
     6    6    2 1
     7    7    3 1
     8    8    3 1
     9    9    6 2
    10   10    6 2
    11   11    7 2
    12   12    7 2
    13   13    8 2
    14   14    8 2
    15   15    1 1
    16   16    1 1
    17   17    1 1
    18   19    4 1
    19   20    4 1
    20   21    5 1
    21   22    5 1
    22   23    5 1
@<TRIPOS>SUBSTRUCTURE
     1 RES1 1

@<TRIPOS>CRYSIN
   6.3050   13.1060   10.7200  90.0000  90.0500  90.0000 231 1

