# MOL2 file generated by ConQuest
# Please check atom types

@<TRIPOS>MOLECULE
JORKIM
   154   148     3
SMALL
NO_CHARGES
****
Generated from CSD

@<TRIPOS>ATOM
      1 C1        -5.1443    8.1035    0.8324 C.3       1 RES1    0.0000
      2 C2        -3.7457    8.4390    1.3165 C.3       1 RES1    0.0000
      3 H1        -3.7295    8.2687    2.2927 H         1 RES1    0.0000
      4 H2        -3.1354    7.7949    0.9346 H         1 RES1    0.0000
      5 C3        -4.8263    9.9144   -0.9394 C.3       1 RES1    0.0000
      6 C4        -5.3741    8.6228   -0.5848 C.3       1 RES1    0.0000
      7 H3        -5.0108    7.9686   -1.2015 H         1 RES1    0.0000
      8 H4        -6.3319    8.6565   -0.7365 H         1 RES1    0.0000
      9 C5        -5.8125   10.9969   -0.3419 C.3       1 RES1    0.0000
     10 H5        -5.8601   10.8923    0.6103 H         1 RES1    0.0000
     11 H6        -6.6849   10.8772   -0.7222 H         1 RES1    0.0000
     12 H7        -5.4878   11.8753   -0.5528 H         1 RES1    0.0000
     13 C6        -4.8388   10.2162   -2.3981 C.3       1 RES1    0.0000
     14 H8        -4.6635   11.1503   -2.5339 H         1 RES1    0.0000
     15 H9        -5.6974    9.9953   -2.7640 H         1 RES1    0.0000
     16 H10       -4.1615    9.6969   -2.8375 H         1 RES1    0.0000
     17 C7        -7.3937    8.2584    1.6169 C.3       1 RES1    0.0000
     18 H11       -7.7294    8.6076    0.7765 H         1 RES1    0.0000
     19 H12       -7.9266    8.6380    2.3326 H         1 RES1    0.0000
     20 C8        -7.5472    6.7509    1.6274 C.3       1 RES1    0.0000
     21 C9        -6.5406    6.1778    0.6295 C.3       1 RES1    0.0000
     22 H13       -6.5250    5.2118    0.7062 H         1 RES1    0.0000
     23 H14       -6.8174    6.4022   -0.2732 H         1 RES1    0.0000
     24 C10       -7.3060    6.1921    3.0238 C.3       1 RES1    0.0000
     25 H15       -6.3885    6.3617    3.2880 H         1 RES1    0.0000
     26 H16       -7.8894    6.6383    3.6571 H         1 RES1    0.0000
     27 C11       -8.9638    6.3600    1.2360 C.3       1 RES1    0.0000
     28 H17       -9.5960    6.8170    1.8118 H         1 RES1    0.0000
     29 H18       -9.1355    6.6383    0.3227 H         1 RES1    0.0000
     30 C12       -8.8528    4.4006    2.6316 C.3       1 RES1    0.0000
     31 C13       -9.9552    4.7409    3.6282 C.3       1 RES1    0.0000
     32 H19      -10.8113    4.5407    3.2177 H         1 RES1    0.0000
     33 H20       -9.9314    5.6957    3.7961 H         1 RES1    0.0000
     34 C14       -9.8837    4.0118    4.9738 C.3       1 RES1    0.0000
     35 C15       -8.6603    2.0561    3.6774 C.3       1 RES1    0.0000
     36 C16       -8.8356    2.9054    2.4242 C.3       1 RES1    0.0000
     37 H21       -8.1171    2.6927    1.8102 H         1 RES1    0.0000
     38 H22       -9.6683    2.6489    1.9971 H         1 RES1    0.0000
     39 C17      -11.2615    4.0551    5.6382 C.3       1 RES1    0.0000
     40 H23      -11.8908    3.5661    5.1030 H         1 RES1    0.0000
     41 H24      -11.5501    4.9673    5.7165 H         1 RES1    0.0000
     42 H25      -11.2080    3.6606    6.5122 H         1 RES1    0.0000
     43 C18       -8.8554    4.6486    5.9150 C.3       1 RES1    0.0000
     44 H26       -8.8581    4.1816    6.7534 H         1 RES1    0.0000
     45 H27       -9.0830    5.5693    6.0616 H         1 RES1    0.0000
     46 H28       -7.9830    4.5930    5.5200 H         1 RES1    0.0000
     47 C19       -9.1157    0.6256    3.3663 C.3       1 RES1    0.0000
     48 H29       -8.9882    0.0742    4.1412 H         1 RES1    0.0000
     49 H30       -8.5979    0.2765    2.6362 H         1 RES1    0.0000
     50 H31      -10.0453    0.6306    3.1267 H         1 RES1    0.0000
     51 C20       -7.2086    2.0183    4.1700 C.3       1 RES1    0.0000
     52 H32       -6.9158    2.9102    4.3713 H         1 RES1    0.0000
     53 H33       -6.6481    1.6457    3.4862 H         1 RES1    0.0000
     54 H34       -7.1525    1.4770    4.9608 H         1 RES1    0.0000
     55 N1        -3.4996   10.1521   -0.3675 N.3       1 RES1    0.0000
     56 N2        -9.5372    2.5843    4.7651 N.3       1 RES1    0.0000
     57 O1        -5.2320    6.6937    0.8659 O.3       1 RES1    0.0000
     58 O2        -6.0332    8.6579    1.7813 O.3       1 RES1    0.0000
     59 O3        -9.1547    4.9459    1.3469 O.3       1 RES1    0.0000
     60 O4        -7.5584    4.7840    3.0468 O.3       1 RES1    0.0000
     61 O5        -9.6326    1.8232    5.8012 O.2       1 RES1    0.0000
     62 C21       -3.1635    9.7778    1.1088 C.3       1 RES1    0.0000
     63 C22       -1.6879    9.7812    1.3005 C.3       1 RES1    0.0000
     64 H35       -1.4789    9.4524    2.1776 H         1 RES1    0.0000
     65 H36       -1.3563   10.6765    1.2063 H         1 RES1    0.0000
     66 H37       -1.2798    9.2163    0.6423 H         1 RES1    0.0000
     67 C23       -3.7306   10.7355    2.1297 C.3       1 RES1    0.0000
     68 H38       -4.6737   10.5821    2.2240 H         1 RES1    0.0000
     69 H39       -3.5816   11.6393    1.8389 H         1 RES1    0.0000
     70 H40       -3.2987   10.5956    2.9749 H         1 RES1    0.0000
     71 O6        -2.8941   11.2785   -0.6758 O.2       1 RES1    0.0000
     72 H41       -3.8090    9.0612    2.0562 Du        3 SUP3    0.0000
     73 H42       -3.3204    7.6314    1.6456 Du        3 SUP3    0.0000
     74 C24       -2.8869    9.0359    0.2956 Du        3 SUP3    0.0000
     75 C25       -2.5425    7.7730   -0.4537 Du        3 SUP3    0.0000
     76 H43       -3.1596    7.6516   -1.1791 Du        3 SUP3    0.0000
     77 H44       -2.5972    7.0210    0.1422 Du        3 SUP3    0.0000
     78 H45       -1.6510    7.8405   -0.8020 Du        3 SUP3    0.0000
     79 C26       -1.5668    9.6041    0.7429 Du        3 SUP3    0.0000
     80 H46       -0.9017    9.4338    0.0719 Du        3 SUP3    0.0000
     81 H47       -1.3025    9.1877    1.5673 Du        3 SUP3    0.0000
     82 H48       -1.6534   10.5501    0.8755 Du        3 SUP3    0.0000
     83 O7        -2.6661   10.6394   -1.3612 Du        3 SUP3    0.0000
     84 C27       -3.9325    9.3733    8.0162 C.3       2 RES2    0.0000
     85 C28       -4.0225    7.9076    7.6254 C.3       2 RES2    0.0000
     86 H49       -3.6629    7.3751    8.3511 H         2 RES2    0.0000
     87 H50       -3.4574    7.7629    6.8509 H         2 RES2    0.0000
     88 C29       -5.4264    7.3941    7.3006 C.3       2 RES2    0.0000
     89 C30       -6.0139    9.8453    6.5585 C.3       2 RES2    0.0000
     90 C31       -4.5859   10.2132    6.9412 C.3       2 RES2    0.0000
     91 H51       -4.0365   10.1622    6.1431 H         2 RES2    0.0000
     92 H52       -4.5797   11.1368    7.2359 H         2 RES2    0.0000
     93 C32       -6.2630    7.1255    8.5524 C.3       2 RES2    0.0000
     94 H53       -6.3267    7.9298    9.0733 H         2 RES2    0.0000
     95 H54       -5.8454    6.4393    9.0765 H         2 RES2    0.0000
     96 H55       -7.1425    6.8406    8.2952 H         2 RES2    0.0000
     97 C33       -5.2856    6.0987    6.5154 C.3       2 RES2    0.0000
     98 H56       -6.1530    5.7075    6.3844 H         2 RES2    0.0000
     99 H57       -4.7292    5.4866    7.0043 H         2 RES2    0.0000
    100 H58       -4.8852    6.2825    5.6622 H         2 RES2    0.0000
    101 C34       -7.0590   10.3545    7.5762 C.3       2 RES2    0.0000
    102 H59       -7.9203    9.9886    7.3590 H         2 RES2    0.0000
    103 H60       -7.0987   11.3122    7.5411 H         2 RES2    0.0000
    104 H61       -6.8067   10.0763    8.4598 H         2 RES2    0.0000
    105 C35       -6.3240   10.4455    5.1941 C.3       2 RES2    0.0000
    106 H62       -5.7759   10.0257    4.5278 H         2 RES2    0.0000
    107 H63       -6.1449   11.3881    5.2117 H         2 RES2    0.0000
    108 H64       -7.2505   10.3005    4.9848 H         2 RES2    0.0000
    109 C36       -1.8398    9.2737    9.1707 C.3       2 RES2    0.0000
    110 H65       -0.9421    9.6412    9.1611 H         2 RES2    0.0000
    111 H66       -1.7708    8.3109    9.0829 H         2 RES2    0.0000
    112 C37       -2.5136    9.6164   10.4941 C.3       2 RES2    0.0000
    113 C38       -3.9468    9.1258   10.3973 C.3       2 RES2    0.0000
    114 H67       -3.9543    8.1574   10.3482 H         2 RES2    0.0000
    115 H68       -4.4349    9.3900   11.1934 H         2 RES2    0.0000
    116 C39       -2.4931   11.1164   10.7523 C.3       2 RES2    0.0000
    117 H69       -2.8582   11.5820    9.9840 H         2 RES2    0.0000
    118 H70       -3.0498   11.3189   11.5193 H         2 RES2    0.0000
    119 C40       -0.4950   10.9176   12.0552 C.3       2 RES2    0.0000
    120 C41       -1.7913    8.9450   11.6464 C.3       2 RES2    0.0000
    121 H71       -2.3118    9.0528   12.4588 H         2 RES2    0.0000
    122 H72       -1.7113    7.9956   11.4650 H         2 RES2    0.0000
    123 C42       -1.0231   11.2542   13.4378 C.3       2 RES2    0.0000
    124 H73       -0.5640   10.6967   14.0852 H         2 RES2    0.0000
    125 H74       -1.9638   11.0222   13.4701 H         2 RES2    0.0000
    126 C43       -0.8694   12.7194   13.8655 C.3       2 RES2    0.0000
    127 C44        1.2668   12.7734   12.2808 C.3       2 RES2    0.0000
    128 C45        0.9500   11.3132   11.9681 C.3       2 RES2    0.0000
    129 H75        1.2649   11.1200   11.0720 H         2 RES2    0.0000
    130 H76        1.4556   10.7558   12.5802 H         2 RES2    0.0000
    131 C46       -1.9614   13.6112   13.2752 C.3       2 RES2    0.0000
    132 H77       -1.8398   14.5124   13.5820 H         2 RES2    0.0000
    133 H78       -2.8216   13.2917   13.5564 H         2 RES2    0.0000
    134 H79       -1.9083   13.5901   12.3166 H         2 RES2    0.0000
    135 C47       -0.9277   12.7993   15.3889 C.3       2 RES2    0.0000
    136 H80       -0.2374   12.2480   15.7644 H         2 RES2    0.0000
    137 H81       -1.7854   12.4925   15.6941 H         2 RES2    0.0000
    138 H82       -0.7953   13.7098   15.6669 H         2 RES2    0.0000
    139 C48        2.7383   12.8769   12.6841 C.3       2 RES2    0.0000
    140 H83        2.9708   13.7992   12.8151 H         2 RES2    0.0000
    141 H84        3.2878   12.5043   11.9907 H         2 RES2    0.0000
    142 H85        2.8819   12.3930   13.5021 H         2 RES2    0.0000
    143 C49        0.9903   13.7014   11.0928 C.3       2 RES2    0.0000
    144 H86        0.0604   13.6491   10.8563 H         2 RES2    0.0000
    145 H87        1.5267   13.4299   10.3434 H         2 RES2    0.0000
    146 H88        1.2105   14.6035   11.3340 H         2 RES2    0.0000
    147 N3        -6.1368    8.3704    6.4430 N.3       2 RES2    0.0000
    148 N4         0.4585   13.2367   13.4358 N.3       2 RES2    0.0000
    149 O8        -7.2223    7.9443    5.8931 O.2       2 RES2    0.0000
    150 O9        -4.5898    9.6687    9.2406 O.3       2 RES2    0.0000
    151 O10       -2.5854    9.8019    8.0650 O.3       2 RES2    0.0000
    152 O11       -0.4951    9.5009   11.8387 O.3       2 RES2    0.0000
    153 O12       -1.1660   11.5740   10.9959 O.3       2 RES2    0.0000
    154 O13        0.7819   14.3920   13.9010 O.2       2 RES2    0.0000
@<TRIPOS>BOND
     1    1    2 1
     2    2    3 1
     3    4    2 1
     4    5    6 1
     5    6    1 1
     6    7    6 1
     7    8    6 1
     8    9    5 1
     9   10    9 1
    10   11    9 1
    11   12    9 1
    12   13    5 1
    13   14   13 1
    14   15   13 1
    15   16   13 1
    16   17   18 1
    17   19   17 1
    18   20   17 1
    19   21   20 1
    20   22   21 1
    21   23   21 1
    22   24   20 1
    23   25   24 1
    24   26   24 1
    25   27   20 1
    26   28   27 1
    27   29   27 1
    28   30   31 1
    29   31   32 1
    30   33   31 1
    31   34   31 1
    32   35   36 1
    33   36   30 1
    34   37   36 1
    35   38   36 1
    36   39   34 1
    37   40   39 1
    38   41   39 1
    39   42   39 1
    40   43   34 1
    41   44   43 1
    42   45   43 1
    43   46   43 1
    44   47   35 1
    45   48   47 1
    46   49   47 1
    47   50   47 1
    48   51   35 1
    49   52   51 1
    50   53   51 1
    51   54   51 1
    52   55    5 1
    53   56   34 1
    54   57    1 1
    55   58    1 1
    56   59   27 1
    57   60   24 1
    58   61   56 1
    59   62    2 1
    60   63   62 1
    61   64   63 1
    62   65   63 1
    63   66   63 1
    64   67   62 1
    65   68   67 1
    66   69   67 1
    67   70   67 1
    68   71   55 1
    69   84   85 1
    70   85   86 1
    71   87   85 1
    72   88   85 1
    73   89   90 1
    74   90   84 1
    75   91   90 1
    76   92   90 1
    77   93   88 1
    78   94   93 1
    79   95   93 1
    80   96   93 1
    81   97   88 1
    82   98   97 1
    83   99   97 1
    84  100   97 1
    85  101   89 1
    86  102  101 1
    87  103  101 1
    88  104  101 1
    89  105   89 1
    90  106  105 1
    91  107  105 1
    92  108  105 1
    93  109  110 1
    94  111  109 1
    95  112  109 1
    96  113  112 1
    97  114  113 1
    98  115  113 1
    99  116  112 1
   100  117  116 1
   101  118  116 1
   102  119  123 1
   103  120  112 1
   104  121  120 1
   105  122  120 1
   106  123  124 1
   107  125  123 1
   108  126  123 1
   109  127  128 1
   110  128  119 1
   111  129  128 1
   112  130  128 1
   113  131  126 1
   114  132  131 1
   115  133  131 1
   116  134  131 1
   117  135  126 1
   118  136  135 1
   119  137  135 1
   120  138  135 1
   121  139  127 1
   122  140  139 1
   123  141  139 1
   124  142  139 1
   125  143  127 1
   126  144  143 1
   127  145  143 1
   128  146  143 1
   129  147   88 1
   130  148  126 1
   131  149  147 1
   132  150   84 1
   133  151   84 1
   134  152  119 1
   135  153  116 1
   136  154  148 1
   137   17   58 1
   138   21   57 1
   139   30   59 1
   140   30   60 1
   141   35   56 1
   142   55   62 1
   143   89  147 1
   144  109  151 1
   145  113  150 1
   146  119  153 1
   147  120  152 1
   148  127  148 1
@<TRIPOS>SUBSTRUCTURE
     1 RES1 1
     2 RES2 84
     3 SUP3 72

@<TRIPOS>CRYSIN
  18.8141   16.8612   16.0353  90.0000  94.8920  90.0000  14 1

