# MOL2 file generated by ConQuest
# Please check atom types

@<TRIPOS>MOLECULE
JOSWIX
    18    19     1
SMALL
NO_CHARGES
****
Generated from CSD

@<TRIPOS>ATOM
      1 C1         3.8114    5.7735    3.5419 C.ar      1 RES1    0.0000
      2 C2         4.1822    6.5581    2.4629 C.ar      1 RES1    0.0000
      3 C3         5.0335    7.6253    2.6203 C.ar      1 RES1    0.0000
      4 C4         5.5249    7.9399    3.8575 C.ar      1 RES1    0.0000
      5 C5         5.1541    7.1805    4.9536 C.ar      1 RES1    0.0000
      6 C6         4.3131    6.0991    4.7905 C.ar      1 RES1    0.0000
      7 C7         2.9162    4.5994    3.2964 C.3       1 RES1    0.0000
      8 O1         2.4836    4.0704    4.5532 O.3       1 RES1    0.0000
      9 C8         1.6385    3.0308    4.4920 C.2       1 RES1    0.0000
     10 O2         1.2923    2.5025    3.4604 O.2       1 RES1    0.0000
     11 N1         1.2136    2.6769    5.7153 N.am      1 RES1    0.0000
     12 C9         1.5716    3.3559    6.9232 C.3       1 RES1    0.0000
     13 C10        1.7959    2.5147    8.1514 C.3       1 RES1    0.0000
     14 C11        2.9525    3.1605    7.4818 C.3       1 RES1    0.0000
     15 C12        0.9689    4.7008    7.1515 C.2       1 RES1    0.0000
     16 O3         1.3541    5.4018    8.1008 O.2       1 RES1    0.0000
     17 N2         0.0205    5.0749    6.3197 N.am      1 RES1    0.0000
     18 O4        -0.4919    6.3683    6.3800 O.3       1 RES1    0.0000
@<TRIPOS>BOND
     1    1    2 ar
     2    2    3 ar
     3    3    4 ar
     4    4    5 ar
     5    5    6 ar
     6    6    1 ar
     7    7    1 1
     8    8    7 1
     9    9    8 1
    10   10    9 2
    11   11    9 1
    12   12   11 1
    13   13   12 1
    14   14   12 1
    15   15   12 1
    16   16   15 2
    17   17   15 1
    18   18   17 1
    19   13   14 1
@<TRIPOS>SUBSTRUCTURE
     1 RES1 1

@<TRIPOS>CRYSIN
  25.0100    6.1440    8.1690  90.0000  93.3000  90.0000 231 1

