# MOL2 file generated by ConQuest
# Please check atom types

@<TRIPOS>MOLECULE
JOTDUR
    35    30     2
SMALL
NO_CHARGES
****
Generated from CSD

@<TRIPOS>ATOM
      1 C1         2.2796    7.3057    3.5361 C.3       1 RES1    0.0000
      2 N1         1.6070    6.8245    2.3524 N.am      1 RES1    0.0000
      3 C2         0.1704    6.7032    2.5024 C.3       1 RES1    0.0000
      4 N2        -0.0510    7.0850    3.8835 N.am      1 RES1    0.0000
      5 C3         1.1327    7.5742    4.5358 C.3       1 RES1    0.0000
      6 N3         1.1207    9.0616    4.6469 N.3       1 RES1    0.0000
      7 C4         1.9165    9.5329    3.5156 C.3       1 RES1    0.0000
      8 O1         2.9266    8.5565    3.3557 O.3       1 RES1    0.0000
      9 C5         2.2097    6.2638    1.2700 C.2       1 RES1    0.0000
     10 C6         3.6976    6.3373    1.1936 C.3       1 RES1    0.0000
     11 O2         1.5291    5.7507    0.3934 O.2       1 RES1    0.0000
     12 C7        -1.2489    6.8027    4.4651 C.2       1 RES1    0.0000
     13 C8        -1.4279    7.1407    5.9048 C.3       1 RES1    0.0000
     14 O3        -2.1380    6.3095    3.7972 O.2       1 RES1    0.0000
     15 N4         1.5484    9.5647    5.8970 N.pl3     1 RES1    0.0000
     16 O4         2.0366   10.6723    5.9006 O.2       1 RES1    0.0000
     17 O5         1.2793    8.9105    6.8861 O.2       1 RES1    0.0000
     18 H1         2.9450    6.6674    3.8021 H         1 RES1    0.0000
     19 H2        -0.1177    5.8005    2.3447 H         1 RES1    0.0000
     20 H3        -0.2898    7.2958    1.9032 H         1 RES1    0.0000
     21 H4         1.2075    7.1666    5.4011 H         1 RES1    0.0000
     22 H5         2.3021   10.3919    3.7066 H         1 RES1    0.0000
     23 H6         1.3767    9.5945    2.7239 H         1 RES1    0.0000
     24 H7         4.0826    6.0033    2.0065 H         1 RES1    0.0000
     25 H8         3.9674    7.2521    1.0669 H         1 RES1    0.0000
     26 H9         4.0069    5.8104    0.4521 H         1 RES1    0.0000
     27 H10        4.0280    6.9339    1.8706 Du        2 SUP2    0.0000
     28 H11        3.9560    6.6674    0.3276 Du        2 SUP2    0.0000
     29 H12        4.0728    5.4644    1.3266 Du        2 SUP2    0.0000
     30 H13       -0.6130    6.9637    6.3824 H         1 RES1    0.0000
     31 H14       -2.1363    6.6078    6.2748 H         1 RES1    0.0000
     32 H15       -1.6515    8.0713    5.9911 H         1 RES1    0.0000
     33 H16       -0.8499    7.8725    6.1404 Du        2 SUP2    0.0000
     34 H17       -2.3412    7.3932    6.0633 Du        2 SUP2    0.0000
     35 H18       -1.2027    6.3751    6.4439 Du        2 SUP2    0.0000
@<TRIPOS>BOND
     1    1    2 1
     2    2    3 1
     3    3    4 1
     4    4    5 1
     5    5    1 1
     6    6    5 1
     7    7    6 1
     8    8    1 1
     9    9    2 1
    10   10    9 1
    11   11    9 2
    12   12    4 1
    13   13   12 1
    14   14   12 2
    15   15    6 1
    16   16   15 2
    17   17   15 2
    18   18    1 1
    19   19    3 1
    20   20    3 1
    21   21    5 1
    22   22    7 1
    23   23    7 1
    24   24   10 1
    25   25   10 1
    26   26   10 1
    27   30   13 1
    28   31   13 1
    29   32   13 1
    30    7    8 1
@<TRIPOS>SUBSTRUCTURE
     1 RES1 1
     2 SUP2 27

@<TRIPOS>CRYSIN
   7.8010   19.8850    7.0770  90.0000  91.3500  90.0000  14 1

