# MOL2 file generated by ConQuest
# Please check atom types

@<TRIPOS>MOLECULE
JOTDOL
    35    36     1
SMALL
NO_CHARGES
****
Generated from CSD

@<TRIPOS>ATOM
      1 C1         1.2118    4.1369    0.5565 C.3       1 RES1    0.0000
      2 N1         0.6496    2.8006    0.4852 N.am      1 RES1    0.0000
      3 C2         1.1680    2.0199   -0.6308 C.3       1 RES1    0.0000
      4 N2         2.3682    2.7669   -0.9795 N.am      1 RES1    0.0000
      5 C3         2.3459    4.1207   -0.4837 C.3       1 RES1    0.0000
      6 N3         1.8804    5.0740   -1.5011 N.3       1 RES1    0.0000
      7 C4         0.4562    5.2898   -1.2646 C.3       1 RES1    0.0000
      8 O1         0.3125    5.1576    0.1456 O.3       1 RES1    0.0000
      9 C5        -0.4267    2.3395    1.1903 C.2       1 RES1    0.0000
     10 O2        -0.9342    1.2796    0.8885 O.2       1 RES1    0.0000
     11 C6        -0.9122    3.1971    2.3275 C.3       1 RES1    0.0000
     12 C7        -2.2219    2.7413    2.8976 C.3       1 RES1    0.0000
     13 C8         3.3863    2.3287   -1.7725 C.2       1 RES1    0.0000
     14 O3         4.3082    3.0717   -2.0667 O.2       1 RES1    0.0000
     15 C9         3.2891    0.9034   -2.2593 C.3       1 RES1    0.0000
     16 C10        4.4427    0.4719   -3.1008 C.3       1 RES1    0.0000
     17 N4         2.6371    6.2471   -1.6603 N.pl3     1 RES1    0.0000
     18 O4         3.7912    6.2485   -1.2585 O.2       1 RES1    0.0000
     19 O5         2.1016    7.1546   -2.2744 O.2       1 RES1    0.0000
     20 H1         1.4744    4.3311    1.4966 H         1 RES1    0.0000
     21 H2         1.3781    1.1475   -0.3169 H         1 RES1    0.0000
     22 H3         0.4838    1.9929   -1.4420 H         1 RES1    0.0000
     23 H4         3.1710    4.3998   -0.1592 H         1 RES1    0.0000
     24 H5        -0.0490    4.5401   -1.7377 H         1 RES1    0.0000
     25 H6         0.1968    6.1878   -1.5709 H         1 RES1    0.0000
     26 H7        -0.1509    3.1822    3.0478 H         1 RES1    0.0000
     27 H8        -0.9789    4.0937    2.0440 H         1 RES1    0.0000
     28 H9        -2.0844    1.8082    3.3268 H         1 RES1    0.0000
     29 H10       -2.8825    2.6213    2.1804 H         1 RES1    0.0000
     30 H11       -2.5337    3.3225    3.5678 H         1 RES1    0.0000
     31 H12        3.1964    0.3991   -1.5178 H         1 RES1    0.0000
     32 H13        2.5285    0.8670   -2.7612 H         1 RES1    0.0000
     33 H14        4.3661   -0.4625   -3.4177 H         1 RES1    0.0000
     34 H15        5.1485    0.4153   -2.5550 H         1 RES1    0.0000
     35 H16        4.6873    1.0720   -3.7650 H         1 RES1    0.0000
@<TRIPOS>BOND
     1    1    2 1
     2    2    3 1
     3    3    4 1
     4    4    5 1
     5    5    1 1
     6    6    5 1
     7    7    6 1
     8    8    1 1
     9    9    2 1
    10   10    9 2
    11   11    9 1
    12   12   11 1
    13   13    4 1
    14   14   13 2
    15   15   13 1
    16   16   15 1
    17   17    6 1
    18   18   17 2
    19   19   17 2
    20   20    1 1
    21   21    3 1
    22   22    3 1
    23   23    5 1
    24   24    7 1
    25   25    7 1
    26   26   11 1
    27   27   11 1
    28   28   12 1
    29   29   12 1
    30   30   12 1
    31   31   15 1
    32   32   15 1
    33   33   16 1
    34   34   16 1
    35   35   16 1
    36    7    8 1
@<TRIPOS>SUBSTRUCTURE
     1 RES1 1

@<TRIPOS>CRYSIN
   6.1510   13.4840   15.1650  90.0000  90.9400  90.0000 231 1

