# MOL2 file generated by ConQuest
# Please check atom types

@<TRIPOS>MOLECULE
JOTFED
    32    33     1
SMALL
NO_CHARGES
****
Generated from CSD

@<TRIPOS>ATOM
      1 C1         6.2139    3.0048    4.3413 C.3       1 RES1    0.0000
      2 N1         7.3530    2.3830    3.6868 N.3       1 RES1    0.0000
      3 C2         7.2428    2.3688    2.2513 C.3       1 RES1    0.0000
      4 N2         5.8568    2.8129    2.0458 N.3       1 RES1    0.0000
      5 C3         5.0900    3.0036    3.2843 C.3       1 RES1    0.0000
      6 N3         4.5243    4.3231    3.3679 N.am      1 RES1    0.0000
      7 C4         5.5370    5.2729    3.8050 C.3       1 RES1    0.0000
      8 N4         6.4226    4.4225    4.5933 N.am      1 RES1    0.0000
      9 N5         7.9671    1.2910    4.2672 N.pl3     1 RES1    0.0000
     10 O1         7.7398    1.0754    5.4400 O.2       1 RES1    0.0000
     11 O2         8.7585    0.6810    3.5554 O.2       1 RES1    0.0000
     12 N6         5.2190    2.3025    0.9578 N.pl3     1 RES1    0.0000
     13 O3         5.9196    1.8666    0.0573 O.2       1 RES1    0.0000
     14 O4         4.0103    2.3878    0.9399 O.2       1 RES1    0.0000
     15 C5         3.2155    4.7234    3.2604 C.2       1 RES1    0.0000
     16 O5         2.9755    5.9244    3.2688 O.2       1 RES1    0.0000
     17 C6         2.1468    3.6870    3.1685 C.3       1 RES1    0.0000
     18 C7         7.2309    4.8383    5.6084 C.2       1 RES1    0.0000
     19 O6         7.8611    4.0353    6.2605 O.2       1 RES1    0.0000
     20 C8         7.2742    6.3188    5.8604 C.3       1 RES1    0.0000
     21 H1         6.1291    2.5322    5.0388 H         1 RES1    0.0000
     22 H2         7.7754    2.8224    1.7759 H         1 RES1    0.0000
     23 H3         7.4285    1.3715    1.8870 H         1 RES1    0.0000
     24 H4         4.3996    2.2823    3.3942 H         1 RES1    0.0000
     25 H5         5.9968    5.7953    3.0455 H         1 RES1    0.0000
     26 H6         5.1537    5.9765    4.2828 H         1 RES1    0.0000
     27 H7         2.4504    2.8757    3.5829 H         1 RES1    0.0000
     28 H8         1.9424    3.5189    2.2453 H         1 RES1    0.0000
     29 H9         1.3580    3.9985    3.6187 H         1 RES1    0.0000
     30 H10        7.2470    6.7842    5.0196 H         1 RES1    0.0000
     31 H11        8.0842    6.5426    6.3238 H         1 RES1    0.0000
     32 H12        6.5184    6.5770    6.3931 H         1 RES1    0.0000
@<TRIPOS>BOND
     1    1    2 1
     2    2    3 1
     3    3    4 1
     4    4    5 1
     5    5    1 1
     6    6    5 1
     7    7    6 1
     8    8    1 1
     9    9    2 1
    10   10    9 2
    11   11    9 2
    12   12    4 1
    13   13   12 2
    14   14   12 2
    15   15    6 1
    16   16   15 2
    17   17   15 1
    18   18    8 1
    19   19   18 2
    20   20   18 1
    21   21    1 1
    22   22    3 1
    23   23    3 1
    24   24    5 1
    25   25    7 1
    26   26    7 1
    27   27   17 1
    28   28   17 1
    29   29   17 1
    30   30   20 1
    31   31   20 1
    32   32   20 1
    33    7    8 1
@<TRIPOS>SUBSTRUCTURE
     1 RES1 1

@<TRIPOS>CRYSIN
   8.4820   11.8440   11.9430  90.0000  90.0000  90.0000  19 1

