# MOL2 file generated by ConQuest
# Please check atom types

@<TRIPOS>MOLECULE
JOTNOX
    34    35     1
SMALL
NO_CHARGES
****
Generated from CSD

@<TRIPOS>ATOM
      1 O1         8.2918    2.8892    5.0260 O.2       1 RES1    0.0000
      2 O2         7.1931    4.4780    5.9793 O.2       1 RES1    0.0000
      3 O3         4.9068    6.6233    4.8230 O.2       1 RES1    0.0000
      4 O4         4.1344    4.7404    5.4842 O.2       1 RES1    0.0000
      5 O5         3.2215    5.6709    2.4543 O.2       1 RES1    0.0000
      6 O6         4.1233    5.3254    0.5168 O.2       1 RES1    0.0000
      7 N1         7.1113    3.5256    2.6652 N.2       1 RES1    0.0000
      8 N2         6.2001    3.9509    1.7873 N.3       1 RES1    0.0000
      9 N3         7.4660    3.7773    5.0325 N.pl3     1 RES1    0.0000
     10 N4         4.8034    5.4215    4.7698 N.pl3     1 RES1    0.0000
     11 N5         4.1173    5.2724    1.7266 N.pl3     1 RES1    0.0000
     12 C1         6.7151    4.0283    3.8276 C.2       1 RES1    0.0000
     13 C2         5.5502    4.7542    3.7223 C.2       1 RES1    0.0000
     14 C3         5.2447    4.6956    2.3969 C.2       1 RES1    0.0000
     15 C4         6.3489    3.5313    0.3885 C.3       1 RES1    0.0000
     16 H1         5.4573    3.3789   -0.0127 H         1 RES1    0.0000
     17 H2         6.8580    2.6831    0.3449 H         1 RES1    0.0000
     18 O1B        5.1444    5.2586   -5.0260 O.2       1 RES1    0.0000
     19 O2B        6.2431    3.6698   -5.9793 O.2       1 RES1    0.0000
     20 O3B        8.5294    1.5245   -4.8230 O.2       1 RES1    0.0000
     21 O4B        9.3018    3.4074   -5.4842 O.2       1 RES1    0.0000
     22 O5B       10.2147    2.4769   -2.4543 O.2       1 RES1    0.0000
     23 O6B        9.3129    2.8224   -0.5168 O.2       1 RES1    0.0000
     24 N1B        6.3249    4.6222   -2.6652 N.2       1 RES1    0.0000
     25 N2B        7.2361    4.1969   -1.7873 N.3       1 RES1    0.0000
     26 N3B        5.9702    4.3705   -5.0325 N.pl3     1 RES1    0.0000
     27 N4B        8.6328    2.7263   -4.7698 N.pl3     1 RES1    0.0000
     28 N5B        9.3189    2.8754   -1.7266 N.pl3     1 RES1    0.0000
     29 C1B        6.7211    4.1195   -3.8276 C.2       1 RES1    0.0000
     30 C2B        7.8860    3.3936   -3.7223 C.2       1 RES1    0.0000
     31 C3B        8.1915    3.4522   -2.3969 C.2       1 RES1    0.0000
     32 C4B        7.0873    4.6165   -0.3885 C.3       1 RES1    0.0000
     33 H1B        7.9789    4.7689    0.0127 H         1 RES1    0.0000
     34 H2B        6.5782    5.4647   -0.3449 H         1 RES1    0.0000
@<TRIPOS>BOND
     1    1    9 2
     2    2    9 2
     3    3   10 2
     4    4   10 2
     5    5   11 2
     6    6   11 2
     7    7    8 1
     8    8   14 1
     9    9   12 1
    10   10   13 1
    11   11   14 1
    12   12    7 2
    13   13   12 1
    14   14   13 2
    15   15    8 1
    16   16   15 1
    17   17   15 1
    18   18   26 2
    19   19   26 2
    20   20   27 2
    21   21   27 2
    22   22   28 2
    23   23   28 2
    24   24   25 1
    25   25   31 1
    26   26   29 1
    27   27   30 1
    28   28   31 1
    29   29   24 2
    30   30   29 1
    31   31   30 2
    32   32   15 1
    33   33   32 1
    34   34   32 1
    35   25   32 1
@<TRIPOS>SUBSTRUCTURE
     1 RES1 1

@<TRIPOS>CRYSIN
   6.7181    8.1478   14.4430  90.0000 102.9150  90.0000 231 1

