# MOL2 file generated by ConQuest
# Please check atom types

@<TRIPOS>MOLECULE
JOTRUH
    34    35     1
SMALL
USER_CHARGES
****
Generated from CSD

@<TRIPOS>ATOM
      1 N1         0.6411    0.0932    1.7465 N.3       1 RES1    0.0000
      2 N2        -0.2370   -0.3203    2.6991 N.2       1 RES1    0.0000
      3 C1         0.0912    0.3809    3.7579 C.2       1 RES1    0.0000
      4 C2         1.1635    1.2496    3.5278 C.2       1 RES1    0.0000
      5 C3         1.5089    1.0193    2.1961 C.2       1 RES1    0.0000
      6 C4         0.5162   -0.4139    0.3788 C.3       1 RES1    0.0000
      7 H1         0.2360   -1.3632    0.3975 H         1 RES1    0.0000
      8 H2         1.3916   -0.3586   -0.0795 H         1 RES1    0.0000
      9 N3        -0.7070    0.1740    4.9631 N.pl3     1 RES1    0.0000
     10 O1        -0.7940   -0.9758    5.3764 O.2       1 RES1    0.0000
     11 O2        -1.2492    1.1419    5.4579 O.2       1 RES1    0.0000
     12 N4         1.8325    2.0999    4.4502 N.pl3     1 RES1    0.0000
     13 O3         1.5098    2.0338    5.6273 O.2       1 RES1    0.0000
     14 O4         2.6979    2.8497    3.9994 O.2       1 RES1    0.0000
     15 N5         2.5321    1.3943    1.3437 N.2       1 RES1    0.0000
     16 N6         2.9064    2.5925    1.3610 N.1       1 RES1    1.0000
     17 N7         3.3511    3.6060    1.2143 N.2       1 RES1   -1.0000
     18 N1B       -0.6411   -0.0932   -1.7465 N.3       1 RES1    0.0000
     19 N2B        0.2370    0.3203   -2.6991 N.2       1 RES1    0.0000
     20 C1B       -0.0912   -0.3809   -3.7579 C.2       1 RES1    0.0000
     21 C2B       -1.1635   -1.2496   -3.5278 C.2       1 RES1    0.0000
     22 C3B       -1.5089   -1.0193   -2.1961 C.2       1 RES1    0.0000
     23 C4B       -0.5162    0.4139   -0.3788 C.3       1 RES1    0.0000
     24 H1B       -0.2360    1.3632   -0.3975 H         1 RES1    0.0000
     25 H2B       -1.3916    0.3586    0.0795 H         1 RES1    0.0000
     26 N3B        0.7070   -0.1740   -4.9631 N.pl3     1 RES1    0.0000
     27 O1B        0.7940    0.9758   -5.3764 O.2       1 RES1    0.0000
     28 O2B        1.2492   -1.1419   -5.4579 O.2       1 RES1    0.0000
     29 N4B       -1.8325   -2.0999   -4.4502 N.pl3     1 RES1    0.0000
     30 O3B       -1.5098   -2.0338   -5.6273 O.2       1 RES1    0.0000
     31 O4B       -2.6979   -2.8497   -3.9994 O.2       1 RES1    0.0000
     32 N5B       -2.5321   -1.3943   -1.3437 N.2       1 RES1    0.0000
     33 N6B       -2.9064   -2.5925   -1.3610 N.1       1 RES1    1.0000
     34 N7B       -3.3511   -3.6060   -1.2143 N.2       1 RES1   -1.0000
@<TRIPOS>BOND
     1    1    2 1
     2    2    3 2
     3    3    4 1
     4    4    5 2
     5    5    1 1
     6    6    1 1
     7    7    6 1
     8    8    6 1
     9    9    3 1
    10   10    9 2
    11   11    9 2
    12   12    4 1
    13   13   12 2
    14   14   12 2
    15   15    5 1
    16   16   15 2
    17   17   16 2
    18   18   19 1
    19   19   20 2
    20   20   21 1
    21   21   22 2
    22   22   18 1
    23   23    6 1
    24   24   23 1
    25   25   23 1
    26   26   20 1
    27   27   26 2
    28   28   26 2
    29   29   21 1
    30   30   29 2
    31   31   29 2
    32   32   22 1
    33   33   32 2
    34   34   33 2
    35   18   23 1
@<TRIPOS>SUBSTRUCTURE
     1 RES1 1

@<TRIPOS>CRYSIN
   6.0091    9.2420   13.9850  90.0000  94.2550  90.0000  14 1

