# MOL2 file generated by ConQuest
# Please check atom types

@<TRIPOS>MOLECULE
JOWSIZ
    30    31     1
SMALL
NO_CHARGES
****
Generated from CSD

@<TRIPOS>ATOM
      1 O1         0.5080    0.4868    4.3886 O.3       1 RES1    0.0000
      2 O2         4.5609    1.7811   -0.1858 O.2       1 RES1    0.0000
      3 O3        -0.5184   -0.9933    9.2464 O.2       1 RES1    0.0000
      4 O4         1.0084   -0.8244    7.7275 O.2       1 RES1    0.0000
      5 C1        -0.6867    0.7576    7.7494 C.ar      1 RES1    0.0000
      6 C2        -1.2114    1.6328    8.6795 C.ar      1 RES1    0.0000
      7 H1        -1.1617    1.4387    9.6078 H         1 RES1    0.0000
      8 C3        -1.8104    2.7953    8.2336 C.ar      1 RES1    0.0000
      9 H2        -2.1687    3.4154    8.8578 H         1 RES1    0.0000
     10 C4        -1.8873    3.0559    6.8793 C.ar      1 RES1    0.0000
     11 H3        -2.2965    3.8582    6.5773 H         1 RES1    0.0000
     12 C5        -1.3737    2.1588    5.9588 C.ar      1 RES1    0.0000
     13 H4        -1.4426    2.3490    5.0305 H         1 RES1    0.0000
     14 C6        -0.7572    0.9791    6.3748 C.ar      1 RES1    0.0000
     15 C7        -0.3128    0.0038    5.3760 C.2       1 RES1    0.0000
     16 C8        -0.5756   -1.3056    5.1681 C.2       1 RES1    0.0000
     17 H5        -1.1239   -1.8658    5.7053 H         1 RES1    0.0000
     18 C9         0.1256   -1.6804    3.9935 C.2       1 RES1    0.0000
     19 H6         0.1393   -2.5397    3.5894 H         1 RES1    0.0000
     20 C10        0.7747   -0.5666    3.5614 C.2       1 RES1    0.0000
     21 C11        1.6798   -0.3766    2.4663 C.2       1 RES1    0.0000
     22 H7         1.8743   -1.1163    1.9024 H         1 RES1    0.0000
     23 C12        3.7558    1.8460    0.7642 C.2       1 RES1    0.0000
     24 N1         2.2378    0.7503    2.2161 N.2       1 RES1    0.0000
     25 N2         3.1068    0.7241    1.1531 N.am      1 RES1    0.0000
     26 H8         3.2430   -0.0299    0.7195 H         1 RES1    0.0000
     27 N3         3.4955    2.9769    1.4207 N.am      1 RES1    0.0000
     28 H9         3.8997    3.7231    1.1890 H         1 RES1    0.0000
     29 H10        2.9195    2.9769    2.0854 H         1 RES1    0.0000
     30 N4        -0.0184   -0.4454    8.2724 N.pl3     1 RES1    0.0000
@<TRIPOS>BOND
     1    1   15 1
     2    2   23 2
     3    3   30 2
     4    4   30 2
     5    5    6 ar
     6    6    7 1
     7    8    6 ar
     8    9    8 1
     9   10    8 ar
    10   11   10 1
    11   12   10 ar
    12   13   12 1
    13   14    5 ar
    14   15   14 1
    15   16   15 2
    16   17   16 1
    17   18   16 1
    18   19   18 1
    19   20    1 1
    20   21   20 1
    21   22   21 1
    22   23   25 1
    23   24   21 2
    24   25   24 1
    25   26   25 1
    26   27   23 1
    27   28   27 1
    28   29   27 1
    29   30    5 1
    30   12   14 ar
    31   18   20 2
@<TRIPOS>SUBSTRUCTURE
     1 RES1 1

@<TRIPOS>CRYSIN
   4.2818    7.0648   20.3333  89.9770  88.3980  83.9330   2 1

