# MOL2 file generated by ConQuest
# Please check atom types

@<TRIPOS>MOLECULE
JOXHOV
    39    40     1
SMALL
USER_CHARGES
****
Generated from CSD

@<TRIPOS>ATOM
      1 N1         1.8560    2.1530    6.2212 N.pl3     1 RES1    1.0000
      2 O1         1.0850    4.0970    5.9100 O.3       1 RES1    0.0000
      3 N2         1.6955    0.7242    6.0906 N.am      1 RES1    0.0000
      4 C1        -0.1216    4.7790    5.4907 C.3       1 RES1    0.0000
      5 H1        -0.2228    5.6096    6.0196 H         1 RES1    0.0000
      6 H2        -0.9020    4.2012    5.6826 H         1 RES1    0.0000
      7 O2         2.9182    2.5810    6.6889 O.2       1 RES1   -1.0000
      8 N3         0.8586    2.7478    5.7181 N.2       1 RES1    0.0000
      9 C2        -0.1165    5.1290    4.0185 C.ar      1 RES1    0.0000
     10 C3         0.8137    4.6645    3.1203 C.ar      1 RES1    0.0000
     11 H3         1.5107    4.0868    3.4089 H         1 RES1    0.0000
     12 C4         0.7273    5.0430    1.7932 C.ar      1 RES1    0.0000
     13 H4         1.4077    4.7642    1.1917 H         1 RES1    0.0000
     14 C5        -0.3015    5.8012    1.3191 C.ar      1 RES1    0.0000
     15 H5        -0.3728    6.0030    0.3935 H         1 RES1    0.0000
     16 C6        -1.2320    6.2676    2.2156 C.ar      1 RES1    0.0000
     17 H6        -1.9290    6.8411    1.9189 H         1 RES1    0.0000
     18 C7        -1.1562    5.9015    3.5492 C.ar      1 RES1    0.0000
     19 H7        -1.8331    6.1881    4.1507 H         1 RES1    0.0000
     20 C8         0.8642    0.0858    7.0227 C.2       1 RES1    0.0000
     21 O3         0.7533   -1.1250    6.9243 O.2       1 RES1    0.0000
     22 C9         0.1686    0.9186    8.0434 C.3       1 RES1    0.0000
     23 H8        -0.2466    0.3361    8.7126 H         1 RES1    0.0000
     24 H9        -0.5227    1.4592    7.6080 H         1 RES1    0.0000
     25 H10        0.8175    1.5083    8.4804 H         1 RES1    0.0000
     26 C10        2.6932    0.0527    5.2601 C.3       1 RES1    0.0000
     27 H11        2.4976   -0.9170    5.2376 H         1 RES1    0.0000
     28 H12        3.5875    0.1732    5.6665 H         1 RES1    0.0000
     29 C11        2.7153    0.5877    3.8411 C.ar      1 RES1    0.0000
     30 C12        1.7410    0.1568    2.9623 C.ar      1 RES1    0.0000
     31 H13        1.0859   -0.4729    3.2396 H         1 RES1    0.0000
     32 C13        1.7344    0.6499    1.6867 C.ar      1 RES1    0.0000
     33 H14        1.0745    0.3471    1.0740 H         1 RES1    0.0000
     34 C14        2.6744    1.5884    1.2626 C.ar      1 RES1    0.0000
     35 H15        2.6605    1.9173    0.3709 H         1 RES1    0.0000
     36 C15        3.6214    2.0307    2.1560 C.ar      1 RES1    0.0000
     37 H16        4.2592    2.6841    1.8931 H         1 RES1    0.0000
     38 C16        3.6362    1.5126    3.4444 C.ar      1 RES1    0.0000
     39 H17        4.2979    1.8064    4.0588 H         1 RES1    0.0000
@<TRIPOS>BOND
     1    1    3 1
     2    2    4 1
     3    3   20 1
     4    4    5 1
     5    6    4 1
     6    7    1 1
     7    8    1 2
     8    9    4 1
     9   10    9 ar
    10   11   10 1
    11   12   10 ar
    12   13   12 1
    13   14   12 ar
    14   15   14 1
    15   16   14 ar
    16   17   16 1
    17   18    9 ar
    18   19   18 1
    19   20   21 2
    20   22   20 1
    21   23   22 1
    22   24   22 1
    23   25   22 1
    24   26    3 1
    25   27   26 1
    26   28   26 1
    27   29   26 1
    28   30   29 ar
    29   31   30 1
    30   32   30 ar
    31   33   32 1
    32   34   32 ar
    33   35   34 1
    34   36   34 ar
    35   37   36 1
    36   38   29 ar
    37   39   38 1
    38    2    8 1
    39   16   18 ar
    40   36   38 ar
@<TRIPOS>SUBSTRUCTURE
     1 RES1 1

@<TRIPOS>CRYSIN
   5.4290    8.7430   16.3420  96.3000  96.6000  92.3300   2 1

