# MOL2 file generated by ConQuest
# Please check atom types

@<TRIPOS>MOLECULE
JOXHIP
    45    47     1
SMALL
USER_CHARGES
****
Generated from CSD

@<TRIPOS>ATOM
      1 O1         4.4872    6.4351    3.4148 O.2       1 RES1   -1.0000
      2 N1         3.8126    6.4111    2.3498 N.pl3     1 RES1    1.0000
      3 O2         2.0333    6.4914    3.5741 O.3       1 RES1    0.0000
      4 N2         2.5402    6.4331    2.2670 N.2       1 RES1    0.0000
      5 C1         0.5851    6.5609    3.4699 C.3       1 RES1    0.0000
      6 H1         0.2121    5.6713    3.2485 H         1 RES1    0.0000
      7 H2         0.3216    7.2008    2.7607 H         1 RES1    0.0000
      8 N3         4.4911    6.4865    1.1224 N.2       1 RES1    0.0000
      9 C2         0.0801    7.0225    4.8044 C.ar      1 RES1    0.0000
     10 C3         0.0259    8.3847    5.0859 C.ar      1 RES1    0.0000
     11 H3         0.3152    9.0123    4.4330 H         1 RES1    0.0000
     12 C4        -0.4454    8.8350    6.3105 C.ar      1 RES1    0.0000
     13 H4        -0.4779    9.7657    6.4951 H         1 RES1    0.0000
     14 C5        -0.8648    7.9293    7.2576 C.ar      1 RES1    0.0000
     15 H5        -1.1910    8.2362    8.0958 H         1 RES1    0.0000
     16 C6        -0.8140    6.5825    6.9936 C.ar      1 RES1    0.0000
     17 H6        -1.1026    5.9610    7.6514 H         1 RES1    0.0000
     18 C7        -0.3458    6.1273    5.7776 C.ar      1 RES1    0.0000
     19 H7        -0.3149    5.1936    5.6043 H         1 RES1    0.0000
     20 O3         4.0054    4.2280    0.8642 O.2       1 RES1   -1.0000
     21 C8         4.5085    5.3058    0.5071 C.2       1 RES1    0.0000
     22 C9         5.2789    5.3580   -0.7821 C.ar      1 RES1    0.0000
     23 C10        5.6845    4.1568   -1.3378 C.ar      1 RES1    0.0000
     24 H8         5.4788    3.3410   -0.8964 H         1 RES1    0.0000
     25 N4         6.3670    4.1314   -2.4982 N.pl3     1 RES1    1.0000
     26 C11        6.6303    5.2615   -3.1807 C.ar      1 RES1    0.0000
     27 H9         7.0900    5.2206   -4.0112 H         1 RES1    0.0000
     28 C12        6.2308    6.4742   -2.6728 C.ar      1 RES1    0.0000
     29 H10        6.4089    7.2721   -3.1562 H         1 RES1    0.0000
     30 C13        5.5699    6.5357   -1.4585 C.ar      1 RES1    0.0000
     31 H11        5.3185    7.3748   -1.0922 H         1 RES1    0.0000
     32 C14        6.9135    2.8361   -3.0116 C.3       1 RES1    0.0000
     33 H12        6.9651    2.8621   -3.9999 H         1 RES1    0.0000
     34 H13        6.3127    2.0926   -2.7513 H         1 RES1    0.0000
     35 C15        8.2929    2.6067   -2.4338 C.ar      1 RES1    0.0000
     36 C16        8.4413    1.8973   -1.2525 C.ar      1 RES1    0.0000
     37 H14        7.6807    1.5067   -0.8380 H         1 RES1    0.0000
     38 C17        9.6901    1.7543   -0.6749 C.ar      1 RES1    0.0000
     39 H15        9.7855    1.2625    0.1318 H         1 RES1    0.0000
     40 C18       10.7969    2.3239   -1.2672 C.ar      1 RES1    0.0000
     41 H16       11.6507    2.2428   -0.8587 H         1 RES1    0.0000
     42 C19       10.6637    3.0113   -2.4528 C.ar      1 RES1    0.0000
     43 H17       11.4275    3.3918   -2.8700 H         1 RES1    0.0000
     44 C20        9.4132    3.1477   -3.0398 C.ar      1 RES1    0.0000
     45 H18        9.3272    3.6155   -3.8624 H         1 RES1    0.0000
@<TRIPOS>BOND
     1    1    2 1
     2    2    4 2
     3    3    4 1
     4    5    3 1
     5    6    5 1
     6    7    5 1
     7    8    2 1
     8    9    5 1
     9   10    9 ar
    10   11   10 1
    11   12   10 ar
    12   13   12 1
    13   14   12 ar
    14   15   14 1
    15   16   14 ar
    16   17   16 1
    17   18    9 ar
    18   19   18 1
    19   20   21 1
    20   21    8 2
    21   22   21 1
    22   23   22 ar
    23   24   23 1
    24   25   23 ar
    25   26   25 ar
    26   27   26 1
    27   28   26 ar
    28   29   28 1
    29   30   22 ar
    30   31   30 1
    31   32   25 1
    32   33   32 1
    33   34   32 1
    34   35   32 1
    35   36   35 ar
    36   37   36 1
    37   38   36 ar
    38   39   38 1
    39   40   38 ar
    40   41   40 1
    41   42   40 ar
    42   43   42 1
    43   44   35 ar
    44   45   44 1
    45   16   18 ar
    46   28   30 ar
    47   42   44 ar
@<TRIPOS>SUBSTRUCTURE
     1 RES1 1

@<TRIPOS>CRYSIN
  18.3109   10.8087   20.0132  90.0000 109.7850  90.0000  15 1

