# MOL2 file generated by ConQuest
# Please check atom types

@<TRIPOS>MOLECULE
JOXQUI
    50    51     1
SMALL
NO_CHARGES
****
Generated from CSD

@<TRIPOS>ATOM
      1 C1         3.4857    1.6054   12.0433 C.2       1 RES1    0.0000
      2 N1         2.6029    1.3813   11.0459 N.pl3     1 RES1    0.0000
      3 C2         2.3473    2.6029   10.2244 C.3       1 RES1    0.0000
      4 C3         2.8900    3.7268   11.1494 C.3       1 RES1    0.0000
      5 N2         3.7580    2.9302   12.0860 N.3       1 RES1    0.0000
      6 O1         2.1150    0.2441   10.7263 O.2       1 RES1    0.0000
      7 C4         3.2064    2.4309    8.9513 C.3       1 RES1    0.0000
      8 C5         0.9018    2.6916    9.8569 C.3       1 RES1    0.0000
      9 C6         1.8143    4.3958   11.9942 C.3       1 RES1    0.0000
     10 C7         3.7219    4.7975   10.4728 C.3       1 RES1    0.0000
     11 O2         4.5662    3.4827   12.9037 O.2       1 RES1    0.0000
     12 C8         4.0779    0.6613   12.9360 C.2       1 RES1    0.0000
     13 H1         3.0856    3.1843    8.3847 H         1 RES1    0.0000
     14 H2         4.1222    2.3621    9.1945 H         1 RES1    0.0000
     15 H3         2.9393    1.6432    8.4933 H         1 RES1    0.0000
     16 H4         0.7551    3.4727    9.3356 H         1 RES1    0.0000
     17 H5         0.6555    1.9239    9.3537 H         1 RES1    0.0000
     18 H6         0.3759    2.7349   10.6461 H         1 RES1    0.0000
     19 H7         1.2451    4.9095   11.4327 H         1 RES1    0.0000
     20 H8         1.3026    3.7312   12.4405 H         1 RES1    0.0000
     21 H9         2.2235    4.9650   12.6359 H         1 RES1    0.0000
     22 H10        3.1725    5.2990    9.8828 H         1 RES1    0.0000
     23 H11        4.0899    5.3755   11.1313 H         1 RES1    0.0000
     24 H12        4.4252    4.3892    9.9811 H         1 RES1    0.0000
     25 H13        4.7013    0.9875   13.5738 H         1 RES1    0.0000
     26 C8B        3.8151   -0.6613   12.9386 C.2       1 RES1    0.0000
     27 C1B        4.4073   -1.6054   13.8313 C.2       1 RES1    0.0000
     28 N1B        5.2902   -1.3813   14.8287 N.pl3     1 RES1    0.0000
     29 C2B        5.5457   -2.6029   15.6503 C.3       1 RES1    0.0000
     30 C3B        5.0030   -3.7268   14.7252 C.3       1 RES1    0.0000
     31 N2B        4.1350   -2.9302   13.7886 N.3       1 RES1    0.0000
     32 O2B        3.3269   -3.4827   12.9709 O.2       1 RES1    0.0000
     33 C6B        6.0788   -4.3958   13.8804 C.3       1 RES1    0.0000
     34 H7B        6.6479   -4.9095   14.4419 H         1 RES1    0.0000
     35 H8B        6.5905   -3.7312   13.4341 H         1 RES1    0.0000
     36 H9B        5.6696   -4.9650   13.2388 H         1 RES1    0.0000
     37 C7B        4.1711   -4.7975   15.4019 C.3       1 RES1    0.0000
     38 H10B       4.7205   -5.2990   15.9918 H         1 RES1    0.0000
     39 H11B       3.8032   -5.3755   14.7434 H         1 RES1    0.0000
     40 H12B       3.4678   -4.3892   15.8935 H         1 RES1    0.0000
     41 C4B        4.6866   -2.4309   16.9233 C.3       1 RES1    0.0000
     42 H1B        4.8075   -3.1843   17.4900 H         1 RES1    0.0000
     43 H2B        3.7709   -2.3621   16.6801 H         1 RES1    0.0000
     44 H3B        4.9538   -1.6432   17.3813 H         1 RES1    0.0000
     45 C5B        6.9913   -2.6916   16.0177 C.3       1 RES1    0.0000
     46 H4B        7.1379   -3.4727   16.5391 H         1 RES1    0.0000
     47 H5B        7.2376   -1.9239   16.5209 H         1 RES1    0.0000
     48 H6B        7.5172   -2.7349   15.2285 H         1 RES1    0.0000
     49 O1B        5.7781   -0.2441   15.1483 O.2       1 RES1    0.0000
     50 H13B       3.1918   -0.9875   12.3008 H         1 RES1    0.0000
@<TRIPOS>BOND
     1    1    2 2
     2    2    3 1
     3    3    4 1
     4    4    5 1
     5    5    1 1
     6    6    2 1
     7    7    3 1
     8    8    3 1
     9    9    4 1
    10   10    4 1
    11   11    5 1
    12   12    1 1
    13   13    7 1
    14   14    7 1
    15   15    7 1
    16   16    8 1
    17   17    8 1
    18   18    8 1
    19   19    9 1
    20   20    9 1
    21   21    9 1
    22   22   10 1
    23   23   10 1
    24   24   10 1
    25   25   12 1
    26   26   12 2
    27   27   26 1
    28   28   27 2
    29   29   28 1
    30   30   29 1
    31   31   27 1
    32   32   31 1
    33   33   30 1
    34   34   33 1
    35   35   33 1
    36   36   33 1
    37   37   30 1
    38   38   37 1
    39   39   37 1
    40   40   37 1
    41   41   29 1
    42   42   41 1
    43   43   41 1
    44   44   41 1
    45   45   29 1
    46   46   45 1
    47   47   45 1
    48   48   45 1
    49   49   28 1
    50   50   26 1
    51   30   31 1
@<TRIPOS>SUBSTRUCTURE
     1 RES1 1

@<TRIPOS>CRYSIN
   6.1877   11.0950   13.1300  90.0000  99.8280  90.0000  14 1

