# MOL2 file generated by ConQuest
# Please check atom types

@<TRIPOS>MOLECULE
JOXSAQ01
    64    65     1
SMALL
USER_CHARGES
****
Generated from CSD

@<TRIPOS>ATOM
      1 C1         5.7234    1.1666    7.9190 C.2       1 RES1    0.0000
      2 N1         5.5645    2.5072    7.9518 N.pl3     1 RES1    1.0000
      3 O1         4.8462    3.2117    7.1634 O.2       1 RES1   -1.0000
      4 C2         6.2218    3.1385    9.1545 C.3       1 RES1    0.0000
      5 C3         7.2417    2.0386    9.5235 C.3       1 RES1    0.0000
      6 N2         6.5848    0.8314    8.9135 N.3       1 RES1    0.0000
      7 O2         6.8852   -0.3456    9.2898 O.2       1 RES1    0.0000
      8 C4         5.1318    3.3386   10.1971 C.3       1 RES1    0.0000
      9 C5         6.8188    4.4775    8.7720 C.3       1 RES1    0.0000
     10 C6         7.4582    1.8141   10.9968 C.3       1 RES1    0.0000
     11 C7         8.5885    2.1753    8.7936 C.3       1 RES1    0.0000
     12 C8         5.1212    0.2408    6.9768 C.2       1 RES1    0.0000
     13 C9         5.8472   -1.0462    6.6887 C.3       1 RES1    0.0000
     14 C10        3.9661    0.5971    6.3699 C.2       1 RES1    0.0000
     15 C11        3.2438   -0.2017    5.4123 C.2       1 RES1    0.0000
     16 H1         5.5058    3.7356   10.9743 H         1 RES1    0.0000
     17 H2         4.4566    3.9064    9.8455 H         1 RES1    0.0000
     18 H3         4.7517    2.4974   10.4227 H         1 RES1    0.0000
     19 H4         7.2311    4.8680    9.5328 H         1 RES1    0.0000
     20 H5         7.4680    4.3506    8.0902 H         1 RES1    0.0000
     21 H6         6.1319    5.0502    8.4532 H         1 RES1    0.0000
     22 H7         7.8731    2.5804   11.3762 H         1 RES1    0.0000
     23 H8         6.6210    1.6660   11.4213 H         1 RES1    0.0000
     24 H9         8.0166    1.0559   11.1229 H         1 RES1    0.0000
     25 H10        9.0587    2.9270    9.1340 H         1 RES1    0.0000
     26 H11        9.1042    1.3895    8.9320 H         1 RES1    0.0000
     27 H12        8.4342    2.2924    7.8637 H         1 RES1    0.0000
     28 H13        5.3501   -1.5570    6.0613 H         1 RES1    0.0000
     29 H14        6.7058   -0.8525    6.3309 H         1 RES1    0.0000
     30 H15        5.9445   -1.5408    7.4946 H         1 RES1    0.0000
     31 H16        3.6003    1.4448    6.5934 H         1 RES1    0.0000
     32 H17        3.5937   -1.0527    5.1744 H         1 RES1    0.0000
     33 C1B       -0.3833   -1.1666    2.3335 C.2       1 RES1    0.0000
     34 N1B       -0.2245   -2.5072    2.3007 N.pl3     1 RES1    1.0000
     35 O1B        0.4939   -3.2117    3.0891 O.2       1 RES1   -1.0000
     36 C2B       -0.8817   -3.1385    1.0980 C.3       1 RES1    0.0000
     37 C3B       -1.9017   -2.0386    0.7290 C.3       1 RES1    0.0000
     38 N2B       -1.2447   -0.8314    1.3390 N.3       1 RES1    0.0000
     39 O2B       -1.5451    0.3456    0.9627 O.2       1 RES1    0.0000
     40 C4B        0.2083   -3.3386    0.0554 C.3       1 RES1    0.0000
     41 C5B       -1.4787   -4.4775    1.4805 C.3       1 RES1    0.0000
     42 C6B       -2.1181   -1.8141   -0.7443 C.3       1 RES1    0.0000
     43 C7B       -3.2484   -2.1753    1.4589 C.3       1 RES1    0.0000
     44 C8B        0.2189   -0.2408    3.2757 C.2       1 RES1    0.0000
     45 C9B       -0.5071    1.0462    3.5638 C.3       1 RES1    0.0000
     46 C10B       1.3740   -0.5971    3.8826 C.2       1 RES1    0.0000
     47 C11B       2.0963    0.2017    4.8402 C.2       1 RES1    0.0000
     48 H1B       -0.1657   -3.7356   -0.7218 H         1 RES1    0.0000
     49 H2B        0.8834   -3.9064    0.4070 H         1 RES1    0.0000
     50 H3B        0.5884   -2.4974   -0.1702 H         1 RES1    0.0000
     51 H4B       -1.8910   -4.8680    0.7197 H         1 RES1    0.0000
     52 H5B       -2.1279   -4.3506    2.1623 H         1 RES1    0.0000
     53 H6B       -0.7919   -5.0502    1.7993 H         1 RES1    0.0000
     54 H7B       -2.5330   -2.5804   -1.1237 H         1 RES1    0.0000
     55 H8B       -1.2809   -1.6660   -1.1688 H         1 RES1    0.0000
     56 H9B       -2.6765   -1.0559   -0.8704 H         1 RES1    0.0000
     57 H10B      -3.7186   -2.9270    1.1185 H         1 RES1    0.0000
     58 H11B      -3.7641   -1.3895    1.3205 H         1 RES1    0.0000
     59 H12B      -3.0941   -2.2924    2.3888 H         1 RES1    0.0000
     60 H13B      -0.0100    1.5570    4.1912 H         1 RES1    0.0000
     61 H14B      -1.3658    0.8525    3.9216 H         1 RES1    0.0000
     62 H15B      -0.6045    1.5408    2.7579 H         1 RES1    0.0000
     63 H16B       1.7398   -1.4448    3.6591 H         1 RES1    0.0000
     64 H17B       1.7464    1.0527    5.0781 H         1 RES1    0.0000
@<TRIPOS>BOND
     1    1    2 2
     2    2    3 1
     3    4    2 1
     4    5    4 1
     5    6    1 1
     6    7    6 1
     7    8    4 1
     8    9    4 1
     9   10    5 1
    10   11    5 1
    11   12    1 1
    12   13   12 1
    13   14   12 2
    14   15   14 1
    15   16    8 1
    16   17    8 1
    17   18    8 1
    18   19    9 1
    19   20    9 1
    20   21    9 1
    21   22   10 1
    22   23   10 1
    23   24   10 1
    24   25   11 1
    25   26   11 1
    26   27   11 1
    27   28   13 1
    28   29   13 1
    29   30   13 1
    30   31   14 1
    31   32   15 1
    32   33   34 2
    33   34   35 1
    34   36   34 1
    35   37   36 1
    36   38   33 1
    37   39   38 1
    38   40   36 1
    39   41   36 1
    40   42   37 1
    41   43   37 1
    42   44   33 1
    43   45   44 1
    44   46   44 2
    45   47   15 2
    46   48   40 1
    47   49   40 1
    48   50   40 1
    49   51   41 1
    50   52   41 1
    51   53   41 1
    52   54   42 1
    53   55   42 1
    54   56   42 1
    55   57   43 1
    56   58   43 1
    57   59   43 1
    58   60   45 1
    59   61   45 1
    60   62   45 1
    61   63   46 1
    62   64   47 1
    63    5    6 1
    64   37   38 1
    65   46   47 1
@<TRIPOS>SUBSTRUCTURE
     1 RES1 1

@<TRIPOS>CRYSIN
   7.0087   16.2700   10.3874  90.0000  99.2440  90.0000 231 1

