# MOL2 file generated by ConQuest
# Please check atom types

@<TRIPOS>MOLECULE
JOXSIA
   124   136     4
SMALL
NO_CHARGES
****
Generated from CSD

@<TRIPOS>ATOM
      1 O1         6.0363    0.6390   14.3400 O.3       1 RES1    0.0000
      2 H1         5.7494    1.0743   13.7121 H         1 RES1    0.0000
      3 O2         7.1247   -0.2136    7.3630 O.2       1 RES1    0.0000
      4 N1         6.7880   -0.3293   13.6409 N.2       1 RES1    0.0000
      5 N2         6.1194    1.7253    7.8323 N.am      1 RES1    0.0000
      6 H2         6.1518    1.9379    6.9990 H         1 RES1    0.0000
      7 N3         6.8020    0.3086    9.6024 N.am      1 RES1    0.0000
      8 N4         6.1158    0.9085   11.8071 N.2       1 RES1    0.0000
      9 C1         5.4237    2.2909   10.0323 C.ar      1 RES1    0.0000
     10 C2         7.5821   -1.0315   11.4973 C.ar      1 RES1    0.0000
     11 C3         7.5807   -0.8021   10.1069 C.ar      1 RES1    0.0000
     12 C4         6.8105   -0.1463   12.3581 C.2       1 RES1    0.0000
     13 C5         6.1371    1.1214   10.5273 C.2       1 RES1    0.0000
     14 C6         4.1362    4.2934   10.4349 C.ar      1 RES1    0.0000
     15 H3         3.6742    4.8556   11.0132 H         1 RES1    0.0000
     16 C7         4.8753    3.7710    8.1840 C.ar      1 RES1    0.0000
     17 H4         4.9157    3.9801    7.2784 H         1 RES1    0.0000
     18 C8         8.3523   -1.6356    9.2876 C.ar      1 RES1    0.0000
     19 H5         8.3751   -1.4926    8.3692 H         1 RES1    0.0000
     20 C9         8.3449   -2.0798   12.0372 C.ar      1 RES1    0.0000
     21 H6         8.3483   -2.2185   12.9571 H         1 RES1    0.0000
     22 C10        4.7386    3.1442   10.9131 C.ar      1 RES1    0.0000
     23 H7         4.6899    2.9361   11.8180 H         1 RES1    0.0000
     24 C11        9.0884   -2.9056   11.2201 C.ar      1 RES1    0.0000
     25 H8         9.5850   -3.6041   11.5802 H         1 RES1    0.0000
     26 C12        5.4725    2.6001    8.6777 C.ar      1 RES1    0.0000
     27 C13        9.0852   -2.6756    9.8459 C.ar      1 RES1    0.0000
     28 H9         9.5838   -3.2296    9.2905 H         1 RES1    0.0000
     29 C14        4.2285    4.6038    9.0725 C.ar      1 RES1    0.0000
     30 H10        3.8439    5.3894    8.7600 H         1 RES1    0.0000
     31 C15        6.7099    0.5597    8.1926 C.2       1 RES1    0.0000
     32 O3         3.5698    7.8156   18.6485 O.3       2 RES2    0.0000
     33 H11        3.8085    8.3823   18.0921 H         2 RES2    0.0000
     34 O4         2.3122    6.7469   11.7272 O.2       2 RES2    0.0000
     35 N5         2.8228    6.8203   17.9846 N.2       2 RES2    0.0000
     36 N6         3.3081    8.1098   16.1197 N.2       2 RES2    0.0000
     37 N7         2.6464    7.3834   13.9412 N.am      2 RES2    0.0000
     38 N8         3.4623    8.6219   12.0939 N.am      2 RES2    0.0000
     39 H12        3.5362    8.7266   11.2443 H         2 RES2    0.0000
     40 C16        3.2788    8.2636   14.8322 C.2       2 RES2    0.0000
     41 C17        2.7092    7.0124   16.7077 C.2       2 RES2    0.0000
     42 C18        1.9324    6.0924   15.8851 C.ar      2 RES2    0.0000
     43 C19        1.8834    6.2901   14.4961 C.ar      2 RES2    0.0000
     44 C20        3.9644    9.4256   14.2784 C.ar      2 RES2    0.0000
     45 C21        1.2077    5.0475   16.4759 C.ar      2 RES2    0.0000
     46 H13        1.2526    4.9202   17.3970 H         2 RES2    0.0000
     47 C22        4.0555    9.5738   12.8971 C.ar      2 RES2    0.0000
     48 C23        2.7755    7.5384   12.5223 C.2       2 RES2    0.0000
     49 C24        5.3076   11.6020   13.1710 C.ar      2 RES2    0.0000
     50 H14        5.7706   12.3221   12.8091 H         2 RES2    0.0000
     51 C25        0.4275    4.2036   15.7080 C.ar      2 RES2    0.0000
     52 H15       -0.0489    3.5078   16.1016 H         2 RES2    0.0000
     53 C26        4.7517   10.6546   12.3310 C.ar      2 RES2    0.0000
     54 H16        4.8371   10.7315   11.4090 H         2 RES2    0.0000
     55 C27        1.0759    5.4406   13.7204 C.ar      2 RES2    0.0000
     56 H17        1.0159    5.5652   12.8008 H         2 RES2    0.0000
     57 C28        4.5306   10.4057   15.1120 C.ar      2 RES2    0.0000
     58 H18        4.4654   10.3234   16.0367 H         2 RES2    0.0000
     59 C29        5.1816   11.4889   14.5611 C.ar      2 RES2    0.0000
     60 H19        5.5379   12.1471   15.1139 H         2 RES2    0.0000
     61 C30        0.3682    4.4153   14.3340 C.ar      2 RES2    0.0000
     62 H20       -0.1596    3.8560   13.8118 H         2 RES2    0.0000
     63 O5         2.0480   10.7512   10.2809 O.3       3 RES3    0.0000
     64 H21        1.7105   11.3501    9.5515 H         3 RES3    0.0000
     65 O6         3.2824   10.0557    3.3114 O.2       3 RES3    0.0000
     66 N9         2.8599    9.8379    9.5763 N.2       3 RES3    0.0000
     67 N10        2.2408   11.1410    7.7631 N.2       3 RES3    0.0000
     68 N11        2.9527   10.5667    5.5578 N.am      3 RES3    0.0000
     69 N12        2.2325   11.9729    3.7872 N.am      3 RES3    0.0000
     70 H22        2.2364   12.1745    2.9516 H         3 RES3    0.0000
     71 C31        1.5758   12.5517    5.9993 C.ar      3 RES3    0.0000
     72 C32        2.2797   11.3718    6.4874 C.2       3 RES3    0.0000
     73 C33        3.7315    9.2178    7.4404 C.ar      3 RES3    0.0000
     74 C34        2.9266   10.0733    8.3011 C.2       3 RES3    0.0000
     75 C35        0.3186   14.5697    6.4036 C.ar      3 RES3    0.0000
     76 H23       -0.1040   15.1544    6.9907 H         3 RES3    0.0000
     77 C36        0.9655   14.0013    4.1401 C.ar      3 RES3    0.0000
     78 H24        0.9657   14.1858    3.2293 H         3 RES3    0.0000
     79 C37        1.5980   12.8492    4.6389 C.ar      3 RES3    0.0000
     80 C38        5.2672    7.3716    7.1643 C.ar      3 RES3    0.0000
     81 H25        5.7668    6.6744    7.5245 H         3 RES3    0.0000
     82 C39        3.7444    9.4648    6.0562 C.ar      3 RES3    0.0000
     83 C40        0.3451   14.8535    5.0315 C.ar      3 RES3    0.0000
     84 H26       -0.0614   15.6283    4.7159 H         3 RES3    0.0000
     85 C41        4.5423    8.6527    5.2369 C.ar      3 RES3    0.0000
     86 H27        4.5744    8.8044    4.3201 H         3 RES3    0.0000
     87 C42        2.8515   10.8199    4.1455 C.2       3 RES3    0.0000
     88 C43        4.4943    8.1760    7.9795 C.ar      3 RES3    0.0000
     89 H28        4.4819    8.0234    8.8964 H         3 RES3    0.0000
     90 C44        0.9176   13.4259    6.8846 C.ar      3 RES3    0.0000
     91 H29        0.8862   13.2320    7.7939 H         3 RES3    0.0000
     92 C45        5.2845    7.6212    5.7968 C.ar      3 RES3    0.0000
     93 H30        5.8059    7.0842    5.2430 H         3 RES3    0.0000
     94 O7         7.5226    4.0524    6.0268 O.3       4 RES4    0.0000
     95 H31        7.9975    4.4798    5.3262 H         4 RES4    0.0000
     96 O8         6.0114    3.1588   -0.8570 O.2       4 RES4    0.0000
     97 N13        6.7829    3.0542    5.3564 N.2       4 RES4    0.0000
     98 N14        7.5738    4.1374    3.4651 N.2       4 RES4    0.0000
     99 N15        6.8559    3.4540    1.2922 N.am      4 RES4    0.0000
    100 N16        7.4940    4.8132   -0.5406 N.am      4 RES4    0.0000
    101 H32        7.5202    4.9497   -1.3902 H         4 RES4    0.0000
    102 C46        8.2799    5.4231    1.6236 C.ar      4 RES4    0.0000
    103 C47        6.8293    3.1417    4.0646 C.2       4 RES4    0.0000
    104 C48        6.1649    2.3096    1.8400 C.ar      4 RES4    0.0000
    105 C49        7.5506    4.2889    2.1750 C.2       4 RES4    0.0000
    106 C50        8.8619    6.7906   -0.2985 C.ar      4 RES4    0.0000
    107 H33        8.8317    6.9500   -1.2139 H         4 RES4    0.0000
    108 C51        5.4412    1.0908    3.8165 C.ar      4 RES4    0.0000
    109 H34        5.3953    1.0213    4.7425 H         4 RES4    0.0000
    110 C52        6.1194    2.1729    3.2351 C.ar      4 RES4    0.0000
    111 C53        9.5363    7.6499    0.5398 C.ar      4 RES4    0.0000
    112 H35        9.9451    8.4050    0.1829 H         4 RES4    0.0000
    113 C54        6.7389    3.7715   -0.1046 C.2       4 RES4    0.0000
    114 C55        8.2227    5.6700    0.2541 C.ar      4 RES4    0.0000
    115 C56        5.5766    1.3065    1.0474 C.ar      4 RES4    0.0000
    116 H36        5.6162    1.3643    0.1197 H         4 RES4    0.0000
    117 C57        4.8419    0.1290    3.0293 C.ar      4 RES4    0.0000
    118 H37        4.3795   -0.5777    3.4172 H         4 RES4    0.0000
    119 C58        8.9977    6.3021    2.4517 C.ar      4 RES4    0.0000
    120 H38        9.0545    6.1350    3.3640 H         4 RES4    0.0000
    121 C59        9.6185    7.4124    1.9185 C.ar      4 RES4    0.0000
    122 H39       10.0873    7.9974    2.4677 H         4 RES4    0.0000
    123 C60        4.9385    0.2344    1.6454 C.ar      4 RES4    0.0000
    124 H40        4.5673   -0.4301    1.1108 H         4 RES4    0.0000
@<TRIPOS>BOND
     1    1    2 1
     2    3   31 2
     3    4    1 1
     4    5    6 1
     5    7   11 1
     6    8   12 1
     7    9   13 1
     8   10   11 ar
     9   11   18 ar
    10   12    4 2
    11   13    7 1
    12   14   15 1
    13   16   17 1
    14   18   19 1
    15   20   10 ar
    16   21   20 1
    17   22    9 ar
    18   23   22 1
    19   24   20 ar
    20   25   24 1
    21   26    5 1
    22   27   18 ar
    23   28   27 1
    24   29   14 ar
    25   30   29 1
    26   31    5 1
    27   32   33 1
    28   34   48 2
    29   35   32 1
    30   36   40 2
    31   37   40 1
    32   38   39 1
    33   40   44 1
    34   41   35 2
    35   42   41 1
    36   43   37 1
    37   44   47 ar
    38   45   42 ar
    39   46   45 1
    40   47   38 1
    41   48   37 1
    42   49   50 1
    43   51   45 ar
    44   52   51 1
    45   53   47 ar
    46   54   53 1
    47   55   43 ar
    48   56   55 1
    49   57   44 ar
    50   58   57 1
    51   59   49 ar
    52   60   59 1
    53   61   51 ar
    54   62   61 1
    55   63   64 1
    56   65   87 2
    57   66   63 1
    58   67   72 2
    59   68   72 1
    60   69   70 1
    61   71   72 1
    62   73   74 1
    63   74   66 2
    64   75   76 1
    65   77   78 1
    66   79   69 1
    67   80   81 1
    68   82   68 1
    69   83   75 ar
    70   84   83 1
    71   85   82 ar
    72   86   85 1
    73   87   68 1
    74   88   73 ar
    75   89   88 1
    76   90   71 ar
    77   91   90 1
    78   92   80 ar
    79   93   92 1
    80   94   95 1
    81   96  113 2
    82   97   94 1
    83   98  103 1
    84   99  104 1
    85  100  101 1
    86  102  105 1
    87  103   97 2
    88  104  110 ar
    89  105   98 2
    90  106  107 1
    91  108  109 1
    92  110  103 1
    93  111  106 ar
    94  112  111 1
    95  113   99 1
    96  114  100 1
    97  115  104 ar
    98  116  115 1
    99  117  108 ar
   100  118  117 1
   101  119  102 ar
   102  120  119 1
   103  121  111 ar
   104  122  121 1
   105  123  115 ar
   106  124  123 1
   107    7   31 1
   108    8   13 2
   109    9   26 ar
   110   10   12 1
   111   14   22 ar
   112   16   26 ar
   113   16   29 ar
   114   24   27 ar
   115   36   41 1
   116   38   48 1
   117   42   43 ar
   118   49   53 ar
   119   55   61 ar
   120   57   59 ar
   121   67   74 1
   122   69   87 1
   123   71   79 ar
   124   73   82 ar
   125   75   90 ar
   126   77   79 ar
   127   77   83 ar
   128   80   88 ar
   129   85   92 ar
   130   99  105 1
   131  100  113 1
   132  102  114 ar
   133  106  114 ar
   134  108  110 ar
   135  117  123 ar
   136  119  121 ar
@<TRIPOS>SUBSTRUCTURE
     1 RES1 1
     2 RES2 32
     3 RES3 63
     4 RES4 94

@<TRIPOS>CRYSIN
   8.1501   17.7300   17.8702 111.2300  90.1900  98.0700   2 1

