# MOL2 file generated by ConQuest
# Please check atom types

@<TRIPOS>MOLECULE
JOXTIZ
    65    68     3
SMALL
NO_CHARGES
****
Generated from CSD

@<TRIPOS>ATOM
      1 N1         1.4899    6.2967    3.4936 N.ar      1 RES1    0.0000
      2 C1         2.3445    5.3462    3.0747 C.ar      1 RES1    0.0000
      3 N2         3.6513    5.2853    3.3352 N.ar      1 RES1    0.0000
      4 C2         4.1621    6.2737    4.0678 C.ar      1 RES1    0.0000
      5 C3         3.3624    7.3339    4.5556 C.ar      1 RES1    0.0000
      6 C4         2.0356    7.2824    4.2105 C.ar      1 RES1    0.0000
      7 N3         1.7961    4.3590    2.3374 N.3       1 RES1    0.0000
      8 N4         5.4798    6.2070    4.3423 N.3       1 RES1    0.0000
      9 C5         1.0395    8.3294    4.6827 C.3       1 RES1    0.0000
     10 C6         0.4749    7.9776    6.0334 C.3       1 RES1    0.0000
     11 C7         3.9931    8.4366    5.3196 C.ar      1 RES1    0.0000
     12 C8         4.3879    8.2857    6.6389 C.ar      1 RES1    0.0000
     13 C9         5.0318    9.3239    7.2963 C.ar      1 RES1    0.0000
     14 C10        5.4058   10.5262    6.6688 C.ar      1 RES1    0.0000
     15 C11        4.8793   10.6903    5.3792 C.ar      1 RES1    0.0000
     16 C12        4.2249    9.6895    4.7329 C.ar      1 RES1    0.0000
     17 N5         5.1896    9.1204    8.7364 N.pl3     1 RES1    0.0000
     18 O1         5.0094   10.0714    9.4862 O.2       1 RES1    0.0000
     19 O2         5.4370    7.9837    9.1646 O.2       1 RES1    0.0000
     20 N6         6.2832   11.4307    7.2115 N.3       1 RES1    0.0000
     21 C13        7.2854   11.0420    8.1826 C.3       1 RES1    0.0000
     22 C14        6.4308   12.7438    6.5684 C.3       1 RES1    0.0000
     23 C15        5.3632   13.7348    6.9072 C.ar      1 RES1    0.0000
     24 C16        5.0606   14.7149    6.0177 C.ar      1 RES1    0.0000
     25 C17        4.1564   15.6889    6.3534 C.ar      1 RES1    0.0000
     26 C18        3.5004   15.6847    7.5771 C.ar      1 RES1    0.0000
     27 C19        3.8050   14.6938    8.4650 C.ar      1 RES1    0.0000
     28 C20        4.7249   13.7101    8.1324 C.ar      1 RES1    0.0000
     29 H1         0.8017    4.4005    1.8668 H         1 RES1    0.0000
     30 H2         2.3880    3.9293    1.9766 H         1 RES1    0.0000
     31 H3         5.9350    7.0246    4.8474 H         1 RES1    0.0000
     32 H4         5.9873    5.7726    3.9062 H         1 RES1    0.0000
     33 N7         9.4338    4.6159    1.2785 N.ar      2 RES2    0.0000
     34 C21        8.5646    5.0551    2.2088 C.ar      2 RES2    0.0000
     35 N8         7.2608    4.8677    2.2339 N.ar      2 RES2    0.0000
     36 C22        6.7471    4.1145    1.2472 C.ar      2 RES2    0.0000
     37 C23        7.5593    3.5687    0.2369 C.ar      2 RES2    0.0000
     38 C24        8.9168    3.8522    0.2918 C.ar      2 RES2    0.0000
     39 N9         9.1018    5.8295    3.1971 N.3       2 RES2    0.0000
     40 N10        5.4080    3.9182    1.2879 N.3       2 RES2    0.0000
     41 C25        9.8547    3.4111   -0.7969 C.3       2 RES2    0.0000
     42 C26       10.7379    2.3818   -0.3326 C.3       2 RES2    0.0000
     43 C27       11.3036    3.3883   -0.6071 Du        3 SUP3    0.0000
     44 C28        6.9335    2.6875   -0.8079 C.ar      2 RES2    0.0000
     45 C29        7.1146    1.3089   -0.7781 C.ar      2 RES2    0.0000
     46 C30        6.4902    0.5031   -1.7335 C.ar      2 RES2    0.0000
     47 C31        5.6050    0.9953   -2.7077 C.ar      2 RES2    0.0000
     48 C32        5.5014    2.4025   -2.7296 C.ar      2 RES2    0.0000
     49 C33        6.1512    3.2063   -1.8339 C.ar      2 RES2    0.0000
     50 N11        6.9217   -0.8883   -1.7178 N.pl3     2 RES2    0.0000
     51 O3         7.1203   -1.4577   -2.7955 O.2       2 RES2    0.0000
     52 O4         7.1354   -1.4229   -0.6385 O.2       2 RES2    0.0000
     53 N12        4.9035    0.2143   -3.5673 N.3       2 RES2    0.0000
     54 C34        4.2943    0.8083   -4.7627 C.3       2 RES2    0.0000
     55 C35        4.3146   -1.0793   -3.1500 C.3       2 RES2    0.0000
     56 C36        2.8293   -1.1403   -3.2238 C.ar      2 RES2    0.0000
     57 C37        2.2282   -2.1975   -3.8874 C.ar      2 RES2    0.0000
     58 C38        0.8476   -2.2794   -3.9187 C.ar      2 RES2    0.0000
     59 C39        0.0971   -1.3250   -3.2771 C.ar      2 RES2    0.0000
     60 C40        0.6683   -0.2744   -2.6355 C.ar      2 RES2    0.0000
     61 C41        2.0574   -0.1898   -2.5931 C.ar      2 RES2    0.0000
     62 H5         8.6645    5.9426    3.8905 H         2 RES2    0.0000
     63 H6         9.9901    5.9500    3.0747 H         2 RES2    0.0000
     64 H7         4.8694    4.4972    2.0707 H         2 RES2    0.0000
     65 H8         5.0143    3.4885    0.6589 H         2 RES2    0.0000
@<TRIPOS>BOND
     1    1    2 ar
     2    2    3 ar
     3    3    4 ar
     4    4    5 ar
     5    5    6 ar
     6    6    1 ar
     7    7    2 1
     8    8    4 1
     9    9    6 1
    10   10    9 1
    11   11    5 1
    12   12   11 ar
    13   13   12 ar
    14   14   13 ar
    15   15   14 ar
    16   16   11 ar
    17   17   13 1
    18   18   17 2
    19   19   17 2
    20   20   14 1
    21   21   20 1
    22   22   20 1
    23   23   22 1
    24   24   23 ar
    25   25   24 ar
    26   26   25 ar
    27   27   26 ar
    28   28   23 ar
    29   29    7 1
    30   30    7 1
    31   31    8 1
    32   32    8 1
    33   33   34 ar
    34   34   35 ar
    35   35   36 ar
    36   36   37 ar
    37   37   38 ar
    38   38   33 ar
    39   39   34 1
    40   40   36 1
    41   41   38 1
    42   42   41 1
    43   44   37 1
    44   45   44 ar
    45   46   45 ar
    46   47   46 ar
    47   48   47 ar
    48   49   44 ar
    49   50   46 1
    50   51   50 2
    51   52   50 2
    52   53   47 1
    53   54   53 1
    54   55   53 1
    55   56   55 1
    56   57   56 ar
    57   58   57 ar
    58   59   58 ar
    59   60   59 ar
    60   61   56 ar
    61   62   39 1
    62   63   39 1
    63   64   40 1
    64   65   40 1
    65   15   16 ar
    66   27   28 ar
    67   48   49 ar
    68   60   61 ar
@<TRIPOS>SUBSTRUCTURE
     1 RES1 1
     2 RES2 33
     3 SUP3 43

@<TRIPOS>CRYSIN
  10.5630   11.8420   16.1580  76.3500  89.5300  78.1300   2 1

