# MOL2 file generated by ConQuest
# Please check atom types

@<TRIPOS>MOLECULE
JOZMUG
    44    46     1
SMALL
NO_CHARGES
****
Generated from CSD

@<TRIPOS>ATOM
      1 O1         0.5454    6.1693   10.7967 O.3       1 RES1    0.0000
      2 O2         2.5752   -1.7131   13.0141 O.2       1 RES1    0.0000
      3 O3         2.2493    0.0445   11.8319 O.2       1 RES1    0.0000
      4 O4         3.4136    0.3446   18.6486 O.2       1 RES1    0.0000
      5 O5         3.1577   -1.5451   17.6869 O.2       1 RES1    0.0000
      6 N1         1.5369    3.6695   13.0644 N.2       1 RES1    0.0000
      7 N2         1.8359    2.3417   12.9870 N.3       1 RES1    0.0000
      8 N3         2.4418   -0.5089   12.9155 N.pl3     1 RES1    0.0000
      9 N4         3.1789   -0.3310   17.6772 N.pl3     1 RES1    0.0000
     10 C1         0.8283    5.6284   12.0331 C.2       1 RES1    0.0000
     11 C2         0.8837    6.6313   12.9696 C.2       1 RES1    0.0000
     12 C3         0.6628    7.8429   12.2286 C.2       1 RES1    0.0000
     13 C4         0.4491    7.5119   10.9477 C.2       1 RES1    0.0000
     14 C5         0.1626    8.2801    9.7267 C.3       1 RES1    0.0000
     15 C6         1.1031    6.6275   14.4266 C.ar      1 RES1    0.0000
     16 C7         1.6711    7.7206   15.0071 C.ar      1 RES1    0.0000
     17 C8         1.8402    7.7700   16.3867 C.ar      1 RES1    0.0000
     18 C9         1.4538    6.7214   17.1684 C.ar      1 RES1    0.0000
     19 C10        0.8822    5.6308   16.5937 C.ar      1 RES1    0.0000
     20 C11        0.6970    5.5740   15.2141 C.ar      1 RES1    0.0000
     21 C12        1.0791    4.2117   11.9906 C.2       1 RES1    0.0000
     22 C13        0.8552    3.4793   10.6923 C.3       1 RES1    0.0000
     23 C14        2.2245    1.6884   14.0880 C.ar      1 RES1    0.0000
     24 C15        2.4746    0.2816   14.1306 C.ar      1 RES1    0.0000
     25 C16        2.7815   -0.3569   15.2838 C.ar      1 RES1    0.0000
     26 C17        2.8974    0.3668   16.4350 C.ar      1 RES1    0.0000
     27 C18        2.7268    1.7304   16.4312 C.ar      1 RES1    0.0000
     28 C19        2.4038    2.3714   15.3089 C.ar      1 RES1    0.0000
     29 H1         1.7498    1.8897   12.3253 H         1 RES1    0.0000
     30 H2         0.6854    8.8186   12.6736 H         1 RES1    0.0000
     31 H3        -0.6489    7.9170    9.4230 H         1 RES1    0.0000
     32 H4         0.3646    9.2756    9.8099 H         1 RES1    0.0000
     33 H5         0.8895    8.2258    9.2295 H         1 RES1    0.0000
     34 H6         1.9321    8.4851   14.5504 H         1 RES1    0.0000
     35 H7         2.1436    8.5222   16.7175 H         1 RES1    0.0000
     36 H8         1.4509    6.8548   18.1107 H         1 RES1    0.0000
     37 H9         0.5031    4.9528   17.1045 H         1 RES1    0.0000
     38 H10        0.1969    4.8663   14.7633 H         1 RES1    0.0000
     39 H11        0.2989    2.7172   10.7967 H         1 RES1    0.0000
     40 H12        0.3354    4.0017   10.1389 H         1 RES1    0.0000
     41 H13        1.5676    3.3348   10.5452 H         1 RES1    0.0000
     42 H14        3.0476   -1.1980   15.3825 H         1 RES1    0.0000
     43 H15        2.9237    2.1491   17.2400 H         1 RES1    0.0000
     44 H16        2.1581    3.1742   15.3051 H         1 RES1    0.0000
@<TRIPOS>BOND
     1    1   10 1
     2    2    8 2
     3    3    8 2
     4    4    9 2
     5    5    9 2
     6    6    7 1
     7    7   23 1
     8    8   24 1
     9    9   26 1
    10   10   11 2
    11   11   12 1
    12   12   13 2
    13   13    1 1
    14   14   13 1
    15   15   11 1
    16   16   15 ar
    17   17   16 ar
    18   18   17 ar
    19   19   18 ar
    20   20   15 ar
    21   21    6 2
    22   22   21 1
    23   23   24 ar
    24   24   25 ar
    25   25   26 ar
    26   26   27 ar
    27   27   28 ar
    28   28   23 ar
    29   29    7 1
    30   30   12 1
    31   31   14 1
    32   32   14 1
    33   33   14 1
    34   34   16 1
    35   35   17 1
    36   36   18 1
    37   37   19 1
    38   38   20 1
    39   39   22 1
    40   40   22 1
    41   41   22 1
    42   42   25 1
    43   43   27 1
    44   44   28 1
    45   10   21 1
    46   19   20 ar
@<TRIPOS>SUBSTRUCTURE
     1 RES1 1

@<TRIPOS>CRYSIN
   7.2910   12.3510   19.3490  90.0000  90.0000  90.0000  19 1

