# MOL2 file generated by ConQuest
# Please check atom types

@<TRIPOS>MOLECULE
JOZSAS
    23    21     2
SMALL
NO_CHARGES
****
Generated from CSD

@<TRIPOS>ATOM
      1 H1         8.0460    3.6844   -0.4535 H         1 RES1    0.0000
      2 H2         6.6393    2.8973   -0.5182 H         1 RES1    0.0000
      3 H3         7.5514    2.8877    0.7680 H         1 RES1    0.0000
      4 H4         4.6155    5.8955    0.9095 H         1 RES1    0.0000
      5 H5         5.0791    7.4137    0.8169 H         1 RES1    0.0000
      6 H6         4.5055    6.8654    1.8930 H         1 RES1    0.0000
      7 N1         7.1954    5.3356    1.1899 N.2       1 RES1    0.0000
      8 C1         6.5324    6.3572    1.5808 C.2       1 RES1    0.0000
      9 C2         7.2230    3.3777   -0.0238 C.3       1 RES1    0.0000
     10 C3         5.1379    6.6530    1.1856 C.3       1 RES1    0.0000
     11 O1         6.4260    4.5069    0.3575 O.3       1 RES1    0.0000
     12 C4         7.2780    7.2835    2.4614 Du        2 SUP2    0.0000
     13 C1B        7.2780    7.2835    2.4614 C.2       1 RES1    0.0000
     14 N1B        6.6150    8.3051    2.8523 N.2       1 RES1    0.0000
     15 C3B        8.6725    6.9877    2.8566 C.3       1 RES1    0.0000
     16 O1B        7.3844    9.1338    3.6848 O.3       1 RES1    0.0000
     17 H4B        9.1949    7.7452    3.1327 H         1 RES1    0.0000
     18 H5B        8.7313    6.2270    3.2253 H         1 RES1    0.0000
     19 H6B        9.3049    6.7753    2.1492 H         1 RES1    0.0000
     20 C2B        6.5874   10.2630    4.0661 C.3       1 RES1    0.0000
     21 H1B        5.7644    9.9563    4.4957 H         1 RES1    0.0000
     22 H2B        7.1711   10.7434    4.5604 H         1 RES1    0.0000
     23 H3B        6.2590   10.7530    3.2742 H         1 RES1    0.0000
@<TRIPOS>BOND
     1    1    9 1
     2    2    9 1
     3    3    9 1
     4    4   10 1
     5    5   10 1
     6    6   10 1
     7    7    8 2
     8    8   10 1
     9    9   11 1
    10   11    7 1
    11   13    8 1
    12   14   13 2
    13   15   13 1
    14   16   14 1
    15   17   15 1
    16   18   15 1
    17   19   15 1
    18   20   16 1
    19   21   20 1
    20   22   20 1
    21   23   20 1
@<TRIPOS>SUBSTRUCTURE
     1 RES1 1
     2 SUP2 12

@<TRIPOS>CRYSIN
   7.2611   13.6407    4.1044  90.0000  99.9870  90.0000  14 2

