# MOL2 file generated by ConQuest
# Please check atom types

@<TRIPOS>MOLECULE
JOZSIC
    48    52     1
SMALL
NO_CHARGES
****
Generated from CSD

@<TRIPOS>ATOM
      1 C1        -0.6138    4.1598    5.0261 C.ar      1 RES1    0.0000
      2 C2        -0.1982    4.5095    3.7607 C.ar      1 RES1    0.0000
      3 H1         0.6572    4.8520    3.6300 H         1 RES1    0.0000
      4 C3        -1.0582    4.3512    2.6772 C.ar      1 RES1    0.0000
      5 H2        -0.7696    4.5741    1.8209 H         1 RES1    0.0000
      6 C4        -2.3187    3.8746    2.8651 C.ar      1 RES1    0.0000
      7 H3        -2.8927    3.7823    2.1395 H         1 RES1    0.0000
      8 C5        -2.7405    3.5339    4.1157 C.ar      1 RES1    0.0000
      9 H4        -3.6041    3.2127    4.2397 H         1 RES1    0.0000
     10 C6        -1.8954    3.6635    5.1984 C.ar      1 RES1    0.0000
     11 H5        -2.1867    3.4176    6.0465 H         1 RES1    0.0000
     12 C7         0.2863    4.4244    6.2121 C.3       1 RES1    0.0000
     13 H6         1.1671    4.7165    5.8965 H         1 RES1    0.0000
     14 C8        -0.3124    5.4858    7.0758 C.3       1 RES1    0.0000
     15 H7        -0.6588    6.2065    6.5262 H         1 RES1    0.0000
     16 H8        -1.0457    5.1194    7.5942 H         1 RES1    0.0000
     17 C9         0.0699    8.3189    8.2298 C.2       1 RES1    0.0000
     18 C10       -0.5847    9.0548    9.3304 C.ar      1 RES1    0.0000
     19 C11       -0.9530   10.3774    9.4218 C.ar      1 RES1    0.0000
     20 H9        -0.7774   10.9752    8.7326 H         1 RES1    0.0000
     21 C12       -1.5987   10.7824   10.5870 C.ar      1 RES1    0.0000
     22 H10       -1.8696   11.6663   10.6716 H         1 RES1    0.0000
     23 C13       -1.8425    9.9072   11.6088 C.ar      1 RES1    0.0000
     24 H11       -2.2640   10.2111   12.3804 H         1 RES1    0.0000
     25 C14       -1.4725    8.5703   11.5175 C.ar      1 RES1    0.0000
     26 H12       -1.6426    7.9744   12.2103 H         1 RES1    0.0000
     27 C15       -0.8459    8.1629   10.3664 C.ar      1 RES1    0.0000
     28 C16       -0.3807    6.8157    9.9587 C.2       1 RES1    0.0000
     29 C17        2.5490    2.2176    6.5225 C.2       1 RES1    0.0000
     30 C18        2.8886    0.8745    5.9849 C.ar      1 RES1    0.0000
     31 C19        4.1243    0.2855    5.7792 C.ar      1 RES1    0.0000
     32 H13        4.9158    0.7363    5.9626 H         1 RES1    0.0000
     33 C20        4.1261   -1.0117    5.2861 C.ar      1 RES1    0.0000
     34 H14        4.9388   -1.4344    5.1323 H         1 RES1    0.0000
     35 C21        2.9586   -1.6880    5.0187 C.ar      1 RES1    0.0000
     36 H15        2.9964   -2.5597    4.6964 H         1 RES1    0.0000
     37 C22        1.7260   -1.0888    5.2229 C.ar      1 RES1    0.0000
     38 H16        0.9341   -1.5421    5.0402 H         1 RES1    0.0000
     39 C23        1.7172    0.1990    5.7049 C.ar      1 RES1    0.0000
     40 C24        0.5641    1.0617    6.0435 C.2       1 RES1    0.0000
     41 N1         0.1825    7.0168    8.7036 N.am      1 RES1    0.0000
     42 N2         1.1535    2.2704    6.4342 N.am      1 RES1    0.0000
     43 O1         0.7163    5.9881    7.9603 O.3       1 RES1    0.0000
     44 O2         0.4141    8.6846    7.1389 O.2       1 RES1    0.0000
     45 O3        -0.4570    5.7543   10.5201 O.2       1 RES1    0.0000
     46 O4        -0.6100    0.8235    6.0302 O.2       1 RES1    0.0000
     47 O5         3.2431    3.1001    6.9443 O.2       1 RES1    0.0000
     48 O6         0.4391    3.2665    7.0765 O.3       1 RES1    0.0000
@<TRIPOS>BOND
     1    1    2 ar
     2    2    3 1
     3    4    2 ar
     4    5    4 1
     5    6    4 ar
     6    7    6 1
     7    8    6 ar
     8    9    8 1
     9   10    1 ar
    10   11   10 1
    11   12    1 1
    12   13   12 1
    13   14   12 1
    14   15   14 1
    15   16   14 1
    16   17   18 1
    17   18   19 ar
    18   19   20 1
    19   21   19 ar
    20   22   21 1
    21   23   21 ar
    22   24   23 1
    23   25   23 ar
    24   26   25 1
    25   27   18 ar
    26   28   27 1
    27   29   30 1
    28   30   31 ar
    29   31   32 1
    30   33   31 ar
    31   34   33 1
    32   35   33 ar
    33   36   35 1
    34   37   35 ar
    35   38   37 1
    36   39   30 ar
    37   40   39 1
    38   41   17 1
    39   42   29 1
    40   43   14 1
    41   44   17 2
    42   45   28 2
    43   46   40 2
    44   47   29 2
    45   48   12 1
    46    8   10 ar
    47   25   27 ar
    48   28   41 1
    49   37   39 ar
    50   40   42 1
    51   41   43 1
    52   42   48 1
@<TRIPOS>SUBSTRUCTURE
     1 RES1 1

@<TRIPOS>CRYSIN
   8.0113   34.7315    8.1300  90.0000 114.0140  90.0000 231 1

