# MOL2 file generated by ConQuest
# Please check atom types

@<TRIPOS>MOLECULE
JOZZAB
    78    78     2
SMALL
NO_CHARGES
****
Generated from CSD

@<TRIPOS>ATOM
      1 C1         3.3910    3.2047    1.9985 C.ar      1 RES1    0.0000
      2 C2         2.3123    2.9730    1.1265 C.ar      1 RES1    0.0000
      3 C3         1.6284    1.7653    1.2350 C.ar      1 RES1    0.0000
      4 H1         0.8927    1.5819    0.6617 H         1 RES1    0.0000
      5 C4         2.0165    0.8376    2.1704 C.ar      1 RES1    0.0000
      6 C5         3.0806    1.0460    3.0232 C.ar      1 RES1    0.0000
      7 H2         3.3377    0.3879    3.6580 H         1 RES1    0.0000
      8 C6         3.7598    2.2457    2.9214 C.ar      1 RES1    0.0000
      9 H3         4.4953    2.4148    3.4986 H         1 RES1    0.0000
     10 C7         4.1938    4.4759    1.8948 C.2       1 RES1    0.0000
     11 C8         5.3389    6.2914    3.1548 C.3       1 RES1    0.0000
     12 C9         4.5925    7.4484    2.5104 C.3       1 RES1    0.0000
     13 H4         4.4894    7.2766    1.5510 H         1 RES1    0.0000
     14 H5         5.0979    8.2776    2.6429 H         1 RES1    0.0000
     15 H6         3.7073    7.5358    2.9233 H         1 RES1    0.0000
     16 C10        6.7050    6.0926    2.5017 C.3       1 RES1    0.0000
     17 H7         7.1452    5.3122    2.8974 H         1 RES1    0.0000
     18 H8         7.2565    6.8888    2.6506 H         1 RES1    0.0000
     19 H9         6.5901    5.9504    1.5394 H         1 RES1    0.0000
     20 C11        5.5158    6.5656    4.6395 C.3       1 RES1    0.0000
     21 H10        4.6423    6.7404    5.0457 H         1 RES1    0.0000
     22 H11        6.0953    7.3463    4.7614 H         1 RES1    0.0000
     23 H12        5.9263    5.7859    5.0697 H         1 RES1    0.0000
     24 C12        1.8504    3.9729    0.1008 C.3       1 RES1    0.0000
     25 H13        2.5610    4.0861   -0.5781 H         1 RES1    0.0000
     26 H14        1.0501    3.6142   -0.3582 H         1 RES1    0.0000
     27 C13        1.5178    5.3101    0.6819 C.2       1 RES1    0.0000
     28 C14        0.8141    7.4724    0.1796 C.3       1 RES1    0.0000
     29 H15        0.1003    7.3767    0.8442 H         1 RES1    0.0000
     30 H16        0.4883    8.0059   -0.5753 H         1 RES1    0.0000
     31 H17        1.5827    7.9201    0.5897 H         1 RES1    0.0000
     32 N1         4.5474    5.0532    3.0413 N.am      1 RES1    0.0000
     33 H18        4.2896    4.6670    3.7876 H         1 RES1    0.0000
     34 N2         1.2360   -0.4059    2.2952 N.pl3     1 RES1    0.0000
     35 O1         4.5034    4.9197    0.7797 O.2       1 RES1    0.0000
     36 O2         1.2079    6.1779   -0.2845 O.3       1 RES1    0.0000
     37 O3         1.5103    5.5995    1.8422 O.2       1 RES1    0.0000
     38 O4         0.2201   -0.5178    1.6144 O.2       1 RES1    0.0000
     39 O5         1.6112   -1.2564    3.0818 O.2       1 RES1    0.0000
     40 C15        4.9075   14.3584    3.9029 C.ar      2 RES2    0.0000
     41 C16        6.2453   13.9439    3.9864 C.ar      2 RES2    0.0000
     42 C17        7.1353   14.7445    4.6837 C.ar      2 RES2    0.0000
     43 H19        8.0446   14.4818    4.7682 H         2 RES2    0.0000
     44 C18        6.7025   15.9176    5.2541 C.ar      2 RES2    0.0000
     45 C19        5.3967   16.3414    5.1629 C.ar      2 RES2    0.0000
     46 H20        5.1221   17.1647    5.5489 H         2 RES2    0.0000
     47 C20        4.4954   15.5376    4.4935 C.ar      2 RES2    0.0000
     48 H21        3.5839   15.7973    4.4397 H         2 RES2    0.0000
     49 C21        3.9117   13.5530    3.1067 C.2       2 RES2    0.0000
     50 C22        1.9999   11.9411    3.2959 C.3       2 RES2    0.0000
     51 C23        1.5344   11.0731    4.4493 C.3       2 RES2    0.0000
     52 H22        2.2801   10.5190    4.7624 H         2 RES2    0.0000
     53 H23        0.8025   10.4958    4.1487 H         2 RES2    0.0000
     54 H24        1.2217   11.6433    5.1821 H         2 RES2    0.0000
     55 C24        0.8788   12.8623    2.8532 C.3       2 RES2    0.0000
     56 H25        0.6127   13.4361    3.6023 H         2 RES2    0.0000
     57 H26        0.1097   12.3279    2.5651 H         2 RES2    0.0000
     58 H27        1.1876   13.4200    2.1089 H         2 RES2    0.0000
     59 C25        2.4782   11.0606    2.1560 C.3       2 RES2    0.0000
     60 H28        2.7344   11.6219    1.3954 H         2 RES2    0.0000
     61 H29        1.7570   10.4547    1.8871 H         2 RES2    0.0000
     62 H30        3.2515   10.5369    2.4508 H         2 RES2    0.0000
     63 C26        6.7052   12.6772    3.3219 C.3       2 RES2    0.0000
     64 H31        6.3092   12.6425    2.4153 H         2 RES2    0.0000
     65 H32        7.6880   12.7247    3.2124 H         2 RES2    0.0000
     66 C27        6.3735   11.3950    4.0277 C.2       2 RES2    0.0000
     67 C28        5.4351   10.3635    5.9187 C.3       2 RES2    0.0000
     68 H33        4.7967    9.8559    5.3751 H         2 RES2    0.0000
     69 H34        5.0201   10.6030    6.7734 H         2 RES2    0.0000
     70 H35        6.2294    9.8148    6.0848 H         2 RES2    0.0000
     71 N3         3.1131   12.7733    3.8199 N.am      2 RES2    0.0000
     72 H36        3.2559   12.7462    4.6875 H         2 RES2    0.0000
     73 N4         7.6611   16.7379    5.9955 N.pl3     2 RES2    0.0000
     74 O6         3.8879   13.6531    1.8855 O.2       2 RES2    0.0000
     75 O7         5.8186   11.5686    5.2138 O.3       2 RES2    0.0000
     76 O8         6.6119   10.3181    3.5677 O.2       2 RES2    0.0000
     77 O9         8.7014   16.2143    6.3662 O.2       2 RES2    0.0000
     78 O10        7.3695   17.9077    6.2105 O.2       2 RES2    0.0000
@<TRIPOS>BOND
     1    1    2 ar
     2    2    3 ar
     3    3    4 1
     4    5    3 ar
     5    6    5 ar
     6    7    6 1
     7    8    1 ar
     8    9    8 1
     9   10    1 1
    10   11   12 1
    11   12   13 1
    12   14   12 1
    13   15   12 1
    14   16   11 1
    15   17   16 1
    16   18   16 1
    17   19   16 1
    18   20   11 1
    19   21   20 1
    20   22   20 1
    21   23   20 1
    22   24    2 1
    23   25   24 1
    24   26   24 1
    25   27   24 1
    26   28   29 1
    27   30   28 1
    28   31   28 1
    29   32   10 1
    30   33   32 1
    31   34    5 1
    32   35   10 2
    33   36   27 1
    34   37   27 2
    35   38   34 2
    36   39   34 2
    37   40   41 ar
    38   41   42 ar
    39   42   43 1
    40   44   42 ar
    41   45   44 ar
    42   46   45 1
    43   47   40 ar
    44   48   47 1
    45   49   40 1
    46   50   51 1
    47   51   52 1
    48   53   51 1
    49   54   51 1
    50   55   50 1
    51   56   55 1
    52   57   55 1
    53   58   55 1
    54   59   50 1
    55   60   59 1
    56   61   59 1
    57   62   59 1
    58   63   41 1
    59   64   63 1
    60   65   63 1
    61   66   63 1
    62   67   68 1
    63   69   67 1
    64   70   67 1
    65   71   49 1
    66   72   71 1
    67   73   44 1
    68   74   49 2
    69   75   66 1
    70   76   66 2
    71   77   73 2
    72   78   73 2
    73    6    8 ar
    74   11   32 1
    75   28   36 1
    76   45   47 ar
    77   50   71 1
    78   67   75 1
@<TRIPOS>SUBSTRUCTURE
     1 RES1 1
     2 RES2 40

@<TRIPOS>CRYSIN
  17.6047   17.8743    9.7826  90.0000 100.9790  90.0000  14 1

