# MOL2 file generated by ConQuest
# Please check atom types

@<TRIPOS>MOLECULE
JUBDIT
    43    45     1
SMALL
NO_CHARGES
****
Generated from CSD

@<TRIPOS>ATOM
      1 O1         4.1133    7.3524    7.3227 O.2       1 RES1    0.0000
      2 O2         1.9875    7.4393    7.4724 O.2       1 RES1    0.0000
      3 N1         3.0171    6.8596    7.1992 N.pl3     1 RES1    0.0000
      4 C1         2.9304    5.4625    6.6790 C.3       1 RES1    0.0000
      5 C2         1.9464    5.3120    5.5176 C.3       1 RES1    0.0000
      6 O3         0.6019    5.4425    5.9742 O.3       1 RES1    0.0000
      7 C3         2.0706    3.8860    5.0012 C.3       1 RES1    0.0000
      8 C4         1.2333    3.6498    3.7425 C.3       1 RES1    0.0000
      9 N2         1.6572    4.6295    2.7320 N.3       1 RES1    0.0000
     10 C5         1.3899    6.0062    3.1574 C.3       1 RES1    0.0000
     11 C6         2.2383    6.3007    4.3899 C.3       1 RES1    0.0000
     12 C7         1.4034    2.2441    3.2272 C.ar      1 RES1    0.0000
     13 C8         2.5146    1.8776    2.4875 C.ar      1 RES1    0.0000
     14 C9         2.6550    0.5896    2.0097 C.ar      1 RES1    0.0000
     15 C10        1.6930   -0.3581    2.2704 C.ar      1 RES1    0.0000
     16 C11        0.5991   -0.0151    3.0214 C.ar      1 RES1    0.0000
     17 C12        0.4531    1.2729    3.4992 C.ar      1 RES1    0.0000
     18 C13        1.6805    6.9771    2.0346 C.ar      1 RES1    0.0000
     19 C14        0.8184    8.0195    1.7714 C.ar      1 RES1    0.0000
     20 C15        1.0883    8.9249    0.7647 C.ar      1 RES1    0.0000
     21 C16        2.2058    8.8041   -0.0025 C.ar      1 RES1    0.0000
     22 C17        3.0771    7.7865    0.2557 C.ar      1 RES1    0.0000
     23 C18        2.8131    6.8789    1.2687 C.ar      1 RES1    0.0000
     24 H1         3.8657    5.2147    6.3984 H         1 RES1    0.0000
     25 H2         2.6657    4.9397    7.4151 H         1 RES1    0.0000
     26 H3         0.5434    6.1980    6.3023 H         1 RES1    0.0000
     27 H4         3.0174    3.6830    4.7916 H         1 RES1    0.0000
     28 H5         1.7629    3.2650    5.7048 H         1 RES1    0.0000
     29 H6         0.2741    3.7883    4.0007 H         1 RES1    0.0000
     30 H7         1.2374    4.4672    1.9922 H         1 RES1    0.0000
     31 H8         0.4739    6.0924    3.4044 H         1 RES1    0.0000
     32 H9         3.1993    6.2312    4.1292 H         1 RES1    0.0000
     33 H10        2.0817    7.1879    4.6856 H         1 RES1    0.0000
     34 H11        3.1578    2.5576    2.3066 H         1 RES1    0.0000
     35 H12        3.4354    0.3706    1.5157 H         1 RES1    0.0000
     36 H13        1.8165   -1.2370    1.9373 H         1 RES1    0.0000
     37 H14       -0.0300   -0.6297    3.2547 H         1 RES1    0.0000
     38 H15       -0.3208    1.5374    3.9845 H         1 RES1    0.0000
     39 H16        0.0358    8.0965    2.2866 H         1 RES1    0.0000
     40 H17        0.4752    9.5678    0.5788 H         1 RES1    0.0000
     41 H18        2.3909    9.4152   -0.7161 H         1 RES1    0.0000
     42 H19        3.8172    7.6397   -0.2969 H         1 RES1    0.0000
     43 H20        3.4649    6.2107    1.4321 H         1 RES1    0.0000
@<TRIPOS>BOND
     1    1    3 2
     2    2    3 2
     3    3    4 1
     4    4    5 1
     5    5    6 1
     6    6   26 1
     7    7    5 1
     8    8    7 1
     9    9    8 1
    10   10    9 1
    11   11    5 1
    12   12    8 1
    13   13   12 ar
    14   14   13 ar
    15   15   14 ar
    16   16   15 ar
    17   17   12 ar
    18   18   10 1
    19   19   18 ar
    20   20   19 ar
    21   21   20 ar
    22   22   21 ar
    23   23   18 ar
    24   24    4 1
    25   25    4 1
    26   27    7 1
    27   28    7 1
    28   29    8 1
    29   30    9 1
    30   31   10 1
    31   32   11 1
    32   33   11 1
    33   34   13 1
    34   35   14 1
    35   36   15 1
    36   37   16 1
    37   38   17 1
    38   39   19 1
    39   40   20 1
    40   41   21 1
    41   42   22 1
    42   43   23 1
    43   10   11 1
    44   16   17 ar
    45   22   23 ar
@<TRIPOS>SUBSTRUCTURE
     1 RES1 1

@<TRIPOS>CRYSIN
   5.5730   11.8520   13.4400  68.4200  89.4600  79.8200   2 1

