# MOL2 file generated by ConQuest
# Please check atom types

@<TRIPOS>MOLECULE
JUBDEP
    47    56     1
SMALL
NO_CHARGES
****
Generated from CSD

@<TRIPOS>ATOM
      1 O1         4.2435    0.0000    4.7703 O.3       1 RES1    0.0000
      2 O2         4.3067   -1.6965    3.2145 O.3       1 RES1    0.0000
      3 N1         4.0473   -0.5799    3.5978 N.2       1 RES1    0.0000
      4 C1         3.5040    0.0000    2.6634 C.3       1 RES1    0.0000
      5 C2         2.0347    0.0000    2.2793 C.3       1 RES1    0.0000
      6 O3         1.3470    0.0000    3.5314 O.3       1 RES1    0.0000
      7 C3         1.6761    1.2420    1.4824 C.3       1 RES1    0.0000
      8 C4         2.1655    1.2087    0.0348 C.3       1 RES1    0.0000
      9 N2         1.6044   -0.0000   -0.6005 N.2       1 RES1    0.0000
     10 C5         1.8448    2.4683   -0.7358 C.2       1 RES1    0.0000
     11 C6         0.6825    3.1814   -0.5511 C.2       1 RES1    0.0000
     12 C7         0.4546    4.3607   -1.2482 C.2       1 RES1    0.0000
     13 C8         1.3596    4.8231   -2.1317 C.2       1 RES1    0.0000
     14 C9         2.4893    4.1198   -2.3743 C.2       1 RES1    0.0000
     15 C10        2.7594    2.9424   -1.6772 C.2       1 RES1    0.0000
     16 H1         0.7215    1.3400    1.4755 H         1 RES1    0.0000
     17 H2         2.0716    2.0001    1.9191 H         1 RES1    0.0000
     18 H3         3.1254    1.1774    0.0309 H         1 RES1    0.0000
     19 H4         0.0222    2.8601    0.0680 H         1 RES1    0.0000
     20 H5        -0.3576    4.8485   -1.0960 H         1 RES1    0.0000
     21 H6         1.1983    5.6498   -2.5892 H         1 RES1    0.0000
     22 H7         3.1106    4.4430   -3.0313 H         1 RES1    0.0000
     23 H8         3.5705    2.4585   -1.8519 H         1 RES1    0.0000
     24 H9         3.7382   -0.9246    2.8126 H         1 RES1    0.0000
     25 H10        3.9787   -0.3193    1.8897 H         1 RES1    0.0000
     26 H11        1.8480   -0.0000   -1.4739 H         1 RES1    0.0000
     27 H12        0.5474    0.0000    3.3528 H         1 RES1    0.0000
     28 N1D        4.0473    0.5799    3.5978 N.2       1 RES1    0.0000
     29 O2D        4.3067    1.6965    3.2145 O.3       1 RES1    0.0000
     30 H9D        3.7382    0.9246    2.8126 H         1 RES1    0.0000
     31 C4D        2.1655   -1.2087    0.0348 C.3       1 RES1    0.0000
     32 C3D        1.6761   -1.2420    1.4824 C.3       1 RES1    0.0000
     33 H1D        0.7215   -1.3400    1.4755 H         1 RES1    0.0000
     34 H2D        2.0716   -2.0001    1.9191 H         1 RES1    0.0000
     35 C5D        1.8448   -2.4683   -0.7358 C.2       1 RES1    0.0000
     36 C6D        0.6825   -3.1814   -0.5511 C.2       1 RES1    0.0000
     37 C7D        0.4546   -4.3607   -1.2482 C.2       1 RES1    0.0000
     38 C8D        1.3596   -4.8231   -2.1317 C.2       1 RES1    0.0000
     39 C9D        2.4893   -4.1198   -2.3743 C.2       1 RES1    0.0000
     40 C10D       2.7594   -2.9424   -1.6772 C.2       1 RES1    0.0000
     41 H8D        3.5705   -2.4585   -1.8519 H         1 RES1    0.0000
     42 H7D        3.1106   -4.4430   -3.0313 H         1 RES1    0.0000
     43 H6D        1.1983   -5.6498   -2.5892 H         1 RES1    0.0000
     44 H5D       -0.3576   -4.8485   -1.0960 H         1 RES1    0.0000
     45 H4D        0.0222   -2.8601    0.0680 H         1 RES1    0.0000
     46 H3D        3.1254   -1.1774    0.0309 H         1 RES1    0.0000
     47 H10D       3.9787    0.3193    1.8897 H         1 RES1    0.0000
@<TRIPOS>BOND
     1    1    3 1
     2    2    3 1
     3    3    4 1
     4    4    5 1
     5    5    6 1
     6    6   27 1
     7    7    5 1
     8    8    7 1
     9    9    8 1
    10   10    8 1
    11   11   10 1
    12   12   11 1
    13   13   12 1
    14   14   13 1
    15   15   10 1
    16   16    7 1
    17   17    7 1
    18   18    8 1
    19   19   11 1
    20   20   12 1
    21   21   13 1
    22   22   14 1
    23   23   15 1
    24   24    2 1
    25   25    4 1
    26   26    9 1
    27   28    1 1
    28   29   28 1
    29   30    4 1
    30   31    9 1
    31   32    5 1
    32   33   32 1
    33   34   32 1
    34   35   31 1
    35   36   35 1
    36   37   36 1
    37   38   37 1
    38   39   38 1
    39   40   35 1
    40   41   40 1
    41   42   39 1
    42   43   38 1
    43   44   37 1
    44   45   36 1
    45   46   31 1
    46   47    4 1
    47    3   24 1
    48    3   28 1
    49    4   28 1
    50    4   24 1
    51   14   15 1
    52   25   47 1
    53   28   30 1
    54   29   30 1
    55   31   32 1
    56   39   40 1
@<TRIPOS>SUBSTRUCTURE
     1 RES1 1

@<TRIPOS>CRYSIN
  10.5480   19.5900    7.7290  90.0000  90.0000  90.0000  36 5

