# MOL2 file generated by ConQuest
# Please check atom types

@<TRIPOS>MOLECULE
JUBJUN
    64    66     1
SMALL
NO_CHARGES
****
Generated from CSD

@<TRIPOS>ATOM
      1 C1         7.3792    3.1412   11.1926 C.ar      1 RES1    0.0000
      2 C2         6.6446    4.2839   11.0552 C.ar      1 RES1    0.0000
      3 H1         5.9731    4.4727   11.6719 H         1 RES1    0.0000
      4 C3         6.8775    5.1577   10.0251 C.ar      1 RES1    0.0000
      5 H2         6.3765    5.9387    9.9579 H         1 RES1    0.0000
      6 C4         7.8377    4.8886    9.1037 C.ar      1 RES1    0.0000
      7 H3         7.9882    5.4798    8.4012 H         1 RES1    0.0000
      8 C5         8.5783    3.7572    9.2082 C.ar      1 RES1    0.0000
      9 H4         9.2362    3.5707    8.5786 H         1 RES1    0.0000
     10 C6         8.3504    2.8846   10.2512 C.ar      1 RES1    0.0000
     11 H5         8.8609    2.1114   10.3198 H         1 RES1    0.0000
     12 C7         7.1688    2.2188   12.3758 C.3       1 RES1    0.0000
     13 H6         7.9391    1.6356   12.4602 H         1 RES1    0.0000
     14 H7         7.1117    2.7512   13.1842 H         1 RES1    0.0000
     15 C8         5.9204    0.4973   11.1082 C.3       1 RES1    0.0000
     16 H8         6.7923    0.0882   10.9937 H         1 RES1    0.0000
     17 H9         5.7266    1.0116   10.3084 H         1 RES1    0.0000
     18 C9         4.8920   -0.5731   11.2627 C.3       1 RES1    0.0000
     19 H10        5.1878   -1.2196   11.9237 H         1 RES1    0.0000
     20 H11        4.7690   -1.0365   10.4200 H         1 RES1    0.0000
     21 C10        3.5865    0.0475   11.7005 C.3       1 RES1    0.0000
     22 H12        2.8977   -0.6341   11.7191 H         1 RES1    0.0000
     23 H13        3.3223    0.7245   11.0581 H         1 RES1    0.0000
     24 C11        3.7107    0.6861   13.0920 C.3       1 RES1    0.0000
     25 C12        4.9974    1.5124   13.1923 C.2       1 RES1    0.0000
     26 C13        3.7748   -0.4024   14.1994 C.3       1 RES1    0.0000
     27 H14        4.5106   -1.0049   14.0097 H         1 RES1    0.0000
     28 H15        3.9534    0.0237   15.0513 H         1 RES1    0.0000
     29 C14        2.4892   -1.2106   14.3101 C.3       1 RES1    0.0000
     30 H16        2.3692   -1.7362   13.5032 H         1 RES1    0.0000
     31 H17        2.5570   -1.8232   15.0598 H         1 RES1    0.0000
     32 C15        1.2930   -0.3041   14.5047 C.3       1 RES1    0.0000
     33 H18        1.3391    0.0949   15.3875 H         1 RES1    0.0000
     34 H19        0.4834   -0.8353   14.4604 H         1 RES1    0.0000
     35 C16        1.2189    0.8025   13.4646 C.3       1 RES1    0.0000
     36 H20        1.0544    0.4137   12.5918 H         1 RES1    0.0000
     37 H21        0.4777    1.3926   13.6749 H         1 RES1    0.0000
     38 C17        2.5084    1.6051   13.4270 C.3       1 RES1    0.0000
     39 H22        2.6565    1.9283   14.3402 H         1 RES1    0.0000
     40 C18        2.4773    2.8801   12.5101 C.3       1 RES1    0.0000
     41 H23        3.2680    2.8201   11.9351 H         1 RES1    0.0000
     42 C19        1.3042    2.9840   11.5918 C.2       1 RES1    0.0000
     43 H24        0.4480    3.0722   11.9409 H         1 RES1    0.0000
     44 C20        2.6666    4.1607   13.3752 C.3       1 RES1    0.0000
     45 H25        3.4014    3.9799   13.9982 H         1 RES1    0.0000
     46 C21        3.0699    5.3577   12.5546 C.2       1 RES1    0.0000
     47 C22        4.5593    7.1753   12.3901 C.3       1 RES1    0.0000
     48 H26        3.8065    7.7721   12.3844 H         1 RES1    0.0000
     49 H27        4.8409    7.0069   11.4873 H         1 RES1    0.0000
     50 H28        5.2807    7.5754   12.8808 H         1 RES1    0.0000
     51 C23        1.4536    4.5382   14.2129 C.2       1 RES1    0.0000
     52 C24        0.5543    6.2055   15.6236 C.3       1 RES1    0.0000
     53 H29        0.5774    5.7092   16.4448 H         1 RES1    0.0000
     54 H30       -0.3003    6.0879   15.2015 H         1 RES1    0.0000
     55 H31        0.6937    7.1368   15.8096 H         1 RES1    0.0000
     56 N1         5.9588    1.3959   12.2602 N.am      1 RES1    0.0000
     57 N2         1.4736    2.9547   10.3499 N.2       1 RES1    0.0000
     58 O1         5.1418    2.2960   14.1551 O.2       1 RES1    0.0000
     59 O2         2.4694    5.7590   11.6049 O.2       1 RES1    0.0000
     60 O3         4.1800    5.9240   13.0193 O.3       1 RES1    0.0000
     61 O4         0.4843    3.8691   14.3717 O.2       1 RES1    0.0000
     62 O5         1.6045    5.7251   14.7365 O.3       1 RES1    0.0000
     63 O6         0.2461    3.0813    9.6683 O.3       1 RES1    0.0000
     64 H32        0.3832    3.0982    8.8605 H         1 RES1    0.0000
@<TRIPOS>BOND
     1    1    2 ar
     2    2    3 1
     3    4    2 ar
     4    5    4 1
     5    6    4 ar
     6    7    6 1
     7    8    6 ar
     8    9    8 1
     9   10    1 ar
    10   11   10 1
    11   12    1 1
    12   13   12 1
    13   14   12 1
    14   15   16 1
    15   17   15 1
    16   18   15 1
    17   19   18 1
    18   20   18 1
    19   21   18 1
    20   22   21 1
    21   23   21 1
    22   24   21 1
    23   25   24 1
    24   26   24 1
    25   27   26 1
    26   28   26 1
    27   29   26 1
    28   30   29 1
    29   31   29 1
    30   32   29 1
    31   33   32 1
    32   34   32 1
    33   35   32 1
    34   36   35 1
    35   37   35 1
    36   38   24 1
    37   39   38 1
    38   40   38 1
    39   41   40 1
    40   42   40 1
    41   43   42 1
    42   44   40 1
    43   45   44 1
    44   46   44 1
    45   47   48 1
    46   49   47 1
    47   50   47 1
    48   51   44 1
    49   52   53 1
    50   54   52 1
    51   55   52 1
    52   56   12 1
    53   57   42 2
    54   58   25 2
    55   59   46 2
    56   60   46 1
    57   61   51 2
    58   62   51 1
    59   63   57 1
    60   64   63 1
    61    8   10 ar
    62   15   56 1
    63   25   56 1
    64   35   38 1
    65   47   60 1
    66   52   62 1
@<TRIPOS>SUBSTRUCTURE
     1 RES1 1

@<TRIPOS>CRYSIN
  14.4650   11.3032   15.4180  90.0000 111.8810  90.0000   9 1

