# MOL2 file generated by ConQuest
# Please check atom types

@<TRIPOS>MOLECULE
JUBKUO
    55    59     1
SMALL
NO_CHARGES
****
Generated from CSD

@<TRIPOS>ATOM
      1 C1       -10.9440   -1.8024   -2.8304 C.3       1 RES1    0.0000
      2 C2       -11.4717   -1.0925   -4.0889 C.3       1 RES1    0.0000
      3 H1       -10.7384   -0.5522   -4.4519 H         1 RES1    0.0000
      4 C3       -12.6947   -0.2177   -4.0302 C.3       1 RES1    0.0000
      5 H2       -12.9424    0.0102   -4.9388 H         1 RES1    0.0000
      6 H3       -12.4492    0.6080   -3.5837 H         1 RES1    0.0000
      7 C4       -13.9238   -0.7747   -3.3369 C.3       1 RES1    0.0000
      8 H4       -14.1036   -1.6837   -3.6568 H         1 RES1    0.0000
      9 C5       -13.8828   -0.7609   -1.8264 C.3       1 RES1    0.0000
     10 H5       -14.6437   -1.2592   -1.4883 H         1 RES1    0.0000
     11 H6       -13.9735    0.1559   -1.5209 H         1 RES1    0.0000
     12 C6       -12.6207   -1.3449   -1.2363 C.3       1 RES1    0.0000
     13 H7       -12.7901   -1.6267   -0.3133 H         1 RES1    0.0000
     14 C7       -12.0319   -2.5045   -2.0184 C.3       1 RES1    0.0000
     15 H8       -12.6943   -2.9165   -2.5941 H         1 RES1    0.0000
     16 H9       -11.6572   -3.1767   -1.4283 H         1 RES1    0.0000
     17 C8        -9.5072   -1.3713   -0.8747 C.3       1 RES1    0.0000
     18 H10       -8.8130   -1.9007   -1.2977 H         1 RES1    0.0000
     19 H11      -10.0236   -1.9583   -0.3003 H         1 RES1    0.0000
     20 C9        -9.9606   -2.7995   -3.4544 C.3       1 RES1    0.0000
     21 H12       -9.8605   -3.6204   -2.9283 H         1 RES1    0.0000
     22 C10      -10.5667   -3.0502   -4.8553 C.3       1 RES1    0.0000
     23 H13      -10.8138   -3.9903   -4.9793 H         1 RES1    0.0000
     24 C11       -8.3232   -2.5513   -5.0341 C.3       1 RES1    0.0000
     25 C12       -7.6213   -3.8878   -4.9767 C.3       1 RES1    0.0000
     26 H14       -8.1664   -4.5144   -4.4937 H         1 RES1    0.0000
     27 H15       -6.7779   -3.7877   -4.5302 H         1 RES1    0.0000
     28 H16       -7.4751   -4.2116   -5.8684 H         1 RES1    0.0000
     29 C13       -7.5008   -1.4588   -5.6125 C.3       1 RES1    0.0000
     30 H17       -6.7432   -1.2951   -5.0459 H         1 RES1    0.0000
     31 H18       -8.0285   -0.6608   -5.6778 H         1 RES1    0.0000
     32 H19       -7.1980   -1.7143   -6.4859 H         1 RES1    0.0000
     33 C14       -8.8777   -0.2950   -0.0483 C.ar      1 RES1    0.0000
     34 C15       -8.8451   -0.3999    1.3251 C.ar      1 RES1    0.0000
     35 H20       -9.2606   -1.1135    1.7533 H         1 RES1    0.0000
     36 C16       -8.1747    0.5870    2.0706 C.ar      1 RES1    0.0000
     37 H21       -8.1755    0.5330    2.9988 H         1 RES1    0.0000
     38 C17       -7.5392    1.6009    1.4766 C.ar      1 RES1    0.0000
     39 H22       -7.0639    2.2137    1.9909 H         1 RES1    0.0000
     40 C18       -7.5817    1.7418    0.1214 C.ar      1 RES1    0.0000
     41 H23       -7.1692    2.4674   -0.2898 H         1 RES1    0.0000
     42 C19       -8.2422    0.7969   -0.6345 C.ar      1 RES1    0.0000
     43 H24       -8.2632    0.8904   -1.5588 H         1 RES1    0.0000
     44 C20      -15.8919   -0.2992   -4.6229 C.2       1 RES1    0.0000
     45 C21      -16.9224    0.7309   -4.9023 C.3       1 RES1    0.0000
     46 H25      -17.3013    0.5768   -5.7705 H         1 RES1    0.0000
     47 H26      -16.5179    1.6015   -4.8788 H         1 RES1    0.0000
     48 H27      -17.6133    0.6805   -4.2378 H         1 RES1    0.0000
     49 N1       -10.3878   -0.8041   -1.9100 N.3       1 RES1    0.0000
     50 O1       -11.5865   -0.3070   -1.2468 O.3       1 RES1    0.0000
     51 O2       -11.6870   -2.1915   -4.9911 O.3       1 RES1    0.0000
     52 O3        -8.7219   -2.1568   -3.7195 O.3       1 RES1    0.0000
     53 O4        -9.5439   -2.6562   -5.7457 O.3       1 RES1    0.0000
     54 O5       -15.0331    0.1055   -3.6921 O.3       1 RES1    0.0000
     55 O6       -15.8187   -1.3545   -5.1464 O.2       1 RES1    0.0000
@<TRIPOS>BOND
     1    1    2 1
     2    2    3 1
     3    4    2 1
     4    5    4 1
     5    6    4 1
     6    7    4 1
     7    8    7 1
     8    9    7 1
     9   10    9 1
    10   11    9 1
    11   12    9 1
    12   13   12 1
    13   14    1 1
    14   15   14 1
    15   16   14 1
    16   17   18 1
    17   19   17 1
    18   20    1 1
    19   21   20 1
    20   22   20 1
    21   23   22 1
    22   24   25 1
    23   25   26 1
    24   27   25 1
    25   28   25 1
    26   29   24 1
    27   30   29 1
    28   31   29 1
    29   32   29 1
    30   33   17 1
    31   34   33 ar
    32   35   34 1
    33   36   34 ar
    34   37   36 1
    35   38   36 ar
    36   39   38 1
    37   40   38 ar
    38   41   40 1
    39   42   33 ar
    40   43   42 1
    41   44   45 1
    42   45   46 1
    43   47   45 1
    44   48   45 1
    45   49    1 1
    46   50   12 1
    47   51    2 1
    48   52   20 1
    49   53   22 1
    50   54    7 1
    51   55   44 2
    52   12   14 1
    53   17   49 1
    54   22   51 1
    55   24   52 1
    56   24   53 1
    57   40   42 ar
    58   44   54 1
    59   49   50 1
@<TRIPOS>SUBSTRUCTURE
     1 RES1 1

@<TRIPOS>CRYSIN
  12.8040    5.9960   13.7500  90.0000 108.2900  90.0000   4 1

