# MOL2 file generated by ConQuest
# Please check atom types

@<TRIPOS>MOLECULE
JUBLID
   100   102     3
SMALL
NO_CHARGES
****
Generated from CSD

@<TRIPOS>ATOM
      1 O1         6.8261    6.0375    9.8146 O.3       1 RES1    0.0000
      2 O2         8.0508    4.1610   10.2381 O.3       1 RES1    0.0000
      3 O3         5.4675    3.4816    7.7646 O.3       1 RES1    0.0000
      4 O4         4.2999    4.8688    6.4552 O.3       1 RES1    0.0000
      5 O5         5.8790    7.6039    6.0964 O.3       1 RES1    0.0000
      6 N1         5.9146    7.2254    7.4825 N.3       1 RES1    0.0000
      7 C1         4.6586    7.6448    8.0608 C.3       1 RES1    0.0000
      8 H1         4.6359    7.3727    8.9896 H         1 RES1    0.0000
      9 H2         3.9363    7.1865    7.6005 H         1 RES1    0.0000
     10 C2         5.3312    4.9076    5.4073 C.3       1 RES1    0.0000
     11 H3         5.0486    5.4804    4.6789 H         1 RES1    0.0000
     12 H4         5.4872    4.0178    5.0553 H         1 RES1    0.0000
     13 C3         6.6541    5.4722    6.0571 C.3       1 RES1    0.0000
     14 H5         7.4133    4.8544    5.9948 H         1 RES1    0.0000
     15 C4         6.9502    6.8306    5.5372 C.3       1 RES1    0.0000
     16 H6         7.8131    7.1456    5.8486 H         1 RES1    0.0000
     17 H7         6.9324    6.8490    4.5679 H         1 RES1    0.0000
     18 C5         5.0007    4.8238    7.6574 C.3       1 RES1    0.0000
     19 H8         4.4375    5.0754    8.4182 H         1 RES1    0.0000
     20 C6         6.2119    3.2833    8.9435 C.3       1 RES1    0.0000
     21 H9         6.4066    2.3382    9.0437 H         1 RES1    0.0000
     22 H10        5.6825    3.5616    9.7071 H         1 RES1    0.0000
     23 C7         7.5097    4.0628    8.9246 C.3       1 RES1    0.0000
     24 H11        8.1546    3.6516    8.3126 H         1 RES1    0.0000
     25 C8         7.2554    5.5111    8.5534 C.3       1 RES1    0.0000
     26 H12        8.0938    5.9387    8.2801 H         1 RES1    0.0000
     27 C9         6.1972    5.7443    7.5103 C.3       1 RES1    0.0000
     28 C10        7.5951    5.3986   10.8416 C.3       1 RES1    0.0000
     29 C11        6.6695    5.1245   12.0195 C.3       1 RES1    0.0000
     30 H13        6.3311    5.9550   12.3607 H         1 RES1    0.0000
     31 H14        7.1565    4.6683   12.7099 H         1 RES1    0.0000
     32 H15        5.9368    4.5742   11.7298 H         1 RES1    0.0000
     33 C12        8.8001    6.2087   11.2288 C.3       1 RES1    0.0000
     34 H16        9.3191    6.4071   10.4463 H         1 RES1    0.0000
     35 H17        9.3357    5.7075   11.8516 H         1 RES1    0.0000
     36 H18        8.5157    7.0270   11.6404 H         1 RES1    0.0000
     37 C13        4.4185    9.1463    7.9799 C.ar      1 RES1    0.0000
     38 C14        3.1379    9.5902    8.2504 C.ar      1 RES1    0.0000
     39 H19        2.4733    8.9786    8.4751 H         1 RES1    0.0000
     40 C15        2.8400   10.9465    8.1881 C.ar      1 RES1    0.0000
     41 H20        1.9740   11.2329    8.3668 H         1 RES1    0.0000
     42 C16        3.7828   11.8426    7.8767 C.ar      1 RES1    0.0000
     43 H21        3.5752   12.7488    7.8577 H         1 RES1    0.0000
     44 C17        5.0695   11.4171    7.5816 C.ar      1 RES1    0.0000
     45 H22        5.7218   12.0308    7.3297 H         1 RES1    0.0000
     46 C18        5.3723   10.0710    7.6601 C.ar      1 RES1    0.0000
     47 H23        6.2426    9.7887    7.4949 H         1 RES1    0.0000
     48 O6         1.0312   10.3922    3.5197 O.3       2 RES2    0.0000
     49 O7         1.1418   11.2616    1.3736 O.3       2 RES2    0.0000
     50 O8         3.3651   12.0144   -0.5629 O.3       2 RES2    0.0000
     51 O9         3.2921    9.7872   -0.1560 O.3       2 RES2    0.0000
     52 O10        4.4345    8.2094    3.0922 O.3       2 RES2    0.0000
     53 N2         3.1330    8.3240    2.4028 N.3       2 RES2    0.0000
     54 C19        4.1814    9.1586    4.1807 C.3       2 RES2    0.0000
     55 H24        5.0198    9.4716    4.5544 H         2 RES2    0.0000
     56 H25        3.6673    8.7351    4.8847 H         2 RES2    0.0000
     57 C20        3.4069   10.3206    3.5931 C.3       2 RES2    0.0000
     58 H26        3.9806   11.1061    3.4794 H         2 RES2    0.0000
     59 C21        2.9162    9.7825    2.2211 C.3       2 RES2    0.0000
     60 C22        2.1343   10.6724    4.3567 C.3       2 RES2    0.0000
     61 H27        2.0778   10.1446    5.1717 H         2 RES2    0.0000
     62 H28        2.1398   11.6114    4.6004 H         2 RES2    0.0000
     63 C23        1.4280   10.1569    2.2041 C.3       2 RES2    0.0000
     64 H29        0.9244    9.3857    1.8683 H         2 RES2    0.0000
     65 C24        2.1257   12.3090    1.4513 C.3       2 RES2    0.0000
     66 H30        2.2664   12.5504    2.3801 H         2 RES2    0.0000
     67 H31        1.8020   13.0925    0.9829 H         2 RES2    0.0000
     68 C25        3.4088   11.8712    0.8556 C.3       2 RES2    0.0000
     69 H32        4.1415   12.4113    1.2212 H         2 RES2    0.0000
     70 C26        3.7054   10.3799    1.0787 C.3       2 RES2    0.0000
     71 H33        4.6654   10.2408    1.2185 H         2 RES2    0.0000
     72 C27        3.5734   10.7502   -1.1806 C.3       2 RES2    0.0000
     73 C28        2.6036   10.5660   -2.3015 C.3       2 RES2    0.0000
     74 H34        1.7074   10.6213   -1.9631 H         2 RES2    0.0000
     75 H35        2.7411    9.7068   -2.7077 H         2 RES2    0.0000
     76 H36        2.7393   11.2534   -2.9595 H         2 RES2    0.0000
     77 C29        4.9928   10.6479   -1.6165 C.3       2 RES2    0.0000
     78 H37        5.2065   11.3884   -2.1878 H         2 RES2    0.0000
     79 H38        5.1205    9.8275   -2.0985 H         2 RES2    0.0000
     80 H39        5.5658   10.6601   -0.8475 H         2 RES2    0.0000
     81 C30        3.2736    7.4463    1.2645 C.3       2 RES2    0.0000
     82 H40        4.1360    7.5855    0.8448 H         2 RES2    0.0000
     83 H41        2.5821    7.6407    0.6119 H         2 RES2    0.0000
     84 C31        3.1520    5.9980    1.7259 C.ar      2 RES2    0.0000
     85 C32        4.3589    5.3802    1.4202 C.ar      2 RES2    0.0000
     86 H42        5.0450    5.8691    1.0262 H         2 RES2    0.0000
     87 C33        4.5401    4.0321    1.7031 C.ar      2 RES2    0.0000
     88 H43        5.3478    3.6168    1.4974 H         2 RES2    0.0000
     89 C34        3.5144    3.2997    2.2907 C.ar      2 RES2    0.0000
     90 H44        3.6360    2.3976    2.4803 H         2 RES2    0.0000
     91 C35        2.3075    3.9196    2.5967 C.ar      2 RES2    0.0000
     92 H45        1.6215    3.4306    2.9920 H         2 RES2    0.0000
     93 C36        2.1263    5.2677    2.3151 C.ar      2 RES2    0.0000
     94 H46        1.3187    5.6809    2.5182 H         2 RES2    0.0000
     95 H47        5.0536    9.0522    3.7691 Du        3 SUP3    0.0000
     96 H48        4.2754    9.2282    5.1419 Du        3 SUP3    0.0000
     97 O11        3.2245    8.0805    3.7772 Du        3 SUP3    0.0000
     98 C37        2.3155    7.3891    1.7302 Du        3 SUP3    0.0000
     99 H49        2.1368    7.6836    0.8231 Du        3 SUP3    0.0000
    100 H50        1.4704    7.2786    2.1932 Du        3 SUP3    0.0000
@<TRIPOS>BOND
     1    1   25 1
     2    2   23 1
     3    3   18 1
     4    4   10 1
     5    5    6 1
     6    6    7 1
     7    7    8 1
     8    9    7 1
     9   10   11 1
    10   12   10 1
    11   13   10 1
    12   14   13 1
    13   15    5 1
    14   16   15 1
    15   17   15 1
    16   18    4 1
    17   19   18 1
    18   20    3 1
    19   21   20 1
    20   22   20 1
    21   23   20 1
    22   24   23 1
    23   25   23 1
    24   26   25 1
    25   27    6 1
    26   28    1 1
    27   29   28 1
    28   30   29 1
    29   31   29 1
    30   32   29 1
    31   33   28 1
    32   34   33 1
    33   35   33 1
    34   36   33 1
    35   37    7 1
    36   38   37 ar
    37   39   38 1
    38   40   38 ar
    39   41   40 1
    40   42   40 ar
    41   43   42 1
    42   44   42 ar
    43   45   44 1
    44   46   37 ar
    45   47   46 1
    46   48   60 1
    47   49   63 1
    48   50   68 1
    49   51   70 1
    50   52   53 1
    51   53   59 1
    52   54   52 1
    53   55   54 1
    54   56   54 1
    55   57   54 1
    56   58   57 1
    57   59   57 1
    58   60   57 1
    59   61   60 1
    60   62   60 1
    61   63   48 1
    62   64   63 1
    63   65   49 1
    64   66   65 1
    65   67   65 1
    66   68   65 1
    67   69   68 1
    68   70   59 1
    69   71   70 1
    70   72   50 1
    71   73   72 1
    72   74   73 1
    73   75   73 1
    74   76   73 1
    75   77   72 1
    76   78   77 1
    77   79   77 1
    78   80   77 1
    79   81   53 1
    80   82   81 1
    81   83   81 1
    82   84   81 1
    83   85   84 ar
    84   86   85 1
    85   87   85 ar
    86   88   87 1
    87   89   87 ar
    88   90   89 1
    89   91   89 ar
    90   92   91 1
    91   93   84 ar
    92   94   93 1
    93    2   28 1
    94   13   15 1
    95   13   27 1
    96   18   27 1
    97   25   27 1
    98   44   46 ar
    99   51   72 1
   100   59   63 1
   101   68   70 1
   102   91   93 ar
@<TRIPOS>SUBSTRUCTURE
     1 RES1 1
     2 RES2 48
     3 SUP3 95

@<TRIPOS>CRYSIN
   6.1419   20.4570   27.0770  90.0000  90.0000  90.0000  19 1

