# MOL2 file generated by ConQuest
# Please check atom types

@<TRIPOS>MOLECULE
JUBLOJ
    80    70     2
SMALL
NO_CHARGES
****
Generated from CSD

@<TRIPOS>ATOM
      1 C1         6.5438    7.6323    4.2041 C.3       1 RES1    0.0000
      2 H1         7.0290    6.8931    3.7828 H         1 RES1    0.0000
      3 C2         5.0188    7.3815    4.1407 C.3       1 RES1    0.0000
      4 C3         4.6010    7.2271    5.6070 C.3       1 RES1    0.0000
      5 H2         3.7356    7.6585    5.7675 H         1 RES1    0.0000
      6 C4         5.7086    7.9691    6.3306 C.3       1 RES1    0.0000
      7 H3         5.5108    8.9282    6.3085 H         1 RES1    0.0000
      8 C5         6.0190    7.5780    7.7369 C.3       1 RES1    0.0000
      9 H4         6.1289    6.6152    7.7953 H         1 RES1    0.0000
     10 H5         6.8459    7.9972    8.0226 H         1 RES1    0.0000
     11 C6         5.1073    7.5714    9.8981 C.3       1 RES1    0.0000
     12 H6         5.9751    7.8540   10.2255 H         1 RES1    0.0000
     13 H7         5.0760    6.6030    9.9322 H         1 RES1    0.0000
     14 C7         4.0403    8.1319   10.7756 C.ar      1 RES1    0.0000
     15 C8         3.9210    7.6912   12.0669 C.ar      1 RES1    0.0000
     16 H8         4.5132    7.0493   12.3874 H         1 RES1    0.0000
     17 C9         2.9489    8.1759   12.8966 C.ar      1 RES1    0.0000
     18 H9         2.8770    7.8475   13.7651 H         1 RES1    0.0000
     19 C10        2.1198    9.0947   12.4852 C.ar      1 RES1    0.0000
     20 H10        1.4519    9.4138   13.0490 H         1 RES1    0.0000
     21 C11        3.1944    9.0788   10.3755 C.ar      1 RES1    0.0000
     22 H11        3.2431    9.4100    9.5094 H         1 RES1    0.0000
     23 C12        5.6516    9.5831    3.3782 C.3       1 RES1    0.0000
     24 H12        5.6153   10.5038    3.2463 H         1 RES1    0.0000
     25 C13        4.4816    8.6624    3.4639 C.3       1 RES1    0.0000
     26 H13        3.7582    9.0620    3.9920 H         1 RES1    0.0000
     27 C14        3.9680    8.1516    2.1408 C.3       1 RES1    0.0000
     28 H14        3.0053    8.0355    2.1688 H         1 RES1    0.0000
     29 H15        4.1857    8.7710    1.4277 H         1 RES1    0.0000
     30 C15        5.3292    5.0966    3.1486 C.3       1 RES1    0.0000
     31 H16        5.4978    4.7373    4.0352 H         1 RES1    0.0000
     32 H17        6.1848    5.3174    2.7507 H         1 RES1    0.0000
     33 C16        4.6515    4.0524    2.3161 C.ar      1 RES1    0.0000
     34 C17        3.4962    3.4610    2.7462 C.ar      1 RES1    0.0000
     35 H18        3.1255    3.7184    3.5600 H         1 RES1    0.0000
     36 C18        2.8728    2.4926    1.9960 C.ar      1 RES1    0.0000
     37 H19        2.0980    2.0875    2.3120 H         1 RES1    0.0000
     38 C19        3.3900    2.1258    0.7888 C.ar      1 RES1    0.0000
     39 H20        2.9537    1.4961    0.2637 H         1 RES1    0.0000
     40 C20        4.5252    2.6798    0.3728 C.ar      1 RES1    0.0000
     41 H21        4.9000    2.4140   -0.4342 H         1 RES1    0.0000
     42 C21        5.1480    3.6407    1.1298 C.ar      1 RES1    0.0000
     43 H22        5.9361    4.0206    0.8161 H         1 RES1    0.0000
     44 C22        3.6983    5.5354    7.0155 C.3       1 RES1    0.0000
     45 H23        2.9361    6.1371    7.0292 H         1 RES1    0.0000
     46 H24        4.1601    5.6047    7.8635 H         1 RES1    0.0000
     47 C23        2.2428    9.5700   11.2508 C.ar      1 RES1    0.0000
     48 H25        1.6742   10.2493   10.9689 H         1 RES1    0.0000
     49 N1         4.5320    6.3064    3.2695 N.3       1 RES1    0.0000
     50 O1         6.8794    7.7277    5.5592 O.3       1 RES1    0.0000
     51 O2         4.6170    6.9024    1.9360 O.3       1 RES1    0.0000
     52 O3         4.5522    5.8657    5.9718 O.3       1 RES1    0.0000
     53 O4         4.9552    7.9925    8.5737 O.3       1 RES1    0.0000
     54 O5         6.7975    8.8309    3.5280 O.3       1 RES1    0.0000
     55 C24        3.0706    4.0327    6.6131 C.ar      1 RES1    0.0000
     56 C25        4.1279    3.2936    7.2042 C.ar      1 RES1    0.0000
     57 H26        4.9083    3.7249    7.4770 H         1 RES1    0.0000
     58 C26        3.9782    1.9705    7.3656 C.ar      1 RES1    0.0000
     59 H27        4.6324    1.4802    7.8135 H         1 RES1    0.0000
     60 C27        2.8820    1.3474    6.8791 C.ar      1 RES1    0.0000
     61 H28        2.8023    0.4239    6.9428 H         1 RES1    0.0000
     62 C28        1.8944    2.0678    6.2971 C.ar      1 RES1    0.0000
     63 H29        1.1224    1.6365    6.0084 H         1 RES1    0.0000
     64 C29        2.0091    3.3591    6.1335 C.ar      1 RES1    0.0000
     65 H30        1.3480    3.8278    5.6765 H         1 RES1    0.0000
     66 C30        3.2542    4.1637    6.7927 Du        2 SUP2    0.0000
     67 C31        3.8203    3.0409    7.1610 Du        2 SUP2    0.0000
     68 H31        4.5654    3.0915    7.7225 Du        2 SUP2    0.0000
     69 C32        3.3429    1.7216    6.7859 Du        2 SUP2    0.0000
     70 H32        3.8484    0.9591    6.9473 Du        2 SUP2    0.0000
     71 C33        2.1456    1.6468    6.1835 Du        2 SUP2    0.0000
     72 H33        1.7691    0.8243    5.9857 Du        2 SUP2    0.0000
     73 C34        1.4924    2.8070    5.8675 Du        2 SUP2    0.0000
     74 H34        0.6699    2.7555    5.4356 Du        2 SUP2    0.0000
     75 C35        2.0123    4.0262    6.1630 Du        2 SUP2    0.0000
     76 H35        1.5274    4.7888    5.9425 Du        2 SUP2    0.0000
     77 C36        3.1748    5.4877    6.3699 Du        2 SUP2    0.0000
     78 H36        2.9292    5.9668    7.1769 Du        2 SUP2    0.0000
     79 H37        2.5539    5.7431    5.6697 Du        2 SUP2    0.0000
     80 H38        3.6021    6.0837    3.4873 Du        2 SUP2    0.0000
@<TRIPOS>BOND
     1    1    2 1
     2    3    1 1
     3    4    3 1
     4    5    4 1
     5    6    4 1
     6    7    6 1
     7    8    6 1
     8    9    8 1
     9   10    8 1
    10   11   12 1
    11   13   11 1
    12   14   11 1
    13   15   14 ar
    14   16   15 1
    15   17   15 ar
    16   18   17 1
    17   19   17 ar
    18   20   19 1
    19   21   14 ar
    20   22   21 1
    21   23   24 1
    22   25    3 1
    23   26   25 1
    24   27   25 1
    25   28   27 1
    26   29   27 1
    27   30   31 1
    28   32   30 1
    29   33   30 1
    30   34   33 ar
    31   35   34 1
    32   36   34 ar
    33   37   36 1
    34   38   36 ar
    35   39   38 1
    36   40   38 ar
    37   41   40 1
    38   42   33 ar
    39   43   42 1
    40   44   45 1
    41   46   44 1
    42   47   19 ar
    43   48   47 1
    44   49    3 1
    45   50    1 1
    46   51   27 1
    47   52    4 1
    48   53    8 1
    49   54    1 1
    50   55   44 1
    51   56   55 ar
    52   57   56 1
    53   58   56 ar
    54   59   58 1
    55   60   58 ar
    56   61   60 1
    57   62   60 ar
    58   63   62 1
    59   64   55 ar
    60   65   64 1
    61    6   50 1
    62   11   53 1
    63   21   47 ar
    64   23   25 1
    65   23   54 1
    66   30   49 1
    67   40   42 ar
    68   44   52 1
    69   49   51 1
    70   62   64 ar
@<TRIPOS>SUBSTRUCTURE
     1 RES1 1
     2 SUP2 66

@<TRIPOS>CRYSIN
   5.8763    9.3567   22.8256  90.0000  95.1520  90.0000   4 1

