# MOL2 file generated by ConQuest
# Please check atom types

@<TRIPOS>MOLECULE
JUBMAW
    65    65     2
SMALL
NO_CHARGES
****
Generated from CSD

@<TRIPOS>ATOM
      1 C1         1.4955    5.1963    1.5120 C.3       1 RES1    0.0000
      2 H1         0.7417    4.9913    2.1044 H         1 RES1    0.0000
      3 C2         2.0277    6.5560    1.8392 C.3       1 RES1    0.0000
      4 H2         1.3030    7.1711    2.0318 H         1 RES1    0.0000
      5 H3         2.5509    6.9069    1.1016 H         1 RES1    0.0000
      6 C3         2.9047    6.3509    3.0745 C.3       1 RES1    0.0000
      7 H4         3.7172    6.8970    3.0261 H         1 RES1    0.0000
      8 C4         2.6335    4.2621    1.8140 C.3       1 RES1    0.0000
      9 H5         2.3465    3.3290    1.9024 H         1 RES1    0.0000
     10 C5         3.2525    4.8279    3.1145 C.3       1 RES1    0.0000
     11 C6         2.1976    6.5472    4.3887 C.3       1 RES1    0.0000
     12 H6         2.8246    6.8104    5.0810 H         1 RES1    0.0000
     13 H7         1.5114    7.2292    4.3119 H         1 RES1    0.0000
     14 C7         4.7286    4.5691    2.9388 C.3       1 RES1    0.0000
     15 H8         5.2843    5.2281    3.4059 H         1 RES1    0.0000
     16 C8         4.9255    4.6020    1.4268 C.3       1 RES1    0.0000
     17 H9         5.3220    5.4551    1.1521 H         1 RES1    0.0000
     18 C9         5.9436    2.7029    2.2717 C.3       1 RES1    0.0000
     19 C10        5.5454    1.3279    1.9623 C.3       1 RES1    0.0000
     20 H10        5.6627    0.7774    2.7399 H         1 RES1    0.0000
     21 H11        6.0901    0.9901    1.2468 H         1 RES1    0.0000
     22 H12        4.6233    1.3136    1.6961 H         1 RES1    0.0000
     23 C11        7.3821    2.8158    2.7325 C.3       1 RES1    0.0000
     24 H13        7.5780    3.7303    2.9493 H         1 RES1    0.0000
     25 H14        7.9666    2.5209    2.0307 H         1 RES1    0.0000
     26 H15        7.5130    2.2676    3.5090 H         1 RES1    0.0000
     27 C12        2.1983    3.0702    4.5265 C.3       1 RES1    0.0000
     28 H16        2.8377    2.4309    4.1761 H         1 RES1    0.0000
     29 H17        1.3932    3.0165    3.9878 H         1 RES1    0.0000
     30 C13        1.8659    2.7127    5.9680 C.ar      1 RES1    0.0000
     31 C14        0.8316    1.8728    6.2290 C.ar      1 RES1    0.0000
     32 H18        0.3146    1.5450    5.5292 H         1 RES1    0.0000
     33 C15        0.5374    1.4956    7.5473 C.ar      1 RES1    0.0000
     34 H19       -0.1535    0.8991    7.7241 H         1 RES1    0.0000
     35 C16        1.2953    2.0274    8.5859 C.ar      1 RES1    0.0000
     36 H20        1.0984    1.8092    9.4686 H         1 RES1    0.0000
     37 C17        2.5835    3.1941    7.0286 C.ar      1 RES1    0.0000
     38 H21        3.2875    3.7785    6.8634 H         1 RES1    0.0000
     39 C18        2.3065    2.8542    8.3091 C.ar      1 RES1    0.0000
     40 H22        2.8254    3.1974    9.0004 H         1 RES1    0.0000
     41 C19        0.1712    4.3717   -0.1368 C.3       1 RES1    0.0000
     42 H23       -0.4908    4.2336    0.5577 H         1 RES1    0.0000
     43 H24        0.6760    3.5527   -0.2609 H         1 RES1    0.0000
     44 C20       -0.5200    4.8367   -1.5109 C.ar      1 RES1    0.0000
     45 C21       -1.8522    4.8794   -1.7414 C.ar      1 RES1    0.0000
     46 H25       -2.4449    4.9397   -1.0280 H         1 RES1    0.0000
     47 C22       -2.3395    4.8334   -3.0513 C.ar      1 RES1    0.0000
     48 H26       -3.2525    4.8948   -3.2176 H         1 RES1    0.0000
     49 C23       -1.4763    4.7007   -4.0593 C.ar      1 RES1    0.0000
     50 H27       -1.8008    4.6382   -4.9284 H         1 RES1    0.0000
     51 C24       -0.1742    4.6568   -3.8521 C.ar      1 RES1    0.0000
     52 H28        0.4105    4.5735   -4.5707 H         1 RES1    0.0000
     53 C25        0.3080    4.7325   -2.5873 C.ar      1 RES1    0.0000
     54 H29        1.2285    4.7139   -2.4505 H         1 RES1    0.0000
     55 N1         2.7466    4.3926    4.4339 N.3       1 RES1    0.0000
     56 O1         1.0057    5.4255    0.1747 O.3       1 RES1    0.0000
     57 O2         3.6624    4.4353    0.8342 O.3       1 RES1    0.0000
     58 O3         5.7829    3.5592    1.1353 O.3       1 RES1    0.0000
     59 O4         5.0718    3.2358    3.2707 O.3       1 RES1    0.0000
     60 O5         1.6204    5.2862    4.6875 O.3       1 RES1    0.0000
     61 H30        0.7777    5.0000    2.1496 Du        2 SUP2    0.0000
     62 C26       -0.1565    5.4123   -0.1589 Du        2 SUP2    0.0000
     63 H31       -0.0100    6.3696   -0.2125 Du        2 SUP2    0.0000
     64 H32       -0.8485    5.2325    0.4966 Du        2 SUP2    0.0000
     65 O6         1.0380    4.7314    0.1631 Du        2 SUP2    0.0000
@<TRIPOS>BOND
     1    1    2 1
     2    3    1 1
     3    4    3 1
     4    5    3 1
     5    6    3 1
     6    7    6 1
     7    8    1 1
     8    9    8 1
     9   10    6 1
    10   11    6 1
    11   12   11 1
    12   13   11 1
    13   14   10 1
    14   15   14 1
    15   16   14 1
    16   17   16 1
    17   18   19 1
    18   19   20 1
    19   21   19 1
    20   22   19 1
    21   23   18 1
    22   24   23 1
    23   25   23 1
    24   26   23 1
    25   27   28 1
    26   29   27 1
    27   30   27 1
    28   31   30 ar
    29   32   31 1
    30   33   31 ar
    31   34   33 1
    32   35   33 ar
    33   36   35 1
    34   37   30 ar
    35   38   37 1
    36   39   35 ar
    37   40   39 1
    38   41   42 1
    39   43   41 1
    40   44   41 1
    41   45   44 ar
    42   46   45 1
    43   47   45 ar
    44   48   47 1
    45   49   47 ar
    46   50   49 1
    47   51   49 ar
    48   52   51 1
    49   53   44 ar
    50   54   53 1
    51   55   10 1
    52   56    1 1
    53   57    8 1
    54   58   16 1
    55   59   14 1
    56   60   11 1
    57    8   10 1
    58   16   57 1
    59   18   58 1
    60   18   59 1
    61   27   55 1
    62   37   39 ar
    63   41   56 1
    64   51   53 ar
    65   55   60 1
@<TRIPOS>SUBSTRUCTURE
     1 RES1 1
     2 SUP2 61

@<TRIPOS>CRYSIN
   9.6600   10.9650   10.5990  90.0000  96.9160  90.0000   4 1

