# MOL2 file generated by ConQuest
# Please check atom types

@<TRIPOS>MOLECULE
JUBNEB
   105   108     3
SMALL
NO_CHARGES
****
Generated from CSD

@<TRIPOS>ATOM
      1 C1         2.4315   11.9773   -0.0070 C.ar      1 RES1    0.0000
      2 H1         2.4937   11.0308    0.0151 H         1 RES1    0.0000
      3 C2         1.3229   12.5849   -0.5869 C.ar      1 RES1    0.0000
      4 H2         0.6340   12.0510   -0.9651 H         1 RES1    0.0000
      5 C3         1.2224   13.9677   -0.6144 C.ar      1 RES1    0.0000
      6 H3         0.4613   14.3798   -1.0066 H         1 RES1    0.0000
      7 C4         2.2307   14.7520   -0.0697 C.ar      1 RES1    0.0000
      8 H4         2.1589   15.6999   -0.0843 H         1 RES1    0.0000
      9 C5         3.3448   14.1467    0.4974 C.ar      1 RES1    0.0000
     10 H5         4.0401   14.6843    0.8581 H         1 RES1    0.0000
     11 C6         3.4519   12.7544    0.5413 C.ar      1 RES1    0.0000
     12 C7         4.6558   12.1107    1.1853 C.3       1 RES1    0.0000
     13 H6         5.4211   12.7371    1.1324 H         1 RES1    0.0000
     14 H7         4.8955   11.2966    0.6757 H         1 RES1    0.0000
     15 C8         4.4220   11.7233    2.6741 C.3       1 RES1    0.0000
     16 C9         3.6091   10.4369    2.7376 C.2       1 RES1    0.0000
     17 C10        1.6777   11.6749    3.6423 C.2       1 RES1    0.0000
     18 C11        3.7739   12.9143    3.3717 C.2       1 RES1    0.0000
     19 C12        1.5097    9.2827    3.1595 C.3       1 RES1    0.0000
     20 H8         1.7309    8.7588    2.3618 H         1 RES1    0.0000
     21 H9         0.5547    9.5040    3.1507 H         1 RES1    0.0000
     22 H10        1.7163    8.7588    3.9623 H         1 RES1    0.0000
     23 C13        1.8171   14.0315    4.2916 C.3       1 RES1    0.0000
     24 H11        2.3735   14.3934    5.0117 H         1 RES1    0.0000
     25 H12        0.9329   13.8027    4.6468 H         1 RES1    0.0000
     26 H13        1.7205   14.7024    3.5848 H         1 RES1    0.0000
     27 N1         2.3004   10.5221    3.1647 N.am      1 RES1    0.0000
     28 N2         2.4527   12.8253    3.7393 N.am      1 RES1    0.0000
     29 N3         5.7264   11.4268    3.2405 N.3       1 RES1    0.0000
     30 H14        6.1966   12.2282    3.3004 H         1 RES1    0.0000
     31 O1         4.0837    9.3811    2.3940 O.2       1 RES1    0.0000
     32 O2         0.5158   11.6615    3.9876 O.2       1 RES1    0.0000
     33 O3         4.3970   13.9383    3.5560 O.2       1 RES1    0.0000
     34 O4         5.4976   11.0840    4.6332 O.3       1 RES1    0.0000
     35 H15        5.7883   10.2379    4.7185 H         1 RES1    0.0000
     36 C14        2.7763   13.0559    9.4507 C.ar      2 RES2    0.0000
     37 H16        2.6209   13.4664   10.2939 H         2 RES2    0.0000
     38 C15        1.7071   12.7848    8.6123 C.ar      2 RES2    0.0000
     39 H17        0.8248   13.0143    8.8796 H         2 RES2    0.0000
     40 C16        1.9212   12.1784    7.3813 C.ar      2 RES2    0.0000
     41 H18        1.1868   11.9828    6.8110 H         2 RES2    0.0000
     42 C17        3.2140   11.8592    6.9894 C.ar      2 RES2    0.0000
     43 H19        3.3655   11.4534    6.1441 H         2 RES2    0.0000
     44 C18        4.2879   12.1318    7.8287 C.ar      2 RES2    0.0000
     45 H20        5.1694   11.9078    7.5546 H         2 RES2    0.0000
     46 C19        4.0824   12.7319    9.0700 C.ar      2 RES2    0.0000
     47 C20        5.2439   13.0113    9.9900 C.3       2 RES2    0.0000
     48 H21        5.9548   12.3440    9.8132 H         2 RES2    0.0000
     49 H22        4.9439   12.8871   10.9243 H         2 RES2    0.0000
     50 C21        5.8579   14.4455    9.8506 C.3       2 RES2    0.0000
     51 C22        4.8234   15.4370   10.3510 C.2       2 RES2    0.0000
     52 C23        4.2199   15.9200    8.0123 C.2       2 RES2    0.0000
     53 C24        6.2639   14.6493    8.3969 C.2       2 RES2    0.0000
     54 C25        2.8361   16.7686    9.8142 C.3       2 RES2    0.0000
     55 H23        2.8077   16.8109   10.7934 H         2 RES2    0.0000
     56 H24        2.0296   16.3201    9.4823 H         2 RES2    0.0000
     57 H25        2.8773   17.6765    9.4496 H         2 RES2    0.0000
     58 C26        5.7075   15.3257    6.1393 C.3       2 RES2    0.0000
     59 H26        6.5165   15.8544    5.9818 H         2 RES2    0.0000
     60 H27        4.9566   15.7249    5.6521 H         2 RES2    0.0000
     61 H28        5.8505   14.4093    5.8245 H         2 RES2    0.0000
     62 N4         4.0241   16.0166    9.3902 N.am      2 RES2    0.0000
     63 N5         5.4058   15.3091    7.5783 N.am      2 RES2    0.0000
     64 N6         7.0110   14.4766   10.7411 N.3       2 RES2    0.0000
     65 H29        7.6782   13.9390   10.3354 H         2 RES2    0.0000
     66 O5         4.6519   15.6240   11.5332 O.2       2 RES2    0.0000
     67 O6         3.4192   16.3697    7.2337 O.2       2 RES2    0.0000
     68 O7         7.2988   14.1585    7.9716 O.2       2 RES2    0.0000
     69 O8         7.5759   15.8110   10.6364 O.3       2 RES2    0.0000
     70 H30        7.5543   16.0997   11.4477 H         2 RES2    0.0000
     71 C27       11.5649   14.5868    0.5351 C.ar      3 RES3    0.0000
     72 H31       11.1261   15.0183   -0.1887 H         3 RES3    0.0000
     73 C28       12.9297   14.7529    0.7117 C.ar      3 RES3    0.0000
     74 H32       13.4187   15.3045    0.1132 H         3 RES3    0.0000
     75 C29       13.5869   14.1199    1.7555 C.ar      3 RES3    0.0000
     76 H33       14.5228   14.2344    1.8698 H         3 RES3    0.0000
     77 C30       12.8732   13.3210    2.6308 C.ar      3 RES3    0.0000
     78 H34       13.3204   12.8803    3.3445 H         3 RES3    0.0000
     79 C31       11.4995   13.1618    2.4671 C.ar      3 RES3    0.0000
     80 H35       11.0125   12.6212    3.0777 H         3 RES3    0.0000
     81 C32       10.8339   13.7893    1.4159 C.ar      3 RES3    0.0000
     82 C33        9.3363   13.6416    1.2428 C.3       3 RES3    0.0000
     83 H36        9.0720   12.7303    1.5275 H         3 RES3    0.0000
     84 H37        9.1161   13.7300    0.2819 H         3 RES3    0.0000
     85 C34        8.4960   14.6856    2.0497 C.3       3 RES3    0.0000
     86 C35        9.1040   16.0609    1.8002 C.2       3 RES3    0.0000
     87 C36       10.1591   16.0064    3.9975 C.2       3 RES3    0.0000
     88 C37        8.5094   14.2580    3.5081 C.2       3 RES3    0.0000
     89 C38       10.7549   17.7440    2.3921 C.3       3 RES3    0.0000
     90 H38       11.0660   17.6856    1.4646 H         3 RES3    0.0000
     91 H39       11.5273   17.8174    2.9909 H         3 RES3    0.0000
     92 H40       10.1845   18.5331    2.4964 H         3 RES3    0.0000
     93 C39        9.5738   14.3746    5.7062 C.3       3 RES3    0.0000
     94 H41        9.1567   14.9910    6.3442 H         3 RES3    0.0000
     95 H42       10.5300   14.2935    5.9076 H         3 RES3    0.0000
     96 H43        9.1480   13.4937    5.7767 H         3 RES3    0.0000
     97 N7         9.9892   16.5396    2.7264 N.am      3 RES3    0.0000
     98 N8         9.4031   14.8933    4.3412 N.am      3 RES3    0.0000
     99 N9         7.1257   14.5891    1.5688 N.3       3 RES3    0.0000
    100 H44        7.0356   14.8865    0.6983 H         3 RES3    0.0000
    101 O9         8.8855   16.6603    0.7624 O.2       3 RES3    0.0000
    102 O10       10.9289   16.4976    4.7963 O.2       3 RES3    0.0000
    103 O11        7.8175   13.3447    3.9097 O.2       3 RES3    0.0000
    104 O12        6.3616   15.5676    2.3257 O.3       3 RES3    0.0000
    105 H45        5.8295   15.0205    2.7934 H         3 RES3    0.0000
@<TRIPOS>BOND
     1    1    2 1
     2    3    1 ar
     3    4    3 1
     4    5    3 ar
     5    6    5 1
     6    7    5 ar
     7    8    7 1
     8    9    7 ar
     9   10    9 1
    10   11    1 ar
    11   12   11 1
    12   13   12 1
    13   14   12 1
    14   15   12 1
    15   16   15 1
    16   17   27 1
    17   18   15 1
    18   19   20 1
    19   21   19 1
    20   22   19 1
    21   23   24 1
    22   25   23 1
    23   26   23 1
    24   27   16 1
    25   28   17 1
    26   29   15 1
    27   30   29 1
    28   31   16 2
    29   32   17 2
    30   33   18 2
    31   34   29 1
    32   35   34 1
    33   36   37 1
    34   38   36 ar
    35   39   38 1
    36   40   38 ar
    37   41   40 1
    38   42   40 ar
    39   43   42 1
    40   44   42 ar
    41   45   44 1
    42   46   36 ar
    43   47   46 1
    44   48   47 1
    45   49   47 1
    46   50   47 1
    47   51   50 1
    48   52   62 1
    49   53   50 1
    50   54   55 1
    51   56   54 1
    52   57   54 1
    53   58   59 1
    54   60   58 1
    55   61   58 1
    56   62   51 1
    57   63   52 1
    58   64   50 1
    59   65   64 1
    60   66   51 2
    61   67   52 2
    62   68   53 2
    63   69   64 1
    64   70   69 1
    65   71   72 1
    66   73   71 ar
    67   74   73 1
    68   75   73 ar
    69   76   75 1
    70   77   75 ar
    71   78   77 1
    72   79   77 ar
    73   80   79 1
    74   81   71 ar
    75   82   81 1
    76   83   82 1
    77   84   82 1
    78   85   82 1
    79   86   85 1
    80   87   97 1
    81   88   85 1
    82   89   90 1
    83   91   89 1
    84   92   89 1
    85   93   94 1
    86   95   93 1
    87   96   93 1
    88   97   86 1
    89   98   87 1
    90   99   85 1
    91  100   99 1
    92  101   86 2
    93  102   87 2
    94  103   88 2
    95  104   99 1
    96  105  104 1
    97    9   11 ar
    98   18   28 1
    99   19   27 1
   100   23   28 1
   101   44   46 ar
   102   53   63 1
   103   54   62 1
   104   58   63 1
   105   79   81 ar
   106   88   98 1
   107   89   97 1
   108   93   98 1
@<TRIPOS>SUBSTRUCTURE
     1 RES1 1
     2 RES2 36
     3 RES3 71

@<TRIPOS>CRYSIN
  15.0854   22.7205   12.6348  90.0000  95.2052  90.0000  14 1

