# MOL2 file generated by ConQuest
# Please check atom types

@<TRIPOS>MOLECULE
JUCPII
    71    49     2
SMALL
NO_CHARGES
****
Generated from CSD

@<TRIPOS>ATOM
      1 C1         0.1464    6.8925   -3.8679 C.3       1 RES1    0.0000
      2 H1        -0.6189    6.8059   -4.4424 H         1 RES1    0.0000
      3 C2         1.1251    5.8840   -4.4499 C.3       1 RES1    0.0000
      4 N1         0.0437    5.4674    0.4223 N.2       1 RES1    0.0000
      5 O1         1.0603    8.7171   -0.3164 O.3       1 RES1    0.0000
      6 N2         0.8858    7.6602    0.5417 N.2       1 RES1    0.0000
      7 C3         0.3316    6.7450   -0.1761 C.2       1 RES1    0.0000
      8 C4         0.0907    7.2264   -1.4923 C.2       1 RES1    0.0000
      9 N3         0.5350    8.4422   -1.5684 N.2       1 RES1    0.0000
     10 N4        -0.3716    6.4977   -2.5592 N.2       1 RES1    0.0000
     11 N5        -1.7038    5.9992   -2.4533 N.2       1 RES1    0.0000
     12 N6         2.2024    5.5473   -3.4173 N.2       1 RES1    0.0000
     13 N7         0.4766    4.6169   -5.0080 N.2       1 RES1    0.0000
     14 N8         1.8453    6.6118   -5.5810 N.2       1 RES1    0.0000
     15 O2        -0.2697    5.4826    1.6221 O.2       1 RES1    0.0000
     16 O3        -2.2225    5.6329   -3.4993 O.2       1 RES1    0.0000
     17 O4        -2.2075    6.0201   -1.3609 O.2       1 RES1    0.0000
     18 O5         2.5565    6.4691   -2.7084 O.2       1 RES1    0.0000
     19 O6         2.5329    4.3771   -3.3412 O.2       1 RES1    0.0000
     20 O7        -0.0890    3.9661   -4.1216 O.2       1 RES1    0.0000
     21 O8         0.8952    4.3105   -6.1317 O.2       1 RES1    0.0000
     22 O9         1.1817    7.4309   -6.1899 O.2       1 RES1    0.0000
     23 O10        2.9732    6.2313   -5.8616 O.2       1 RES1    0.0000
     24 H2         0.4269    7.8105   -3.8724 H         1 RES1    0.0000
     25 N9        -0.7288    2.3879   -0.6909 Du        2 SUP2    0.0000
     26 N10       -0.3834    1.3832    1.3012 Du        2 SUP2    0.0000
     27 O11        0.8930    8.2843   -0.0149 Du        2 SUP2    0.0000
     28 C5        -0.1925    3.2593    0.1239 Du        2 SUP2    0.0000
     29 C6        -0.0130    6.9096   -1.3774 Du        2 SUP2    0.0000
     30 N11       -0.5211    6.5081   -2.6771 Du        2 SUP2    0.0000
     31 N12       -1.8315    5.9744   -2.6458 Du        2 SUP2    0.0000
     32 O12       -2.2345    5.6586   -1.5191 Du        2 SUP2    0.0000
     33 O13       -2.3855    5.7841   -3.7142 Du        2 SUP2    0.0000
     34 C7        -0.0442    6.9686   -3.9649 Du        2 SUP2    0.0000
     35 N13        0.4889    4.7538   -5.0811 Du        2 SUP2    0.0000
     36 O14       -0.3023    4.1612   -4.4066 Du        2 SUP2    0.0000
     37 O15        0.5437    4.4932   -6.2331 Du        2 SUP2    0.0000
     38 N14        0.0593    4.5198   -0.3880 Du        2 SUP2    0.0000
     39 C8         1.0457    6.0467   -4.5245 Du        2 SUP2    0.0000
     40 N15        2.0686    5.5320   -3.5143 Du        2 SUP2    0.0000
     41 O16        2.4784    4.3990   -3.6545 Du        2 SUP2    0.0000
     42 O17        2.4569    6.3550   -2.7084 Du        2 SUP2    0.0000
     43 O18        3.0566    6.4919   -5.6333 Du        2 SUP2    0.0000
     44 O19        1.1881    7.3253   -6.4555 Du        2 SUP2    0.0000
     45 N16        1.8387    6.6594   -5.6780 Du        2 SUP2    0.0000
     46 H3         0.4629    7.7610   -3.7679 Du        2 SUP2    0.0000
     47 H4        -0.7253    7.2016   -4.5976 Du        2 SUP2    0.0000
     48 C1B       -0.1464    2.6209    3.8679 C.3       1 RES1    0.0000
     49 H1B        0.6189    2.7075    4.4424 H         1 RES1    0.0000
     50 C2B       -1.1251    3.6294    4.4499 C.3       1 RES1    0.0000
     51 N1B       -0.0437    4.0460   -0.4223 N.2       1 RES1    0.0000
     52 O1B       -1.0603    0.7963    0.3164 O.3       1 RES1    0.0000
     53 N2B       -0.8858    1.8532   -0.5417 N.2       1 RES1    0.0000
     54 C3B       -0.3316    2.7684    0.1761 C.2       1 RES1    0.0000
     55 C4B       -0.0907    2.2870    1.4923 C.2       1 RES1    0.0000
     56 N3B       -0.5350    1.0712    1.5684 N.2       1 RES1    0.0000
     57 N4B        0.3716    3.0157    2.5592 N.2       1 RES1    0.0000
     58 N5B        1.7038    3.5142    2.4533 N.2       1 RES1    0.0000
     59 N6B       -2.2024    3.9661    3.4173 N.2       1 RES1    0.0000
     60 N7B       -0.4766    4.8965    5.0080 N.2       1 RES1    0.0000
     61 N8B       -1.8453    2.9016    5.5810 N.2       1 RES1    0.0000
     62 O2B        0.2697    4.0308   -1.6221 O.2       1 RES1    0.0000
     63 O3B        2.2225    3.8805    3.4993 O.2       1 RES1    0.0000
     64 O4B        2.2075    3.4933    1.3609 O.2       1 RES1    0.0000
     65 O5B       -2.5565    3.0443    2.7084 O.2       1 RES1    0.0000
     66 O6B       -2.5329    5.1363    3.3412 O.2       1 RES1    0.0000
     67 O7B        0.0890    5.5473    4.1216 O.2       1 RES1    0.0000
     68 O8B       -0.8952    5.2029    6.1317 O.2       1 RES1    0.0000
     69 O9B       -1.1817    2.0825    6.1899 O.2       1 RES1    0.0000
     70 O10B      -2.9732    3.2821    5.8616 O.2       1 RES1    0.0000
     71 H2B       -0.4269    1.7029    3.8724 H         1 RES1    0.0000
@<TRIPOS>BOND
     1    1    2 1
     2    3    1 1
     3    4    7 1
     4    5    6 1
     5    6    7 1
     6    7    8 1
     7    8    9 1
     8    9    5 1
     9   10    1 1
    10   11   10 1
    11   12    3 1
    12   13    3 1
    13   14    3 1
    14   15    4 1
    15   16   11 1
    16   17   11 1
    17   18   12 1
    18   19   12 1
    19   20   13 1
    20   21   13 1
    21   22   14 1
    22   23   14 1
    23   24    1 1
    24   48   49 1
    25   50   48 1
    26   51    4 1
    27   52   53 1
    28   53   54 1
    29   54   51 1
    30   55   54 1
    31   56   52 1
    32   57   48 1
    33   58   57 1
    34   59   50 1
    35   60   50 1
    36   61   50 1
    37   62   51 1
    38   63   58 1
    39   64   58 1
    40   65   59 1
    41   66   59 1
    42   67   60 1
    43   68   60 1
    44   69   61 1
    45   70   61 1
    46   71   48 1
    47    8   10 1
    48   55   56 1
    49   55   57 1
@<TRIPOS>SUBSTRUCTURE
     1 RES1 1
     2 SUP2 25

@<TRIPOS>CRYSIN
   7.6635    9.5134   15.1332  90.0000  99.5710  90.0000 231 1

