# MOL2 file generated by ConQuest
# Please check atom types

@<TRIPOS>MOLECULE
JUCPAA
    44    45     1
SMALL
NO_CHARGES
****
Generated from CSD

@<TRIPOS>ATOM
      1 O1        10.4919    3.3242    1.6390 O.2       1 RES1    0.0000
      2 O2         7.1254    3.9406   -1.1840 O.3       1 RES1    0.0000
      3 O3         7.5248   -0.3570   -0.0343 O.2       1 RES1    0.0000
      4 O4         9.1057   -1.2477    1.1792 O.2       1 RES1    0.0000
      5 O5         8.9573    0.5656    3.7583 O.2       1 RES1    0.0000
      6 O6         8.2178   -1.4664    3.9688 O.2       1 RES1    0.0000
      7 O7         5.3804   -0.7227    3.3283 O.2       1 RES1    0.0000
      8 O8         6.0672   -2.0680    1.7677 O.2       1 RES1    0.0000
      9 N1        10.2307    3.7086    0.4170 N.2       1 RES1    0.0000
     10 N2         8.4417    4.2984   -1.1136 N.2       1 RES1    0.0000
     11 N3         6.7606    3.0836   -0.1314 N.2       1 RES1    0.0000
     12 N4         7.9823    2.1195    1.6503 N.2       1 RES1    0.0000
     13 H1         8.6165    2.3359    2.2124 H         1 RES1    0.0000
     14 N5         8.0692   -0.6344    1.0123 N.2       1 RES1    0.0000
     15 N6         8.2519   -0.3672    3.4409 N.2       1 RES1    0.0000
     16 N7         6.1450   -1.0812    2.4589 N.2       1 RES1    0.0000
     17 C1         8.8947    3.6875   -0.0549 C.2       1 RES1    0.0000
     18 C2         7.8486    2.9273    0.5642 C.2       1 RES1    0.0000
     19 C3         6.8802    1.3000    2.1098 C.3       1 RES1    0.0000
     20 H2         6.1337    1.3523    1.4618 H         1 RES1    0.0000
     21 H3         6.5564    1.6375    2.9815 H         1 RES1    0.0000
     22 C4         7.3304   -0.1461    2.2565 C.3       1 RES1    0.0000
     23 O1D       10.8511    4.4883   -1.6390 O.2       1 RES1    0.0000
     24 O2D       14.2176    3.8719    1.1840 O.3       1 RES1    0.0000
     25 O3D       13.8182    8.1695    0.0343 O.2       1 RES1    0.0000
     26 O4D       12.2373    9.0602   -1.1792 O.2       1 RES1    0.0000
     27 O5D       12.3857    7.2469   -3.7583 O.2       1 RES1    0.0000
     28 O6D       13.1252    9.2789   -3.9688 O.2       1 RES1    0.0000
     29 O7D       15.9626    8.5352   -3.3283 O.2       1 RES1    0.0000
     30 O8D       15.2758    9.8805   -1.7677 O.2       1 RES1    0.0000
     31 N1D       11.1123    4.1039   -0.4170 N.2       1 RES1    0.0000
     32 N2D       12.9013    3.5141    1.1136 N.2       1 RES1    0.0000
     33 N3D       14.5824    4.7289    0.1314 N.2       1 RES1    0.0000
     34 N4D       13.3607    5.6930   -1.6503 N.2       1 RES1    0.0000
     35 H1D       12.7265    5.4766   -2.2124 H         1 RES1    0.0000
     36 N5D       13.2738    8.4469   -1.0123 N.2       1 RES1    0.0000
     37 N6D       13.0911    8.1797   -3.4409 N.2       1 RES1    0.0000
     38 N7D       15.1980    8.8938   -2.4589 N.2       1 RES1    0.0000
     39 C1D       12.4483    4.1250    0.0549 C.2       1 RES1    0.0000
     40 C2D       13.4944    4.8852   -0.5642 C.2       1 RES1    0.0000
     41 C3D       14.4628    6.5125   -2.1098 C.3       1 RES1    0.0000
     42 H2D       15.2093    6.4602   -1.4618 H         1 RES1    0.0000
     43 H3D       14.7866    6.1750   -2.9815 H         1 RES1    0.0000
     44 C4D       14.0126    7.9586   -2.2565 C.3       1 RES1    0.0000
@<TRIPOS>BOND
     1    1    9 1
     2    2   10 1
     3    3   14 1
     4    4   14 1
     5    5   15 1
     6    6   15 1
     7    7   16 1
     8    8   16 1
     9    9   17 1
    10   10   17 1
    11   11    2 1
    12   12   13 1
    13   14   22 1
    14   15   22 1
    15   16   22 1
    16   17   18 1
    17   18   11 1
    18   19   12 1
    19   20   19 1
    20   21   19 1
    21   22   19 1
    22   23   31 1
    23   24   32 1
    24   25   36 1
    25   26   36 1
    26   27   37 1
    27   28   37 1
    28   29   38 1
    29   30   38 1
    30   31    9 1
    31   32   39 1
    32   33   24 1
    33   34   35 1
    34   36   44 1
    35   37   44 1
    36   38   44 1
    37   39   31 1
    38   40   33 1
    39   41   34 1
    40   42   41 1
    41   43   41 1
    42   44   41 1
    43   12   18 1
    44   34   40 1
    45   39   40 1
@<TRIPOS>SUBSTRUCTURE
     1 RES1 1

@<TRIPOS>CRYSIN
  21.3430    7.8125   11.7660  90.0000 100.1100  90.0000  15 1

