# MOL2 file generated by ConQuest
# Please check atom types

@<TRIPOS>MOLECULE
JUCPEC
    17    18     1
SMALL
NO_CHARGES
****
Generated from CSD

@<TRIPOS>ATOM
      1 N1         5.0494    0.9054    2.7642 N.am      1 RES1    0.0000
      2 C1         5.7882    2.0556    2.6201 C.2       1 RES1    0.0000
      3 N2         6.2588    2.2133    1.3428 N.am      1 RES1    0.0000
      4 C2         6.0834    1.3654    0.2686 C.2       1 RES1    0.0000
      5 C3         5.2806    0.1897    0.5214 C.2       1 RES1    0.0000
      6 C4         4.8125    0.0053    1.7633 C.2       1 RES1    0.0000
      7 C5         5.0282   -0.7642   -0.5948 C.3       1 RES1    0.0000
      8 O1         4.5685    0.6368    4.0375 O.3       1 RES1    0.0000
      9 O2         6.0002    2.8305    3.5201 O.2       1 RES1    0.0000
     10 O3         6.5996    1.6257   -0.8148 O.2       1 RES1    0.0000
     11 C6         5.5834   -0.0729    4.8222 C.3       1 RES1    0.0000
     12 C7         5.3616    0.2372    6.2620 C.ar      1 RES1    0.0000
     13 C8         5.7766    1.4538    6.7716 C.ar      1 RES1    0.0000
     14 C9         5.6673    1.7319    8.1130 C.ar      1 RES1    0.0000
     15 C10        5.1437    0.8093    8.9672 C.ar      1 RES1    0.0000
     16 C11        4.7043   -0.3925    8.4798 C.ar      1 RES1    0.0000
     17 C12        4.8139   -0.6842    7.1279 C.ar      1 RES1    0.0000
@<TRIPOS>BOND
     1    1    2 1
     2    2    3 1
     3    3    4 1
     4    4    5 1
     5    5    6 2
     6    6    1 1
     7    7    5 1
     8    8    1 1
     9    9    2 2
    10   10    4 2
    11   11    8 1
    12   12   11 1
    13   13   12 ar
    14   14   13 ar
    15   15   14 ar
    16   16   15 ar
    17   17   12 ar
    18   16   17 ar
@<TRIPOS>SUBSTRUCTURE
     1 RES1 1

@<TRIPOS>CRYSIN
  14.7720    5.9290   13.1070  90.0000  91.8300  90.0000 231 1

