# MOL2 file generated by ConQuest
# Please check atom types

@<TRIPOS>MOLECULE
JUCWOV
    98   106     2
SMALL
NO_CHARGES
****
Generated from CSD

@<TRIPOS>ATOM
      1 C1         0.4749    2.1598   13.8654 C.ar      1 RES1    0.0000
      2 C2         1.7415    1.9125   14.3637 C.ar      1 RES1    0.0000
      3 H1         1.8611    1.3693   15.1344 H         1 RES1    0.0000
      4 C3         2.8242    2.4691   13.7240 C.ar      1 RES1    0.0000
      5 H2         3.6977    2.3141   14.0632 H         1 RES1    0.0000
      6 C4         2.6598    3.2612   12.5815 C.ar      1 RES1    0.0000
      7 C5         3.8763    3.8857   11.9061 C.3       1 RES1    0.0000
      8 H3         4.6360    3.8621   12.5562 H         1 RES1    0.0000
      9 C6         3.6161    5.3385   11.5431 C.2       1 RES1    0.0000
     10 C7         3.4741    6.2655   12.6335 C.2       1 RES1    0.0000
     11 C8         3.2293    7.7152   12.3167 C.3       1 RES1    0.0000
     12 H4         4.1015    8.1731   12.2200 H         1 RES1    0.0000
     13 H5         2.7528    8.1329   13.0784 H         1 RES1    0.0000
     14 C9         2.4067    7.9332   11.0358 C.3       1 RES1    0.0000
     15 C10        0.9873    7.4063   11.2351 C.3       1 RES1    0.0000
     16 H6         0.5479    7.9140   11.9477 H         1 RES1    0.0000
     17 H7         1.0226    6.4599   11.4821 H         1 RES1    0.0000
     18 H8         0.4813    7.5075   10.4020 H         1 RES1    0.0000
     19 C11        0.2737    2.9163   12.7258 C.ar      1 RES1    0.0000
     20 H9        -0.6011    3.0602   12.3866 H         1 RES1    0.0000
     21 C12        1.3746    3.4607   12.0920 C.ar      1 RES1    0.0000
     22 H10        1.2511    3.9805   11.3065 H         1 RES1    0.0000
     23 C13        2.3271    9.4184   10.6936 C.3       1 RES1    0.0000
     24 H11        1.6969    9.5513    9.9557 H         1 RES1    0.0000
     25 H12        3.2142    9.7412   10.4288 H         1 RES1    0.0000
     26 H13        2.0186    9.9176   11.4791 H         1 RES1    0.0000
     27 C14        3.1093    7.1787    9.8992 C.3       1 RES1    0.0000
     28 H14        2.5066    7.1501    9.1137 H         1 RES1    0.0000
     29 H15        3.9218    7.6795    9.6373 H         1 RES1    0.0000
     30 C15        3.5023    5.7701   10.2622 C.2       1 RES1    0.0000
     31 C16        4.2237    3.6242    9.3993 C.ar      1 RES1    0.0000
     32 C17        4.2898    3.0821   10.6713 C.ar      1 RES1    0.0000
     33 C18        4.7594    1.7619   10.8424 C.ar      1 RES1    0.0000
     34 H16        4.8224    1.3670   11.7037 H         1 RES1    0.0000
     35 C19        5.1203    1.0713    9.7132 C.ar      1 RES1    0.0000
     36 C20        5.8416   -0.4358    8.2419 C.3       1 RES1    0.0000
     37 H17        5.2882   -1.1883    7.9175 H         1 RES1    0.0000
     38 H18        6.7943   -0.6679    8.1005 H         1 RES1    0.0000
     39 C21        5.0639    1.6422    8.4620 C.ar      1 RES1    0.0000
     40 C22        4.6176    2.9136    8.2508 C.ar      1 RES1    0.0000
     41 H19        4.5761    3.2969    7.3820 H         1 RES1    0.0000
     42 N1        -0.6903    1.5855   14.5438 N.pl3     1 RES1    0.0000
     43 N2         3.7483    4.9407    9.2178 N.pl3     1 RES1    0.0000
     44 H20        3.6068    5.2336    8.3996 H         1 RES1    0.0000
     45 O1        -1.7597    1.5397   13.9665 O.2       1 RES1    0.0000
     46 O2        -0.5330    1.1740   15.7022 O.2       1 RES1    0.0000
     47 O3         3.5651    5.8833   13.8145 O.2       1 RES1    0.0000
     48 O4         5.6010   -0.2214    9.6156 O.3       1 RES1    0.0000
     49 O5         5.5202    0.7523    7.5072 O.3       1 RES1    0.0000
     50 C23       -0.3755   17.7445    7.4787 C.3       2 RES2    0.0000
     51 H21       -1.2777   17.5122    7.8149 H         2 RES2    0.0000
     52 H22       -0.2551   18.7229    7.5516 H         2 RES2    0.0000
     53 C24        1.0108   16.7521    6.0445 C.ar      2 RES2    0.0000
     54 C25        1.6878   16.3431    4.9377 C.ar      2 RES2    0.0000
     55 H23        1.3309   16.4735    4.0674 H         2 RES2    0.0000
     56 C26        2.9409   15.7163    5.1281 C.ar      2 RES2    0.0000
     57 C27        3.6740   15.1894    3.9067 C.3       2 RES2    0.0000
     58 H24        3.6689   15.9039    3.2090 H         2 RES2    0.0000
     59 C28        2.9841   13.9602    3.3310 C.ar      2 RES2    0.0000
     60 C29        2.6587   13.9305    1.9742 C.ar      2 RES2    0.0000
     61 H25        2.8060   14.7000    1.4356 H         2 RES2    0.0000
     62 C30        2.1226   12.7915    1.4074 C.ar      2 RES2    0.0000
     63 H26        1.9032   12.7768    0.4835 H         2 RES2    0.0000
     64 C31        1.9088   11.6847    2.1810 C.ar      2 RES2    0.0000
     65 C32        2.7000   12.8395    4.0986 C.ar      2 RES2    0.0000
     66 H27        2.8837   12.8616    5.0314 H         2 RES2    0.0000
     67 C33        2.1561   11.6892    3.5497 C.ar      2 RES2    0.0000
     68 H28        1.9587   10.9317    4.0882 H         2 RES2    0.0000
     69 C34        3.4522   15.5796    6.4150 C.ar      2 RES2    0.0000
     70 C35        5.5615   14.7737    5.5387 C.2       2 RES2    0.0000
     71 C36        5.1287   14.8709    4.2533 C.2       2 RES2    0.0000
     72 C37        6.0158   14.6245    3.1584 C.2       2 RES2    0.0000
     73 C38        7.4194   14.1476    3.4619 C.3       2 RES2    0.0000
     74 H29        8.0321   14.9233    3.4172 H         2 RES2    0.0000
     75 H30        7.6949   13.5094    2.7567 H         2 RES2    0.0000
     76 C39        7.5913   13.4674    4.8306 C.3       2 RES2    0.0000
     77 C40        6.9882   14.3931    5.8824 C.3       2 RES2    0.0000
     78 H31        7.0029   13.9405    6.7631 H         2 RES2    0.0000
     79 H32        7.5374   15.2137    5.9508 H         2 RES2    0.0000
     80 C41        9.0986   13.2503    5.0567 C.3       2 RES2    0.0000
     81 H33        9.5449   14.1192    5.1460 H         2 RES2    0.0000
     82 H34        9.4762   12.7656    4.2935 H         2 RES2    0.0000
     83 H35        9.2344   12.7276    5.8749 H         2 RES2    0.0000
     84 C42        6.8848   12.1082    4.8871 C.3       2 RES2    0.0000
     85 H36        7.0672   11.6800    5.7500 H         2 RES2    0.0000
     86 H37        7.2180   11.5371    4.1641 H         2 RES2    0.0000
     87 H38        5.9182   12.2384    4.7844 H         2 RES2    0.0000
     88 C43        2.7439   16.0087    7.5501 C.ar      2 RES2    0.0000
     89 H39        3.0922   15.9062    8.4278 H         2 RES2    0.0000
     90 C44        1.5172   16.5870    7.3180 C.ar      2 RES2    0.0000
     91 N3         1.4265   10.4542    1.5442 N.pl3     2 RES2    0.0000
     92 N4         4.7414   15.0279    6.5954 N.pl3     2 RES2    0.0000
     93 H40        5.0198   14.8452    7.4102 H         2 RES2    0.0000
     94 O6        -0.2405   17.3317    6.1150 O.3       2 RES2    0.0000
     95 O7         1.3759   10.4175    0.3213 O.2       2 RES2    0.0000
     96 O8         1.1351    9.5035    2.2345 O.2       2 RES2    0.0000
     97 O9         0.6269   17.0664    8.2520 O.3       2 RES2    0.0000
     98 O10        5.6622   14.7967    1.9688 O.2       2 RES2    0.0000
@<TRIPOS>BOND
     1    1    2 ar
     2    2    3 1
     3    4    2 ar
     4    5    4 1
     5    6    4 ar
     6    7    6 1
     7    8    7 1
     8    9    7 1
     9   10    9 1
    10   11   10 1
    11   12   11 1
    12   13   11 1
    13   14   11 1
    14   15   14 1
    15   16   15 1
    16   17   15 1
    17   18   15 1
    18   19    1 ar
    19   20   19 1
    20   21    6 ar
    21   22   21 1
    22   23   14 1
    23   24   23 1
    24   25   23 1
    25   26   23 1
    26   27   14 1
    27   28   27 1
    28   29   27 1
    29   30    9 2
    30   31   32 ar
    31   32    7 1
    32   33   32 ar
    33   34   33 1
    34   35   33 ar
    35   36   37 1
    36   38   36 1
    37   39   35 ar
    38   40   31 ar
    39   41   40 1
    40   42    1 1
    41   43   30 1
    42   44   43 1
    43   45   42 2
    44   46   42 2
    45   47   10 2
    46   48   35 1
    47   49   36 1
    48   50   51 1
    49   52   50 1
    50   53   54 ar
    51   54   55 1
    52   56   54 ar
    53   57   56 1
    54   58   57 1
    55   59   57 1
    56   60   59 ar
    57   61   60 1
    58   62   60 ar
    59   63   62 1
    60   64   62 ar
    61   65   59 ar
    62   66   65 1
    63   67   64 ar
    64   68   67 1
    65   69   56 ar
    66   70   71 2
    67   71   57 1
    68   72   71 1
    69   73   72 1
    70   74   73 1
    71   75   73 1
    72   76   73 1
    73   77   70 1
    74   78   77 1
    75   79   77 1
    76   80   76 1
    77   81   80 1
    78   82   80 1
    79   83   80 1
    80   84   76 1
    81   85   84 1
    82   86   84 1
    83   87   84 1
    84   88   69 ar
    85   89   88 1
    86   90   53 ar
    87   91   64 1
    88   92   69 1
    89   93   92 1
    90   94   50 1
    91   95   91 2
    92   96   91 2
    93   97   50 1
    94   98   72 2
    95   19   21 ar
    96   27   30 1
    97   31   43 1
    98   36   48 1
    99   39   40 ar
   100   39   49 1
   101   53   94 1
   102   65   67 ar
   103   70   92 1
   104   76   77 1
   105   88   90 ar
   106   90   97 1
@<TRIPOS>SUBSTRUCTURE
     1 RES1 1
     2 RES2 50

@<TRIPOS>CRYSIN
  22.1820   22.3370   14.8770  90.0000  90.0000  90.0000  56 1

