# MOL2 file generated by ConQuest
# Please check atom types

@<TRIPOS>MOLECULE
JUDPEF
    47    49     1
SMALL
NO_CHARGES
****
Generated from CSD

@<TRIPOS>ATOM
      1 O1         0.2881   11.0517    7.7394 O.2       1 RES1    0.0000
      2 O2        -0.8458   10.3770    9.4423 O.2       1 RES1    0.0000
      3 O3         2.3740    9.6088    9.8466 O.2       1 RES1    0.0000
      4 O4        -1.6129    7.6192    8.4121 O.2       1 RES1    0.0000
      5 O5         0.6673    3.8159   12.7943 O.3       1 RES1    0.0000
      6 N1        -0.0657   10.1977    8.5132 N.pl3     1 RES1    0.0000
      7 N2         1.2809    7.6551   10.3125 N.am      1 RES1    0.0000
      8 H1         1.8099    7.3995   10.9674 H         1 RES1    0.0000
      9 C1         1.1970    8.5368    7.0859 C.ar      1 RES1    0.0000
     10 C2         0.4583    8.5881    5.8896 C.ar      1 RES1    0.0000
     11 C3         1.1577    8.2800    4.7261 C.ar      1 RES1    0.0000
     12 H2         0.6900    8.2994    3.8993 H         1 RES1    0.0000
     13 C4         2.4835    7.9526    4.7146 C.ar      1 RES1    0.0000
     14 H3         2.9025    7.7337    3.8903 H         1 RES1    0.0000
     15 C5         3.2278    7.9315    5.8808 C.ar      1 RES1    0.0000
     16 C6         2.5491    8.2169    7.0616 C.ar      1 RES1    0.0000
     17 H4         3.0286    8.1925    7.8817 H         1 RES1    0.0000
     18 C7        -0.9827    9.0091    5.7765 C.3       1 RES1    0.0000
     19 H5        -1.3804    9.0587    6.6703 H         1 RES1    0.0000
     20 H6        -1.4730    8.3541    5.2365 H         1 RES1    0.0000
     21 H7        -1.0335    9.8887    5.3466 H         1 RES1    0.0000
     22 C8         4.7122    7.6470    5.8860 C.3       1 RES1    0.0000
     23 H8         4.8596    6.6848    6.0028 H         1 RES1    0.0000
     24 H9         5.1357    8.1344    6.6231 H         1 RES1    0.0000
     25 H10        5.1035    7.9366    5.0364 H         1 RES1    0.0000
     26 C9         0.5397    8.8138    8.4280 C.3       1 RES1    0.0000
     27 C10       -0.5091    7.7539    8.8510 C.2       1 RES1    0.0000
     28 C11        0.0948    6.8852    9.9466 C.3       1 RES1    0.0000
     29 C12        1.5249    8.7557    9.6149 C.2       1 RES1    0.0000
     30 C13       -0.8667    6.7631   11.1330 C.3       1 RES1    0.0000
     31 H11       -1.0475    7.6638   11.5022 H         1 RES1    0.0000
     32 H12       -1.7256    6.3826   10.8213 H         1 RES1    0.0000
     33 C14       -0.2911    5.8758   12.2297 C.3       1 RES1    0.0000
     34 H13        0.5109    6.3085   12.6147 H         1 RES1    0.0000
     35 H14       -0.9597    5.7723   12.9518 H         1 RES1    0.0000
     36 C15        0.0800    4.5230   11.6993 C.3       1 RES1    0.0000
     37 H15       -0.7484    4.0457   11.4034 H         1 RES1    0.0000
     38 C16        1.0383    4.6342   10.5282 C.3       1 RES1    0.0000
     39 H16        1.2315    3.7292   10.1740 H         1 RES1    0.0000
     40 H17        1.8916    5.0290   10.8393 H         1 RES1    0.0000
     41 C17        0.4562    5.4987    9.4151 C.3       1 RES1    0.0000
     42 H18       -0.3540    5.0635    9.0481 H         1 RES1    0.0000
     43 H19        1.1169    5.5854    8.6840 H         1 RES1    0.0000
     44 C18        0.5161    2.4362   12.7644 C.3       1 RES1    0.0000
     45 H20        0.9043    2.0835   11.9360 H         1 RES1    0.0000
     46 H21       -0.4374    2.2114   12.8012 H         1 RES1    0.0000
     47 H22        0.9741    2.0405   13.5361 H         1 RES1    0.0000
@<TRIPOS>BOND
     1    1    6 2
     2    2    6 2
     3    3   29 2
     4    4   27 2
     5    5   36 1
     6    6   26 1
     7    7    8 1
     8    9   10 ar
     9   10   11 ar
    10   11   12 1
    11   13   11 ar
    12   14   13 1
    13   15   13 ar
    14   16    9 ar
    15   17   16 1
    16   18   10 1
    17   19   18 1
    18   20   18 1
    19   21   18 1
    20   22   15 1
    21   23   22 1
    22   24   22 1
    23   25   22 1
    24   26    9 1
    25   27   26 1
    26   28    7 1
    27   29    7 1
    28   30   28 1
    29   31   30 1
    30   32   30 1
    31   33   30 1
    32   34   33 1
    33   35   33 1
    34   36   33 1
    35   37   36 1
    36   38   36 1
    37   39   38 1
    38   40   38 1
    39   41   28 1
    40   42   41 1
    41   43   41 1
    42   44    5 1
    43   45   44 1
    44   46   44 1
    45   47   44 1
    46   15   16 ar
    47   26   29 1
    48   27   28 1
    49   38   41 1
@<TRIPOS>SUBSTRUCTURE
     1 RES1 1

@<TRIPOS>CRYSIN
   9.5707    8.4181   22.8720  90.0000 100.7030  90.0000  14 1

