# MOL2 file generated by ConQuest
# Please check atom types

@<TRIPOS>MOLECULE
JUDQOQ
    41    43     1
SMALL
NO_CHARGES
****
Generated from CSD

@<TRIPOS>ATOM
      1 C1         1.9612    4.6481    7.1490 C.2       1 RES1    0.0000
      2 C2         4.9657    3.5344    8.6492 C.ar      1 RES1    0.0000
      3 C3         4.5601    2.2932    9.1419 C.ar      1 RES1    0.0000
      4 H1         3.6892    1.9960    9.0047 H         1 RES1    0.0000
      5 C4         2.2644    5.8517    6.3862 C.2       1 RES1    0.0000
      6 C5         6.7495    1.9613   10.0287 C.ar      1 RES1    0.0000
      7 C6         0.5868    4.0742    7.1284 C.2       1 RES1    0.0000
      8 C7         6.2771    3.9679    8.8440 C.ar      1 RES1    0.0000
      9 H2         6.5477    4.7902    8.5052 H         1 RES1    0.0000
     10 C8         3.3346    7.5123    5.5157 C.ar      1 RES1    0.0000
     11 C9         4.2622    8.4915    5.1416 C.ar      1 RES1    0.0000
     12 H3         5.1304    8.4809    5.4740 H         1 RES1    0.0000
     13 C10        7.1741    3.1802    9.5384 C.ar      1 RES1    0.0000
     14 H4         8.0483    3.4657    9.6734 H         1 RES1    0.0000
     15 C11        1.6187    8.5426    4.1074 C.ar      1 RES1    0.0000
     16 H5         0.7546    8.5549    3.7630 H         1 RES1    0.0000
     17 C12        2.5470    9.4965    3.7493 C.ar      1 RES1    0.0000
     18 H6         2.3041   10.1685    3.1550 H         1 RES1    0.0000
     19 C13        5.4587    1.5120    9.8328 C.ar      1 RES1    0.0000
     20 H7         5.1973    0.6843   10.1663 H         1 RES1    0.0000
     21 C14        3.8523    9.4730    4.2652 C.ar      1 RES1    0.0000
     22 H8         4.4533   10.1344    4.0105 H         1 RES1    0.0000
     23 C15        2.0286    7.5610    5.0037 C.ar      1 RES1    0.0000
     24 C16       -0.8721    2.4606    8.0823 C.3       1 RES1    0.0000
     25 H9        -1.1149    2.0236    7.2502 H         1 RES1    0.0000
     26 H10       -1.5346    3.1420    8.2751 H         1 RES1    0.0000
     27 N1         3.4613    6.4303    6.3782 N.2       1 RES1    0.0000
     28 N2         1.3724    6.5002    5.5804 N.pl3     1 RES1    0.0000
     29 H11        0.5489    6.2840    5.4566 H         1 RES1    0.0000
     30 N3         2.8163    3.9691    7.8662 N.2       1 RES1    0.0000
     31 N4         4.0800    4.3591    7.9620 N.pl3     1 RES1    0.0000
     32 H12        4.3441    5.0986    7.6106 H         1 RES1    0.0000
     33 N5         7.6907    1.1137   10.7565 N.pl3     1 RES1    0.0000
     34 O1         8.8687    1.4427   10.7763 O.2       1 RES1    0.0000
     35 O2         7.2459    0.1087   11.3226 O.2       1 RES1    0.0000
     36 O3         0.4476    3.0627    7.9650 O.3       1 RES1    0.0000
     37 O4        -0.3068    4.4907    6.4199 O.2       1 RES1    0.0000
     38 C17       -0.8216    1.4767    9.1764 C.3       1 RES1    0.0000
     39 H13       -0.6358    1.9278   10.0035 H         1 RES1    0.0000
     40 H14       -0.1291    0.8359    8.9981 H         1 RES1    0.0000
     41 H15       -1.6668    1.0256    9.2413 H         1 RES1    0.0000
@<TRIPOS>BOND
     1    1    5 1
     2    2    3 ar
     3    3    4 1
     4    5   27 2
     5    6   13 ar
     6    7    1 1
     7    8    2 ar
     8    9    8 1
     9   10   11 ar
    10   11   12 1
    11   13    8 ar
    12   14   13 1
    13   15   16 1
    14   17   15 ar
    15   18   17 1
    16   19    3 ar
    17   20   19 1
    18   21   11 ar
    19   22   21 1
    20   23   10 ar
    21   24   25 1
    22   26   24 1
    23   27   10 1
    24   28    5 1
    25   29   28 1
    26   30    1 2
    27   31    2 1
    28   32   31 1
    29   33    6 1
    30   34   33 2
    31   35   33 2
    32   36    7 1
    33   37    7 2
    34   38   24 1
    35   39   38 1
    36   40   38 1
    37   41   38 1
    38    6   19 ar
    39   15   23 ar
    40   17   21 ar
    41   23   28 1
    42   24   36 1
    43   30   31 1
@<TRIPOS>SUBSTRUCTURE
     1 RES1 1

@<TRIPOS>CRYSIN
  12.8770    5.8740   21.9880  90.0000  99.0600  90.0000  14 1

