# MOL2 file generated by ConQuest
# Please check atom types

@<TRIPOS>MOLECULE
JUFCIY
   110   114     2
SMALL
NO_CHARGES
****
Generated from CSD

@<TRIPOS>ATOM
      1 O1        -3.3754    9.4557   13.3680 O.2       1 RES1    0.0000
      2 O2        -1.5023    8.4203   13.0304 O.2       1 RES1    0.0000
      3 O3        -0.8259   17.5892   15.6449 O.2       1 RES1    0.0000
      4 O4         3.0869   19.2117   17.3411 O.3       1 RES1    0.0000
      5 O5         3.1365   20.3736   13.1216 O.3       1 RES1    0.0000
      6 N1        -2.1522    9.3900   13.4166 N.pl3     1 RES1    0.0000
      7 N2         0.0828   15.0615   15.4986 N.2       1 RES1    0.0000
      8 N3         0.8831   16.1083   15.8946 N.am      1 RES1    0.0000
      9 H1         1.7240   15.9465   16.0693 H         1 RES1    0.0000
     10 N4         2.3166   18.1082   17.0037 N.2       1 RES1    0.0000
     11 C1        -0.0597   12.7811   14.8185 C.ar      1 RES1    0.0000
     12 C2         0.6386   11.6426   14.4052 C.ar      1 RES1    0.0000
     13 H2         1.5887   11.6401   14.4300 H         1 RES1    0.0000
     14 C3        -0.0378   10.5178   13.9578 C.ar      1 RES1    0.0000
     15 H3         0.4349    9.7457   13.6731 H         1 RES1    0.0000
     16 C4        -1.4157   10.5520   13.9395 C.ar      1 RES1    0.0000
     17 C5        -2.1430   11.6526   14.3654 C.ar      1 RES1    0.0000
     18 H4        -3.0931   11.6401   14.3573 H         1 RES1    0.0000
     19 C6        -1.4560   12.7688   14.8025 C.ar      1 RES1    0.0000
     20 H5        -1.9373   13.5344   15.0943 H         1 RES1    0.0000
     21 C7         0.6931   13.9606   15.2537 C.2       1 RES1    0.0000
     22 H6         1.6360   13.9105   15.3549 H         1 RES1    0.0000
     23 C8         0.3366   17.3484   15.9380 C.2       1 RES1    0.0000
     24 C9         1.2761   18.4579   16.3352 C.2       1 RES1    0.0000
     25 C10        4.2291   18.7801   18.0933 C.3       1 RES1    0.0000
     26 H7         4.6982   19.5610   18.4530 H         1 RES1    0.0000
     27 H8         4.8332   18.2749   17.5105 H         1 RES1    0.0000
     28 H9         3.9361   18.2076   18.8315 H         1 RES1    0.0000
     29 C11        0.9061   19.8399   15.9317 C.ar      1 RES1    0.0000
     30 C12       -0.2403   20.4191   16.4801 C.ar      1 RES1    0.0000
     31 H10       -0.7391   19.9487   17.1371 H         1 RES1    0.0000
     32 C13       -0.6518   21.6757   16.0675 C.ar      1 RES1    0.0000
     33 H11       -1.4158   22.0799   16.4628 H         1 RES1    0.0000
     34 C14        0.0531   22.3436   15.0780 C.ar      1 RES1    0.0000
     35 H12       -0.2536   23.1849   14.7634 H         1 RES1    0.0000
     36 C15        1.2048   21.7844   14.5463 C.ar      1 RES1    0.0000
     37 H13        1.6864   22.2540   13.8761 H         1 RES1    0.0000
     38 C16        1.6663   20.5419   14.9830 C.ar      1 RES1    0.0000
     39 C17        2.9866   20.0110   14.4884 C.3       1 RES1    0.0000
     40 H14        3.7269   20.3945   15.0241 H         1 RES1    0.0000
     41 H15        3.0112   19.0248   14.5829 H         1 RES1    0.0000
     42 C18        4.3724   20.1960   12.5439 C.ar      1 RES1    0.0000
     43 C19        5.5082   19.7670   13.2169 C.ar      1 RES1    0.0000
     44 H16        5.4716   19.5703   14.1468 H         1 RES1    0.0000
     45 C20        6.7037   19.6272   12.5120 C.ar      1 RES1    0.0000
     46 H17        7.4867   19.3382   12.9662 H         1 RES1    0.0000
     47 C21        6.7599   19.9049   11.1593 C.ar      1 RES1    0.0000
     48 H18        7.5787   19.8164   10.6853 H         1 RES1    0.0000
     49 C22        5.6051   20.3158   10.4963 C.ar      1 RES1    0.0000
     50 H19        5.6445   20.4920    9.5649 H         1 RES1    0.0000
     51 C23        4.4005   20.4739   11.1640 C.ar      1 RES1    0.0000
     52 C24        3.1462   20.8852   10.4539 C.3       1 RES1    0.0000
     53 H20        3.3263   20.9679    9.4947 H         1 RES1    0.0000
     54 H21        2.8407   21.7479   10.8031 H         1 RES1    0.0000
     55 H22        2.4519   20.2087   10.6001 H         1 RES1    0.0000
     56 O6         2.0919   17.9478    8.2404 O.2       2 RES2    0.0000
     57 O7         0.2735   17.3347    9.2290 O.2       2 RES2    0.0000
     58 O8         3.0316   14.7441   17.2170 O.2       2 RES2    0.0000
     59 O9         6.9919   15.3596   19.4283 O.3       2 RES2    0.0000
     60 O10        7.0282   11.1771   18.1379 O.3       2 RES2    0.0000
     61 N5         1.4826   17.5316    9.2172 N.pl3     2 RES2    0.0000
     62 N6         3.8980   15.9499   14.9857 N.2       2 RES2    0.0000
     63 N7         4.7280   15.7247   16.0653 N.am      2 RES2    0.0000
     64 H23        5.5822   16.0115   16.0517 H         2 RES2    0.0000
     65 N8         6.1806   15.6317   18.3304 N.2       2 RES2    0.0000
     66 C25        3.6835   16.6480   12.7141 C.ar      2 RES2    0.0000
     67 C26        4.3429   17.0531   11.5458 C.ar      2 RES2    0.0000
     68 H24        5.2904   17.1211   11.5375 H         2 RES2    0.0000
     69 C27        3.6220   17.3544   10.4021 C.ar      2 RES2    0.0000
     70 H25        4.0643   17.6342    9.6100 H         2 RES2    0.0000
     71 C28        2.2496   17.2388   10.4389 C.ar      2 RES2    0.0000
     72 C29        1.5637   16.8428   11.5754 C.ar      2 RES2    0.0000
     73 H26        0.6159   16.7752   11.5751 H         2 RES2    0.0000
     74 C30        2.2938   16.5489   12.7108 C.ar      2 RES2    0.0000
     75 H27        1.8422   16.2761   13.5001 H         2 RES2    0.0000
     76 C31        4.4770   16.3629   13.9162 C.2       2 RES2    0.0000
     77 H28        5.4194   16.4850   13.9037 H         2 RES2    0.0000
     78 C32        4.1959   15.1135   17.1516 C.2       2 RES2    0.0000
     79 C33        5.1544   14.8581   18.2916 C.2       2 RES2    0.0000
     80 C34        8.0678   16.3107   19.4506 C.3       2 RES2    0.0000
     81 H29        8.5446   16.2459   20.3053 H         2 RES2    0.0000
     82 H30        7.7062   17.2163   19.3478 H         2 RES2    0.0000
     83 H31        8.6869   16.1206   18.7162 H         2 RES2    0.0000
     84 C35        4.8031   13.7608   19.2348 C.ar      2 RES2    0.0000
     85 C36        3.6089   13.8538   19.9619 C.ar      2 RES2    0.0000
     86 H32        3.0642   14.6278   19.8817 H         2 RES2    0.0000
     87 C37        3.2208   12.8180   20.7976 C.ar      2 RES2    0.0000
     88 H33        2.4222   12.8913   21.3079 H         2 RES2    0.0000
     89 C38        3.9977   11.6746   20.8893 C.ar      2 RES2    0.0000
     90 H34        3.7180   10.9552   21.4458 H         2 RES2    0.0000
     91 C39        5.1803   11.5750   20.1745 C.ar      2 RES2    0.0000
     92 H35        5.7063   10.7857   20.2426 H         2 RES2    0.0000
     93 C40        5.6056   12.6227   19.3563 C.ar      2 RES2    0.0000
     94 C41        6.9449   12.4978   18.6713 C.3       2 RES2    0.0000
     95 H36        7.0215   13.1653   17.9442 H         2 RES2    0.0000
     96 H37        7.6768   12.6522   19.3202 H         2 RES2    0.0000
     97 C42        8.2472   10.7479   17.6837 C.ar      2 RES2    0.0000
     98 C43        9.4037   11.5189   17.6780 C.ar      2 RES2    0.0000
     99 H38        9.3884   12.4085   18.0118 H         2 RES2    0.0000
    100 C44       10.5860   10.9749   17.1782 C.ar      2 RES2    0.0000
    101 H39       11.3830   11.4915   17.1847 H         2 RES2    0.0000
    102 C45       10.6056    9.6898   16.6731 C.ar      2 RES2    0.0000
    103 H40       11.4087    9.3255   16.3199 H         2 RES2    0.0000
    104 C46        9.4377    8.9327   16.6859 C.ar      2 RES2    0.0000
    105 H41        9.4577    8.0487   16.3400 H         2 RES2    0.0000
    106 C47        8.2443    9.4337   17.1892 C.ar      2 RES2    0.0000
    107 C48        6.9710    8.6330   17.1882 C.3       2 RES2    0.0000
    108 H42        7.1292    7.7678   16.7561 H         2 RES2    0.0000
    109 H43        6.2780    9.1212   16.6959 H         2 RES2    0.0000
    110 H44        6.6757    8.4874   18.1121 H         2 RES2    0.0000
@<TRIPOS>BOND
     1    1    6 2
     2    2    6 2
     3    3   23 2
     4    4   10 1
     5    5   39 1
     6    6   16 1
     7    7    8 1
     8    8    9 1
     9   10   24 2
    10   11   12 ar
    11   12   13 1
    12   14   12 ar
    13   15   14 1
    14   16   14 ar
    15   17   16 ar
    16   18   17 1
    17   19   11 ar
    18   20   19 1
    19   21    7 2
    20   22   21 1
    21   23    8 1
    22   24   23 1
    23   25    4 1
    24   26   25 1
    25   27   25 1
    26   28   25 1
    27   29   24 1
    28   30   29 ar
    29   31   30 1
    30   32   30 ar
    31   33   32 1
    32   34   32 ar
    33   35   34 1
    34   36   34 ar
    35   37   36 1
    36   38   29 ar
    37   39   38 1
    38   40   39 1
    39   41   39 1
    40   42    5 1
    41   43   42 ar
    42   44   43 1
    43   45   43 ar
    44   46   45 1
    45   47   45 ar
    46   48   47 1
    47   49   47 ar
    48   50   49 1
    49   51   42 ar
    50   52   51 1
    51   53   52 1
    52   54   52 1
    53   55   52 1
    54   56   61 2
    55   57   61 2
    56   58   78 2
    57   59   65 1
    58   60   94 1
    59   61   71 1
    60   62   63 1
    61   63   64 1
    62   65   79 2
    63   66   67 ar
    64   67   68 1
    65   69   67 ar
    66   70   69 1
    67   71   69 ar
    68   72   71 ar
    69   73   72 1
    70   74   66 ar
    71   75   74 1
    72   76   62 2
    73   77   76 1
    74   78   63 1
    75   79   78 1
    76   80   59 1
    77   81   80 1
    78   82   80 1
    79   83   80 1
    80   84   79 1
    81   85   84 ar
    82   86   85 1
    83   87   85 ar
    84   88   87 1
    85   89   87 ar
    86   90   89 1
    87   91   89 ar
    88   92   91 1
    89   93   84 ar
    90   94   93 1
    91   95   94 1
    92   96   94 1
    93   97   60 1
    94   98   97 ar
    95   99   98 1
    96  100   98 ar
    97  101  100 1
    98  102  100 ar
    99  103  102 1
   100  104  102 ar
   101  105  104 1
   102  106   97 ar
   103  107  106 1
   104  108  107 1
   105  109  107 1
   106  110  107 1
   107   11   21 1
   108   17   19 ar
   109   36   38 ar
   110   49   51 ar
   111   66   76 1
   112   72   74 ar
   113   91   93 ar
   114  104  106 ar
@<TRIPOS>SUBSTRUCTURE
     1 RES1 1
     2 RES2 56

@<TRIPOS>CRYSIN
   7.6821   23.2151   25.1943  90.0000  95.8030  90.0000 231 1

