# MOL2 file generated by ConQuest
# Please check atom types

@<TRIPOS>MOLECULE
JUFKIE
    36    38     1
SMALL
NO_CHARGES
****
Generated from CSD

@<TRIPOS>ATOM
      1 C1         7.5395    3.2949    9.4703 C.2       1 RES1    0.0000
      2 C2         7.5949    1.8664    9.2725 C.2       1 RES1    0.0000
      3 C3         8.0015    1.1689    8.1527 C.2       1 RES1    0.0000
      4 C4         8.4380    1.6870    6.9584 C.2       1 RES1    0.0000
      5 C5         8.5654    3.0105    6.5570 C.2       1 RES1    0.0000
      6 C6         8.2895    4.1457    7.2763 C.2       1 RES1    0.0000
      7 C7         7.8446    4.3250    8.5700 C.2       1 RES1    0.0000
      8 C8         6.9138    2.2562   11.4635 C.3       1 RES1    0.0000
      9 C9         7.8243    2.1210   12.6400 C.2       1 RES1    0.0000
     10 C10        7.3575    2.0770   13.9118 C.2       1 RES1    0.0000
     11 C11        5.9992    2.0916   14.1244 C.2       1 RES1    0.0000
     12 C12        5.1229    2.0911   13.0165 C.2       1 RES1    0.0000
     13 C13        7.0416    4.7978   11.3810 C.3       1 RES1    0.0000
     14 C14        7.2192   -0.1351   10.6775 C.3       1 RES1    0.0000
     15 N1         7.1252    3.5041   10.7143 N.pl3     1 RES1    0.0000
     16 N2         7.2007    1.2932   10.3993 N.pl3     1 RES1    0.0000
     17 N3         9.2198    2.0859   12.4333 N.pl3     1 RES1    0.0000
     18 N4         5.4918    2.0839   15.4330 N.pl3     1 RES1    0.0000
     19 N5         5.4945    2.1519   11.7993 N.2       1 RES1    0.0000
     20 O1         9.9814    1.9283   13.3961 O.2       1 RES1    0.0000
     21 O2         9.6617    2.2228   11.2956 O.2       1 RES1    0.0000
     22 O3         4.2768    2.0240   15.5980 O.2       1 RES1    0.0000
     23 O4         6.2741    2.1253   16.3720 O.2       1 RES1    0.0000
     24 H1         8.0022    0.1705    8.2471 H         1 RES1    0.0000
     25 H2         8.6865    0.9609    6.2698 H         1 RES1    0.0000
     26 H3         8.8668    3.1306    5.6537 H         1 RES1    0.0000
     27 H4         8.4680    5.0234    6.8262 H         1 RES1    0.0000
     28 H5         7.7340    5.2197    8.9029 H         1 RES1    0.0000
     29 H6         7.9787    2.0151   14.6461 H         1 RES1    0.0000
     30 H7         4.1603    2.0499   13.2053 H         1 RES1    0.0000
     31 H8         6.5311    4.6591   12.1918 H         1 RES1    0.0000
     32 H9         7.9279    5.1186   11.5460 H         1 RES1    0.0000
     33 H10        6.5561    5.4644   10.8405 H         1 RES1    0.0000
     34 H11        6.7809   -0.2959   11.5062 H         1 RES1    0.0000
     35 H12        6.7979   -0.6263    9.9562 H         1 RES1    0.0000
     36 H13        8.1546   -0.4184   10.7113 H         1 RES1    0.0000
@<TRIPOS>BOND
     1    1    2 1
     2    2    3 un
     3    3    4 un
     4    4    5 un
     5    5    6 un
     6    6    7 un
     7    7    1 un
     8    8    9 1
     9    9   10 un
    10   10   11 un
    11   11   12 1
    12   12   19 2
    13   13   15 1
    14   14   16 1
    15   15    1 un
    16   16    2 un
    17   17    9 un
    18   18   11 un
    19   19    8 1
    20   20   17 2
    21   21   17 2
    22   22   18 2
    23   23   18 2
    24   24    3 1
    25   25    4 1
    26   26    5 1
    27   27    6 1
    28   28    7 1
    29   29   10 1
    30   30   12 1
    31   31   13 1
    32   32   13 1
    33   33   13 1
    34   34   14 1
    35   35   14 1
    36   36   14 1
    37    8   15 1
    38    8   16 1
@<TRIPOS>SUBSTRUCTURE
     1 RES1 1

@<TRIPOS>CRYSIN
   8.3850    8.6360   10.0170  88.4900  82.8500  88.7400   2 1

