# MOL2 file generated by ConQuest
# Please check atom types

@<TRIPOS>MOLECULE
JUFMOM
    63    68     1
SMALL
NO_CHARGES
****
Generated from CSD

@<TRIPOS>ATOM
      1 O1         5.0025    5.0693   18.7999 O.3       1 RES1    0.0000
      2 O2         3.2406    5.7916   16.0404 O.3       1 RES1    0.0000
      3 O3         5.3043    6.3043   16.8637 O.3       1 RES1    0.0000
      4 O4         2.7658    5.3981   21.5480 O.3       1 RES1    0.0000
      5 O5         4.5445    4.7589   22.8625 O.3       1 RES1    0.0000
      6 O6         2.4516    3.4399   18.6437 O.3       1 RES1    0.0000
      7 O7         0.7997    5.4794   19.4216 O.3       1 RES1    0.0000
      8 O8         1.1237    7.7138   19.7027 O.2       1 RES1    0.0000
      9 N1         1.5116    5.6152   18.1582 N.3       1 RES1    0.0000
     10 C1         2.7125    4.8097   18.2917 C.3       1 RES1    0.0000
     11 C2         3.5415    4.7811   16.9659 C.3       1 RES1    0.0000
     12 C3         4.9768    5.0305   17.4031 C.3       1 RES1    0.0000
     13 C4         3.7048    5.3713   19.3449 C.3       1 RES1    0.0000
     14 C5         4.2915    6.7735   15.9836 C.3       1 RES1    0.0000
     15 C6         3.7031    4.7404   20.7275 C.3       1 RES1    0.0000
     16 C7         4.9883    4.9205   21.5196 C.3       1 RES1    0.0000
     17 C8         3.1519    5.1358   22.9107 C.3       1 RES1    0.0000
     18 C9         0.6045    5.0573   17.1362 C.3       1 RES1    0.0000
     19 C10        0.5840    3.5442   17.1192 C.ar      1 RES1    0.0000
     20 C11        1.4734    2.8284   17.8715 C.ar      1 RES1    0.0000
     21 C12        1.4805    1.4243   17.9368 C.ar      1 RES1    0.0000
     22 C13        0.5645    0.7196   17.1958 C.ar      1 RES1    0.0000
     23 C14       -0.3542    1.4003   16.3612 C.ar      1 RES1    0.0000
     24 C15       -1.3190    0.7011   15.5492 C.ar      1 RES1    0.0000
     25 C16       -2.1746    1.3856   14.7287 C.ar      1 RES1    0.0000
     26 C17       -2.1542    2.7896   14.6748 C.ar      1 RES1    0.0000
     27 C18       -1.2577    3.5017   15.4498 C.ar      1 RES1    0.0000
     28 C19       -0.3568    2.8339   16.3101 C.ar      1 RES1    0.0000
     29 C20        4.8170    6.8169   14.5783 C.3       1 RES1    0.0000
     30 C21        3.7634    8.0916   16.4747 C.3       1 RES1    0.0000
     31 C22        2.3770    3.9728   23.4814 C.3       1 RES1    0.0000
     32 C23        2.9735    6.4169   23.6971 C.3       1 RES1    0.0000
     33 C24        0.6542    6.6931   20.0746 C.2       1 RES1    0.0000
     34 C25       -0.1775    6.4936   21.3067 C.3       1 RES1    0.0000
     35 H1         3.3241    3.8324   16.4776 H         1 RES1    0.0000
     36 H2         5.6691    4.2564   17.0539 H         1 RES1    0.0000
     37 H3         3.4164    6.4031   19.5011 H         1 RES1    0.0000
     38 H4         3.5220    3.6800   20.5260 H         1 RES1    0.0000
     39 H5         5.7410    4.2056   21.2471 H         1 RES1    0.0000
     40 H6         5.3842    5.9459   21.3663 H         1 RES1    0.0000
     41 H7        -0.4127    5.4166   17.3406 H         1 RES1    0.0000
     42 H8         0.9142    5.4166   16.1539 H         1 RES1    0.0000
     43 H9         2.2012    0.8960   18.5585 H         1 RES1    0.0000
     44 H10        0.5343   -0.3639   17.2640 H         1 RES1    0.0000
     45 H11       -1.3740   -0.3926   15.6031 H         1 RES1    0.0000
     46 H12       -2.8740    0.8369   14.0900 H         1 RES1    0.0000
     47 H13       -2.8536    3.3115   14.0218 H         1 RES1    0.0000
     48 H14       -1.2790    4.5871   15.4158 H         1 RES1    0.0000
     49 H15        4.0057    7.1402   13.9225 H         1 RES1    0.0000
     50 H16        5.6247    7.5466   14.5414 H         1 RES1    0.0000
     51 H17        5.1880    5.8609   14.2319 H         1 RES1    0.0000
     52 H18        4.5756    8.8343   16.4406 H         1 RES1    0.0000
     53 H19        2.9575    8.4278   15.8217 H         1 RES1    0.0000
     54 H20        3.3818    8.0750   17.5024 H         1 RES1    0.0000
     55 H21        2.7240    3.8056   24.4977 H         1 RES1    0.0000
     56 H22        1.3199    4.2416   23.4927 H         1 RES1    0.0000
     57 H23        2.4942    3.0547   22.9136 H         1 RES1    0.0000
     58 H24        1.9234    6.6839   23.7113 H         1 RES1    0.0000
     59 H25        3.3276    6.2479   24.7135 H         1 RES1    0.0000
     60 H26        3.5371    7.2631   23.2826 H         1 RES1    0.0000
     61 H27       -1.1645    6.0872   21.0512 H         1 RES1    0.0000
     62 H28        0.3213    5.7805   21.9824 H         1 RES1    0.0000
     63 H29       -0.3231    7.4330   21.8546 H         1 RES1    0.0000
@<TRIPOS>BOND
     1    1   12 1
     2    2   11 1
     3    3   12 1
     4    4   15 1
     5    5   16 1
     6    6   10 1
     7    7    9 1
     8    8   33 2
     9    9   10 1
    10   10   11 1
    11   11   12 1
    12   12   36 1
    13   13    1 1
    14   14    2 1
    15   15   13 1
    16   16   15 1
    17   17    4 1
    18   18    9 1
    19   19   18 1
    20   20    6 1
    21   21   20 ar
    22   22   21 ar
    23   23   22 ar
    24   24   23 ar
    25   25   24 ar
    26   26   25 ar
    27   27   26 ar
    28   28   19 ar
    29   29   14 1
    30   30   14 1
    31   31   17 1
    32   32   17 1
    33   33    7 1
    34   34   33 1
    35   35   11 1
    36   37   13 1
    37   38   15 1
    38   39   16 1
    39   40   16 1
    40   41   18 1
    41   42   18 1
    42   43   21 1
    43   44   22 1
    44   45   24 1
    45   46   25 1
    46   47   26 1
    47   48   27 1
    48   49   29 1
    49   50   29 1
    50   51   29 1
    51   52   30 1
    52   53   30 1
    53   54   30 1
    54   55   31 1
    55   56   31 1
    56   57   31 1
    57   58   32 1
    58   59   32 1
    59   60   32 1
    60   61   34 1
    61   62   34 1
    62   63   34 1
    63    3   14 1
    64    5   17 1
    65   10   13 1
    66   19   20 ar
    67   23   28 ar
    68   27   28 ar
@<TRIPOS>SUBSTRUCTURE
     1 RES1 1

@<TRIPOS>CRYSIN
   8.8760    9.2370   28.3900  90.0000  90.0000  90.0000  19 1

