# MOL2 file generated by ConQuest
# Please check atom types

@<TRIPOS>MOLECULE
JUGQEJ
   128   136     4
SMALL
NO_CHARGES
****
Generated from CSD

@<TRIPOS>ATOM
      1 O1        -3.8999    0.7514    5.2640 O.3       1 RES1    0.0000
      2 O2        -2.9679    3.2063    5.4230 O.2       1 RES1    0.0000
      3 N1        -3.7461    1.5725    4.1066 N.am      1 RES1    0.0000
      4 C1        -5.0829    1.1018    5.9973 C.3       1 RES1    0.0000
      5 H1        -5.8127    1.2243    5.3862 H         1 RES1    0.0000
      6 H2        -4.9304    1.9166    6.4817 H         1 RES1    0.0000
      7 H3        -5.2961    0.3968    6.6142 H         1 RES1    0.0000
      8 C2        -5.0156   -0.8211    1.5873 C.ar      1 RES1    0.0000
      9 H4        -5.4140   -1.6612    1.5328 H         1 RES1    0.0000
     10 C3        -4.7414   -0.1372    0.4285 C.ar      1 RES1    0.0000
     11 H5        -4.9623   -0.5087   -0.3946 H         1 RES1    0.0000
     12 C4        -4.1297    1.1229    0.4844 C.ar      1 RES1    0.0000
     13 H6        -3.9512    1.5873   -0.2989 H         1 RES1    0.0000
     14 C5        -3.7861    1.6823    1.7286 C.ar      1 RES1    0.0000
     15 C6        -4.0839    0.9583    2.9110 C.ar      1 RES1    0.0000
     16 C7        -4.7128   -0.2955    2.8418 C.ar      1 RES1    0.0000
     17 H7        -4.9236   -0.7641    3.6163 H         1 RES1    0.0000
     18 C8        -3.2051    2.9593    1.8347 C.2       1 RES1    0.0000
     19 H8        -3.0092    3.4258    1.0557 H         1 RES1    0.0000
     20 C9        -2.9166    3.5419    3.0465 C.2       1 RES1    0.0000
     21 C10       -3.1812    2.7989    4.2833 C.2       1 RES1    0.0000
     22 C11       -2.3739    4.9034    3.1127 C.ar      1 RES1    0.0000
     23 C12       -2.8188    5.8680    2.2293 C.ar      1 RES1    0.0000
     24 H9        -3.5032    5.6590    1.6359 H         1 RES1    0.0000
     25 C13       -2.2648    7.1492    2.2087 C.ar      1 RES1    0.0000
     26 H10       -2.5149    7.7550    1.5490 H         1 RES1    0.0000
     27 C14       -1.3651    7.5060    3.1466 C.ar      1 RES1    0.0000
     28 H11       -1.0376    8.3756    3.1687 H         1 RES1    0.0000
     29 C15       -0.9317    6.5878    4.0684 C.ar      1 RES1    0.0000
     30 H12       -0.3070    6.8368    4.7089 H         1 RES1    0.0000
     31 C16       -1.4054    5.3213    4.0522 C.ar      1 RES1    0.0000
     32 H13       -1.0850    4.7113    4.6765 H         1 RES1    0.0000
     33 O3        -2.1680    6.0917   -2.0776 O.3       2 RES2    0.0000
     34 O4        -3.0137    3.6010   -1.8774 O.2       2 RES2    0.0000
     35 N2        -2.2876    5.2791   -3.2129 N.am      2 RES2    0.0000
     36 C17       -0.8889    5.7857   -1.4018 C.3       2 RES2    0.0000
     37 H14       -0.1846    5.7477   -2.0526 H         2 RES2    0.0000
     38 H15       -0.9575    4.9392   -0.9541 H         2 RES2    0.0000
     39 H16       -0.6950    6.4738   -0.7598 H         2 RES2    0.0000
     40 C18       -1.5594    7.1788   -4.5263 C.ar      2 RES2    0.0000
     41 H17       -1.4057    7.6791   -3.7562 H         2 RES2    0.0000
     42 C19       -1.3195    7.7170   -5.7720 C.ar      2 RES2    0.0000
     43 H18       -1.0196    8.5951   -5.8397 H         2 RES2    0.0000
     44 C20       -1.5159    6.9762   -6.9308 C.ar      2 RES2    0.0000
     45 H19       -1.3549    7.3561   -7.7642 H         2 RES2    0.0000
     46 C21       -1.9533    5.6738   -6.8292 C.ar      2 RES2    0.0000
     47 H20       -2.0805    5.1672   -7.5978 H         2 RES2    0.0000
     48 C22       -2.2092    5.1102   -5.5688 C.ar      2 RES2    0.0000
     49 C23       -2.0298    5.8870   -4.4409 C.ar      2 RES2    0.0000
     50 C24       -2.7037    3.7783   -5.4274 C.2       2 RES2    0.0000
     51 H21       -2.8524    3.2759   -6.1960 H         2 RES2    0.0000
     52 C25       -2.9644    3.2168   -4.2303 C.2       2 RES2    0.0000
     53 C26       -2.7965    4.0042   -3.0023 C.2       2 RES2    0.0000
     54 C27       -3.4328    1.8216   -4.1140 C.ar      2 RES2    0.0000
     55 C28       -4.4803    1.4185   -3.2821 C.ar      2 RES2    0.0000
     56 H22       -4.9138    2.0496   -2.7535 H         2 RES2    0.0000
     57 C29       -4.8795    0.1034   -3.2320 C.ar      2 RES2    0.0000
     58 H23       -5.5766   -0.1520   -2.6710 H         2 RES2    0.0000
     59 C30       -4.2546   -0.8211   -4.0050 C.ar      2 RES2    0.0000
     60 H24       -4.5282   -1.7097   -3.9726 H         2 RES2    0.0000
     61 C31       -3.2305   -0.4623   -4.8267 C.ar      2 RES2    0.0000
     62 H25       -2.8152   -1.1039   -5.3582 H         2 RES2    0.0000
     63 C32       -2.8130    0.8359   -4.8738 C.ar      2 RES2    0.0000
     64 H26       -2.1003    1.0659   -5.4259 H         2 RES2    0.0000
     65 O5         0.4496    0.5594   -1.4327 O.3       3 RES3    0.0000
     66 O6         1.3216    3.0501   -1.6697 O.2       3 RES3    0.0000
     67 N3         0.5397    1.3995   -0.3239 N.am      3 RES3    0.0000
     68 C33       -0.6760    0.8633   -2.2057 C.3       3 RES3    0.0000
     69 H27       -0.6716    0.3293   -3.0023 H         3 RES3    0.0000
     70 H28       -0.6573    1.7942   -2.4443 H         3 RES3    0.0000
     71 H29       -1.4702    0.6797   -1.6992 H         3 RES3    0.0000
     72 C34       -0.3232   -0.4665    0.9541 C.ar      3 RES3    0.0000
     73 H30       -0.4379   -0.9731    0.1841 H         3 RES3    0.0000
     74 C35       -0.6623   -0.9815    2.2278 C.ar      3 RES3    0.0000
     75 H31       -0.9689   -1.8575    2.2941 H         3 RES3    0.0000
     76 C36       -0.5519   -0.2280    3.3631 C.ar      3 RES3    0.0000
     77 H32       -0.8355   -0.5720    4.1788 H         3 RES3    0.0000
     78 C37       -0.0113    1.0659    3.2983 C.ar      3 RES3    0.0000
     79 H33        0.1049    1.5641    4.0742 H         3 RES3    0.0000
     80 C38        0.3531    1.5979    2.0541 C.ar      3 RES3    0.0000
     81 C39        0.1882    0.8274    0.8923 C.ar      3 RES3    0.0000
     82 C40        0.8908    2.9319    1.9068 C.2       3 RES3    0.0000
     83 H34        1.0015    3.4554    2.6681 H         3 RES3    0.0000
     84 C41        1.2396    3.4469    0.7068 C.2       3 RES3    0.0000
     85 C42        1.0524    2.6554   -0.5139 C.2       3 RES3    0.0000
     86 C43        1.7421    4.8316    0.5831 C.ar      3 RES3    0.0000
     87 C44        1.2232    5.8131    1.4194 C.ar      3 RES3    0.0000
     88 H35        0.5601    5.5999    2.0349 H         3 RES3    0.0000
     89 C45        1.6993    7.1239    1.3340 C.ar      3 RES3    0.0000
     90 H36        1.3442    7.7740    1.8980 H         3 RES3    0.0000
     91 C46        2.6722    7.4764    0.4461 C.ar      3 RES3    0.0000
     92 H37        2.9745    8.3524    0.3873 H         3 RES3    0.0000
     93 C47        3.1991    6.4801   -0.3696 C.ar      3 RES3    0.0000
     94 H38        3.8736    6.7018   -0.9703 H         3 RES3    0.0000
     95 C48        2.7625    5.1925   -0.3180 C.ar      3 RES3    0.0000
     96 H39        3.1375    4.5509   -0.8776 H         3 RES3    0.0000
     97 O7         1.2098    3.6707   -9.0511 O.2       4 RES4    0.0000
     98 O8         2.1432    6.1297   -8.8685 O.3       4 RES4    0.0000
     99 N4         1.9862    5.3424   -7.7244 N.am      4 RES4    0.0000
    100 C49        3.3108    5.8089   -9.5812 C.3       4 RES4    0.0000
    101 H40        3.3894    6.3894  -10.3439 H         4 RES4    0.0000
    102 H41        3.2666    4.8970   -9.8757 H         4 RES4    0.0000
    103 H42        4.0753    5.9250   -9.0113 H         4 RES4    0.0000
    104 C50        2.8086    7.2358   -6.4670 C.ar      4 RES4    0.0000
    105 H43        2.9605    7.7234   -7.2444 H         4 RES4    0.0000
    106 C51        3.0974    7.7656   -5.2183 C.ar      4 RES4    0.0000
    107 H44        3.4426    8.6268   -5.1609 H         4 RES4    0.0000
    108 C52        2.8868    7.0416   -4.0419 C.ar      4 RES4    0.0000
    109 H45        3.1053    7.4194   -3.2217 H         4 RES4    0.0000
    110 C53        2.3646    5.7899   -4.0860 C.ar      4 RES4    0.0000
    111 H46        2.2044    5.3129   -3.3042 H         4 RES4    0.0000
    112 C54        2.0670    5.2242   -5.3567 C.ar      4 RES4    0.0000
    113 C55        2.2881    5.9630   -6.5141 C.ar      4 RES4    0.0000
    114 C56        1.5271    3.8965   -5.4834 C.2       4 RES4    0.0000
    115 H47        1.3727    3.4068   -4.7089 H         4 RES4    0.0000
    116 C57        1.2324    3.3287   -6.6790 C.2       4 RES4    0.0000
    117 C58        1.4505    4.0844   -7.9114 C.2       4 RES4    0.0000
    118 C59        0.7152    1.9314   -6.7776 C.ar      4 RES4    0.0000
    119 C60        1.2592    0.9456   -5.9634 C.ar      4 RES4    0.0000
    120 H48        1.9529    1.1673   -5.3847 H         4 RES4    0.0000
    121 C61        0.7932   -0.3462   -5.9958 C.ar      4 RES4    0.0000
    122 H49        1.1737   -0.9921   -5.4451 H         4 RES4    0.0000
    123 C62       -0.2243   -0.6797   -6.8336 C.ar      4 RES4    0.0000
    124 H50       -0.5395   -1.5535   -6.8498 H         4 RES4    0.0000
    125 C63       -0.7905    0.2575   -7.6552 C.ar      4 RES4    0.0000
    126 H51       -1.4844    0.0211   -8.2265 H         4 RES4    0.0000
    127 C64       -0.3154    1.5768   -7.6258 C.ar      4 RES4    0.0000
    128 H52       -0.6974    2.2163   -8.1824 H         4 RES4    0.0000
@<TRIPOS>BOND
     1    1    3 1
     2    2   21 2
     3    3   15 1
     4    4    1 1
     5    5    4 1
     6    6    4 1
     7    7    4 1
     8    8    9 1
     9   10    8 ar
    10   11   10 1
    11   12   10 ar
    12   13   12 1
    13   14   12 ar
    14   15   14 ar
    15   16    8 ar
    16   17   16 1
    17   18   14 1
    18   19   18 1
    19   20   18 2
    20   21    3 1
    21   22   20 1
    22   23   22 ar
    23   24   23 1
    24   25   23 ar
    25   26   25 1
    26   27   25 ar
    27   28   27 1
    28   29   27 ar
    29   30   29 1
    30   31   22 ar
    31   32   31 1
    32   33   35 1
    33   34   53 2
    34   35   49 1
    35   36   33 1
    36   37   36 1
    37   38   36 1
    38   39   36 1
    39   40   41 1
    40   42   40 ar
    41   43   42 1
    42   44   42 ar
    43   45   44 1
    44   46   44 ar
    45   47   46 1
    46   48   46 ar
    47   49   40 ar
    48   50   48 1
    49   51   50 1
    50   52   50 2
    51   53   35 1
    52   54   52 1
    53   55   54 ar
    54   56   55 1
    55   57   55 ar
    56   58   57 1
    57   59   57 ar
    58   60   59 1
    59   61   59 ar
    60   62   61 1
    61   63   54 ar
    62   64   63 1
    63   65   67 1
    64   66   85 2
    65   67   81 1
    66   68   65 1
    67   69   68 1
    68   70   68 1
    69   71   68 1
    70   72   73 1
    71   74   72 ar
    72   75   74 1
    73   76   74 ar
    74   77   76 1
    75   78   76 ar
    76   79   78 1
    77   80   78 ar
    78   81   72 ar
    79   82   80 1
    80   83   82 1
    81   84   82 2
    82   85   67 1
    83   86   84 1
    84   87   86 ar
    85   88   87 1
    86   89   87 ar
    87   90   89 1
    88   91   89 ar
    89   92   91 1
    90   93   91 ar
    91   94   93 1
    92   95   86 ar
    93   96   95 1
    94   97  117 2
    95   98   99 1
    96   99  113 1
    97  100   98 1
    98  101  100 1
    99  102  100 1
   100  103  100 1
   101  104  105 1
   102  106  104 ar
   103  107  106 1
   104  108  106 ar
   105  109  108 1
   106  110  108 ar
   107  111  110 1
   108  112  110 ar
   109  113  104 ar
   110  114  112 1
   111  115  114 1
   112  116  114 2
   113  117   99 1
   114  118  116 1
   115  119  118 ar
   116  120  119 1
   117  121  119 ar
   118  122  121 1
   119  123  121 ar
   120  124  123 1
   121  125  123 ar
   122  126  125 1
   123  127  118 ar
   124  128  127 1
   125   15   16 ar
   126   20   21 1
   127   29   31 ar
   128   48   49 ar
   129   52   53 1
   130   61   63 ar
   131   80   81 ar
   132   84   85 1
   133   93   95 ar
   134  112  113 ar
   135  116  117 1
   136  125  127 ar
@<TRIPOS>SUBSTRUCTURE
     1 RES1 1
     2 RES2 33
     3 RES3 65
     4 RES4 97

@<TRIPOS>CRYSIN
   8.3004   21.1079   14.7263  90.0000  90.9170  90.0000   4 1

