# MOL2 file generated by ConQuest
# Please check atom types

@<TRIPOS>MOLECULE
JUGQAF
    44    46     1
SMALL
NO_CHARGES
****
Generated from CSD

@<TRIPOS>ATOM
      1 C1        13.4056   -1.3842    6.6089 C.3       1 RES1    0.0000
      2 H1        14.2399   -1.2506    6.1543 H         1 RES1    0.0000
      3 H2        13.2660   -2.3235    6.7523 H         1 RES1    0.0000
      4 H3        13.4263   -0.9314    7.4549 H         1 RES1    0.0000
      5 C2        12.2777   -0.8308    5.7677 C.ar      1 RES1    0.0000
      6 C3        10.9722   -1.2323    5.9569 C.ar      1 RES1    0.0000
      7 H4        10.7892   -1.8721    6.6066 H         1 RES1    0.0000
      8 C4         9.9318   -0.7220    5.2214 C.ar      1 RES1    0.0000
      9 H5         9.0650   -1.0241    5.3729 H         1 RES1    0.0000
     10 C5        10.1690    0.2476    4.2485 C.ar      1 RES1    0.0000
     11 C6        11.4881    0.6561    4.0511 C.ar      1 RES1    0.0000
     12 H6        11.6750    1.2973    3.4038 H         1 RES1    0.0000
     13 C7        12.5113    0.1321    4.7913 C.ar      1 RES1    0.0000
     14 H7        13.3802    0.4253    4.6386 H         1 RES1    0.0000
     15 C8         9.0771    0.8113    3.4296 C.ar      1 RES1    0.0000
     16 C9         7.7391    0.8193    3.8455 C.ar      1 RES1    0.0000
     17 H8         7.5375    0.5344    4.7079 H         1 RES1    0.0000
     18 C10        7.0850    1.6699    1.8482 C.ar      1 RES1    0.0000
     19 C11        8.4340    1.7775    1.4593 C.ar      1 RES1    0.0000
     20 C12        8.8600    2.3270    0.1433 C.ar      1 RES1    0.0000
     21 C13        9.8563    1.6548   -0.5510 C.ar      1 RES1    0.0000
     22 H9        10.2575    0.9061   -0.1727 H         1 RES1    0.0000
     23 C14       10.2533    2.0861   -1.7929 C.ar      1 RES1    0.0000
     24 H10       10.9026    1.6235   -2.2700 H         1 RES1    0.0000
     25 C15        9.6695    3.2191   -2.3169 C.ar      1 RES1    0.0000
     26 C16        8.7219    3.9384   -1.6367 C.ar      1 RES1    0.0000
     27 H11        8.3600    4.7156   -1.9974 H         1 RES1    0.0000
     28 C17        8.3215    3.4803   -0.4089 C.ar      1 RES1    0.0000
     29 H12        7.6749    3.9528    0.0658 H         1 RES1    0.0000
     30 C18        5.9233    1.9512    0.9458 C.2       1 RES1    0.0000
     31 C19        4.9560    1.3947   -1.1690 C.3       1 RES1    0.0000
     32 H13        4.1262    1.6274   -0.7226 H         1 RES1    0.0000
     33 H14        4.8254    0.5459   -1.6214 H         1 RES1    0.0000
     34 C20        5.2830    2.4380   -2.1701 C.3       1 RES1    0.0000
     35 H15        5.3422    3.2912   -1.7354 H         1 RES1    0.0000
     36 H16        4.5952    2.4659   -2.8398 H         1 RES1    0.0000
     37 H17        6.1242    2.2305   -2.5848 H         1 RES1    0.0000
     38 N1         6.7506    1.2178    3.0583 N.ar      1 RES1    0.0000
     39 N2         9.4052    1.3214    2.2429 N.ar      1 RES1    0.0000
     40 N3        10.0794    3.6629   -3.6622 N.pl3     1 RES1    0.0000
     41 O1         9.6533    4.7162   -4.0782 O.2       1 RES1    0.0000
     42 O2        10.8282    2.9327   -4.2967 O.2       1 RES1    0.0000
     43 O3         5.0152    2.6716    1.2207 O.2       1 RES1    0.0000
     44 O4         6.0170    1.2559   -0.1762 O.3       1 RES1    0.0000
@<TRIPOS>BOND
     1    1    2 1
     2    3    1 1
     3    4    1 1
     4    5    1 1
     5    6    5 ar
     6    7    6 1
     7    8    6 ar
     8    9    8 1
     9   10    8 ar
    10   11   10 ar
    11   12   11 1
    12   13    5 ar
    13   14   13 1
    14   15   10 1
    15   16   15 ar
    16   17   16 1
    17   18   19 ar
    18   19   20 1
    19   20   21 ar
    20   21   22 1
    21   23   21 ar
    22   24   23 1
    23   25   23 ar
    24   26   25 ar
    25   27   26 1
    26   28   20 ar
    27   29   28 1
    28   30   18 1
    29   31   32 1
    30   33   31 1
    31   34   31 1
    32   35   34 1
    33   36   34 1
    34   37   34 1
    35   38   16 ar
    36   39   15 ar
    37   40   25 1
    38   41   40 2
    39   42   40 2
    40   43   30 2
    41   44   30 1
    42   11   13 ar
    43   18   38 ar
    44   19   39 ar
    45   26   28 ar
    46   31   44 1
@<TRIPOS>SUBSTRUCTURE
     1 RES1 1

@<TRIPOS>CRYSIN
   8.8975    8.9207   11.9762  78.8932  88.2809  74.9253   2 1

