# MOL2 file generated by ConQuest
# Please check atom types

@<TRIPOS>MOLECULE
JUGSOT
    38    38     2
SMALL
NO_CHARGES
****
Generated from CSD

@<TRIPOS>ATOM
      1 C1        -2.2688   -2.1906    8.7229 C.ar      1 RES1    0.0000
      2 C2        -2.5778   -2.6753    7.4516 C.ar      1 RES1    0.0000
      3 C3        -3.3965   -3.7963    7.3122 C.ar      1 RES1    0.0000
      4 C4        -3.9068   -4.4321    8.4452 C.ar      1 RES1    0.0000
      5 C5        -3.5977   -3.9474    9.7165 C.ar      1 RES1    0.0000
      6 C6        -2.7791   -2.8264    9.8559 C.ar      1 RES1    0.0000
      7 C7        -2.3152    0.3033    8.7973 C.ar      1 RES1    0.0000
      8 C8        -2.7234    0.7470    7.5390 C.ar      1 RES1    0.0000
      9 C9        -3.5526    1.8641    7.4291 C.ar      1 RES1    0.0000
     10 C10       -3.9733    2.5367    8.5775 C.ar      1 RES1    0.0000
     11 C11       -3.5637    2.0925    9.8346 C.ar      1 RES1    0.0000
     12 C12       -2.7345    0.9754    9.9445 C.ar      1 RES1    0.0000
     13 N1        -0.4332   -0.9479    7.6891 N.3       1 RES1    0.0000
     14 N2        -0.6833   -0.9342   10.1761 N.3       1 RES1    0.0000
     15 C13       -1.4376   -0.9328    8.8611 C.3       1 RES1    0.0000
     16 C14        0.6882   -0.9489    9.8476 C.3       1 RES1    0.0000
     17 C15        0.8889   -0.8826    8.3684 C.3       1 RES1    0.0000
     18 O1         0.3856    0.3500    7.8734 O.3       1 RES1    0.0000
     19 O2         0.1569   -2.1900   10.2931 O.3       1 RES1    0.0000
     20 C16        1.7662   -0.2626   10.8070 C.3       1 RES1    0.0000
     21 C17        2.0672   -1.5255    7.7363 C.3       1 RES1    0.0000
     22 H1        -2.2136   -2.2224    6.6399 H         1 RES1    0.0000
     23 H2        -3.6206   -4.1427    6.4036 H         1 RES1    0.0000
     24 H3        -4.4951   -5.2355    8.3412 H         1 RES1    0.0000
     25 H4        -3.9606   -4.4025   10.5270 H         1 RES1    0.0000
     26 H5        -2.5535   -2.4822   10.7633 H         1 RES1    0.0000
     27 H6        -2.4222    0.2667    6.7108 H         1 RES1    0.0000
     28 H7        -3.8420    2.1823    6.5218 H         1 RES1    0.0000
     29 H8        -4.5680    3.3407    8.4948 H         1 RES1    0.0000
     30 H9        -3.8703    2.5755   10.6569 H         1 RES1    0.0000
     31 H10       -2.4424    0.6599   10.8460 H         1 RES1    0.0000
     32 H11        2.8829   -1.0889    8.1286 H         1 RES1    0.0000
     33 H12        2.3319   -2.4134    8.2822 H         1 RES1    0.0000
     34 H13        2.2030   -0.8402    7.3724 H         1 RES1    0.0000
     35 O3         0.2835   -2.2714    7.8415 Du        2 SUP2    0.0000
     36 O4         0.0622    0.2941   10.1076 Du        2 SUP2    0.0000
     37 C18        1.6314   -1.7545   10.6581 Du        2 SUP2    0.0000
     38 C19        1.9809   -0.0996    7.5686 Du        2 SUP2    0.0000
@<TRIPOS>BOND
     1    1    2 ar
     2    2    3 ar
     3    3    4 ar
     4    4    5 ar
     5    5    6 ar
     6    6    1 ar
     7    7    8 ar
     8    8    9 ar
     9    9   10 ar
    10   10   11 ar
    11   11   12 ar
    12   12    7 ar
    13   13   15 1
    14   14   15 1
    15   15    1 1
    16   16   14 1
    17   17   13 1
    18   18   13 1
    19   19   14 1
    20   20   16 1
    21   21   17 1
    22   22    2 1
    23   23    3 1
    24   24    4 1
    25   25    5 1
    26   26    6 1
    27   27    8 1
    28   28    9 1
    29   29   10 1
    30   30   11 1
    31   31   12 1
    32   32   21 1
    33   33   21 1
    34   34   21 1
    35    7   15 1
    36   16   17 1
    37   16   19 1
    38   17   18 1
@<TRIPOS>SUBSTRUCTURE
     1 RES1 1
     2 SUP2 35

@<TRIPOS>CRYSIN
   8.0810    8.8540   12.2300  94.9100 100.2900 116.9100   2 1

