# MOL2 file generated by ConQuest
# Please check atom types

@<TRIPOS>MOLECULE
JUHBUJ
    28    23     2
SMALL
NO_CHARGES
****
Generated from CSD

@<TRIPOS>ATOM
      1 O1         6.6788   11.0048   19.8881 O.2       1 RES1    0.0000
      2 N1         6.6874   10.1223   20.8258 N.pl3     1 RES1    0.0000
      3 C1         7.7227   10.2007   21.7533 C.ar      1 RES1    0.0000
      4 C2         7.4998    9.8122   23.0549 C.ar      1 RES1    0.0000
      5 C3         8.5232    9.8266   23.9800 C.ar      1 RES1    0.0000
      6 C4         9.8196   10.2246   23.6362 C.ar      1 RES1    0.0000
      7 C5        10.0025   10.6611   22.3498 C.ar      1 RES1    0.0000
      8 C6         8.9732   10.6723   21.4096 C.ar      1 RES1    0.0000
      9 C7         5.6393    9.1935   20.8232 C.ar      1 RES1    0.0000
     10 C8         5.8596    7.9386   21.3540 C.ar      1 RES1    0.0000
     11 C9         4.8175    7.0354   21.3894 C.ar      1 RES1    0.0000
     12 C10        3.5559    7.3104   20.8915 C.ar      1 RES1    0.0000
     13 C11        3.3960    8.5557   20.3178 C.ar      1 RES1    0.0000
     14 C12        4.4083    9.4893   20.2697 C.ar      1 RES1    0.0000
     15 C13       10.9477   10.1687   24.6775 C.3       1 RES1    0.0000
     16 C14       12.3156   10.3046   24.0330 C.3       1 RES1    0.0000
     17 C15       10.7614   11.3053   25.6860 C.3       1 RES1    0.0000
     18 C16       10.9068    8.8562   25.4459 C.3       1 RES1    0.0000
     19 C17        2.4058    6.3017   21.0002 C.3       1 RES1    0.0000
     20 C18        1.1655    6.7941   20.2697 C.3       1 RES1    0.0000
     21 C19        2.8073    4.9716   20.6741 C.3       1 RES1    0.0000
     22 C20        1.9226    6.3145   22.5191 C.3       1 RES1    0.0000
     23 C21        0.9613    7.0658   20.9269 Du        2 SUP2    0.0000
     24 C22        2.4926    5.4352   19.7390 Du        2 SUP2    0.0000
     25 C23        2.4670    5.5631   22.1906 Du        2 SUP2    0.0000
     26 C24        1.4887    6.6662   22.0895 Du        2 SUP2    0.0000
     27 C25        1.6248    6.1706   19.7643 Du        2 SUP2    0.0000
     28 C26        2.8924    4.7958   21.3313 Du        2 SUP2    0.0000
@<TRIPOS>BOND
     1    1    2 1
     2    2    3 1
     3    3    4 ar
     4    4    5 ar
     5    5    6 ar
     6    6    7 ar
     7    7    8 ar
     8    8    3 ar
     9    9    2 1
    10   10    9 ar
    11   11   10 ar
    12   12   11 ar
    13   13   12 ar
    14   14    9 ar
    15   15    6 1
    16   16   15 1
    17   17   15 1
    18   18   15 1
    19   19   12 1
    20   20   19 1
    21   21   19 1
    22   22   19 1
    23   13   14 ar
@<TRIPOS>SUBSTRUCTURE
     1 RES1 1
     2 SUP2 23

@<TRIPOS>CRYSIN
   8.5070   15.9860   25.2740  90.0000  90.0000  90.0000  56 2

