# MOL2 file generated by ConQuest
# Please check atom types

@<TRIPOS>MOLECULE
JUHFUN
    19    18     2
SMALL
NO_CHARGES
****
Generated from CSD

@<TRIPOS>ATOM
      1 N1         2.1860    9.2346    0.6182 N.pl3     1 RES1    0.0000
      2 N2         3.1148   11.8604    3.0663 N.3       1 RES1    0.0000
      3 N3         0.0113   10.4004    3.0663 N.3       1 RES1    0.0000
      4 C1         2.1122   10.0714    1.8925 C.3       1 RES1    0.0000
      5 C2         3.2504   11.0716    1.8496 C.3       1 RES1    0.0000
      6 C3         0.7255   10.7461    1.8263 C.3       1 RES1    0.0000
      7 C4         2.2495    9.1372    3.0663 C.3       1 RES1    0.0000
      8 C5         4.0193   13.0732    3.0663 C.3       1 RES1    0.0000
      9 C6        -1.3311   11.0090    3.0663 C.3       1 RES1    0.0000
     10 O1         1.5066    8.1538    0.6268 O.2       1 RES1    0.0000
     11 O2         2.1704    9.8924   -0.4857 Du        2 SUP2    0.0000
     12 O3         3.0201    9.3532   -0.1337 O.2       1 RES1    0.0000
     13 O4         2.4363    8.1516    0.5654 Du        2 SUP2    0.0000
     14 C2G        3.2504   11.0716    4.2830 C.3       1 RES1    0.0000
     15 C3G        0.7255   10.7461    4.3063 C.3       1 RES1    0.0000
     16 C1G        2.1122   10.0714    4.2401 C.3       1 RES1    0.0000
     17 N1G        2.1860    9.2346    5.5144 N.pl3     1 RES1    0.0000
     18 O1G        1.5066    8.1538    5.5058 O.2       1 RES1    0.0000
     19 O3G        3.0201    9.3532    6.2663 O.2       1 RES1    0.0000
@<TRIPOS>BOND
     1    1    4 1
     2    2    5 1
     3    3    6 1
     4    4    5 1
     5    6    4 1
     6    7    4 1
     7    8    2 1
     8    9    3 1
     9   10    1 2
    10   12    1 2
    11   14    2 1
    12   15    3 1
    13   16    7 1
    14   17   16 1
    15   18   17 2
    16   19   17 2
    17   14   16 1
    18   15   16 1
@<TRIPOS>SUBSTRUCTURE
     1 RES1 1
     2 SUP2 11

@<TRIPOS>CRYSIN
   8.6885   11.1880   12.2652  90.0000  90.0000  90.0000  62 4

