# MOL2 file generated by ConQuest
# Please check atom types

@<TRIPOS>MOLECULE
JUJXUH
    60    64     2
SMALL
NO_CHARGES
****
Generated from CSD

@<TRIPOS>ATOM
      1 O1        15.7200    4.4394    7.7693 O.2       1 RES1    0.0000
      2 O2        18.1988    2.8303    3.3080 O.2       1 RES1    0.0000
      3 O3        19.8179    6.1599    6.4341 O.2       1 RES1    0.0000
      4 O4        19.1112    7.8864    7.6599 O.3       1 RES1    0.0000
      5 O5        18.2937    1.0641    9.7985 O.2       1 RES1    0.0000
      6 O6        19.1024    1.6429    7.8107 O.3       1 RES1    0.0000
      7 N1        16.3230    4.0277    6.7161 N.pl3     1 RES1    0.0000
      8 N2        17.6152    3.2102    4.3957 N.pl3     1 RES1    0.0000
      9 N3        17.2249    5.1714   10.2370 N.pl3     1 RES1    0.0000
     10 C1        17.6609    3.9283    6.6758 C.ar      1 RES1    0.0000
     11 C2        18.3236    3.5166    5.4857 C.ar      1 RES1    0.0000
     12 C3        16.2351    3.2560    4.4175 C.ar      1 RES1    0.0000
     13 C4        15.5003    2.9298    3.2343 C.ar      1 RES1    0.0000
     14 C5        14.1203    3.0471    3.2919 C.ar      1 RES1    0.0000
     15 C6        13.4592    3.4609    4.4774 C.ar      1 RES1    0.0000
     16 C7        14.1818    3.7871    5.5939 C.ar      1 RES1    0.0000
     17 C8        15.5759    3.6896    5.5939 C.ar      1 RES1    0.0000
     18 C9        18.5364    4.2306    7.9005 C.3       1 RES1    0.0000
     19 C10       18.4238    5.7104    8.2711 C.2       1 RES1    0.0000
     20 C11       17.7171    6.1182    9.3807 C.2       1 RES1    0.0000
     21 C12       17.5185    3.8169   10.1288 C.2       1 RES1    0.0000
     22 C13       18.1549    3.3316    9.0641 C.2       1 RES1    0.0000
     23 C14       19.1763    6.5776    7.3894 C.2       1 RES1    0.0000
     24 C15       19.8777    8.7715    6.7564 C.3       1 RES1    0.0000
     25 C16       19.7423   10.1578    7.3664 C.3       1 RES1    0.0000
     26 C17       18.5012    1.9373    8.9663 C.2       1 RES1    0.0000
     27 C18       19.4470    0.2248    7.5851 C.3       1 RES1    0.0000
     28 C19       19.9357    0.1392    6.2154 C.3       1 RES1    0.0000
     29 C20       17.4411    7.5224    9.8065 C.3       1 RES1    0.0000
     30 C21       17.0210    3.0392   11.3373 C.3       1 RES1    0.0000
     31 O7        15.1083    5.7422    0.4800 O.2       2 RES2    0.0000
     32 O8        12.6611    7.1286    5.0322 O.2       2 RES2    0.0000
     33 O9        10.9928    4.1331    1.7553 O.2       2 RES2    0.0000
     34 O10       11.6503    2.4107    0.5064 O.3       2 RES2    0.0000
     35 O11       12.8932    9.3423   -1.2431 O.2       2 RES2    0.0000
     36 O12       11.7610    8.6681    0.5341 O.3       2 RES2    0.0000
     37 N4        14.5017    6.1261    1.5734 N.pl3     2 RES2    0.0000
     38 N5        13.2606    6.8501    3.9376 N.pl3     2 RES2    0.0000
     39 N6        13.5911    5.1654   -2.0108 N.pl3     2 RES2    0.0000
     40 C22       13.1815    6.2574    1.6344 C.ar      2 RES2    0.0000
     41 C23       12.5099    6.6094    2.8199 C.ar      2 RES2    0.0000
     42 C24       14.6248    6.7745    3.8858 C.ar      2 RES2    0.0000
     43 C25       15.3755    7.0610    5.0414 C.ar      2 RES2    0.0000
     44 C26       16.7450    6.9893    4.9953 C.ar      2 RES2    0.0000
     45 C27       17.3884    6.5398    3.7983 C.ar      2 RES2    0.0000
     46 C28       16.6483    6.2415    2.6818 C.ar      2 RES2    0.0000
     47 C29       15.2858    6.3807    2.7048 C.ar      2 RES2    0.0000
     48 C30       12.3201    6.0466    0.3810 C.3       2 RES2    0.0000
     49 C31       12.3517    4.6165   -0.0955 C.2       2 RES2    0.0000
     50 C32       13.0479    4.2306   -1.1740 C.2       2 RES2    0.0000
     51 C33       13.3731    6.5279   -1.8531 C.2       2 RES2    0.0000
     52 C34       12.7701    7.0132   -0.7493 C.2       2 RES2    0.0000
     53 C35       11.5905    3.7194    0.8368 C.2       2 RES2    0.0000
     54 C36       10.8908    1.5236    1.4042 C.3       2 RES2    0.0000
     55 C37       10.9523    0.2069    0.8517 C.3       2 RES2    0.0000
     56 C38       12.5047    8.4174   -0.5525 C.2       2 RES2    0.0000
     57 C39       11.3567   10.0484    0.8057 C.3       2 RES2    0.0000
     58 C40       11.0051   10.1280    2.2214 C.3       2 RES2    0.0000
     59 C41       13.2694    2.8204   -1.7380 C.3       2 RES2    0.0000
     60 C42       13.9163    7.3593   -3.0156 C.3       2 RES2    0.0000
@<TRIPOS>BOND
     1    1    7 1
     2    2    8 1
     3    3   23 2
     4    4   23 1
     5    5   26 2
     6    6   26 1
     7    7   10 ar
     8    8   11 ar
     9    9   20 1
    10   10   11 ar
    11   12    8 ar
    12   13   12 ar
    13   14   13 ar
    14   15   14 ar
    15   16   15 ar
    16   17    7 ar
    17   18   10 1
    18   19   18 1
    19   20   19 2
    20   21    9 1
    21   22   18 1
    22   23   19 1
    23   24    4 1
    24   25   24 1
    25   26   22 1
    26   27    6 1
    27   28   27 1
    28   29   20 1
    29   30   21 1
    30   31   37 1
    31   32   38 1
    32   33   53 2
    33   34   53 1
    34   35   56 2
    35   36   56 1
    36   37   40 ar
    37   38   41 ar
    38   39   50 1
    39   40   41 ar
    40   42   38 ar
    41   43   42 ar
    42   44   43 ar
    43   45   44 ar
    44   46   45 ar
    45   47   37 ar
    46   48   40 1
    47   49   48 1
    48   50   49 2
    49   51   39 1
    50   52   48 1
    51   53   49 1
    52   54   34 1
    53   55   54 1
    54   56   52 1
    55   57   36 1
    56   58   57 1
    57   59   50 1
    58   60   51 1
    59   12   17 ar
    60   16   17 ar
    61   21   22 2
    62   42   47 ar
    63   46   47 ar
    64   51   52 2
@<TRIPOS>SUBSTRUCTURE
     1 RES1 1
     2 RES2 31

@<TRIPOS>CRYSIN
  17.5800   19.8900   11.5100  90.0000  90.0000  90.0000  33 1

