# MOL2 file generated by ConQuest
# Please check atom types

@<TRIPOS>MOLECULE
JUJYAO
    58    62     2
SMALL
NO_CHARGES
****
Generated from CSD

@<TRIPOS>ATOM
      1 O1        15.3589    4.4720    7.7209 O.2       1 RES1    0.0000
      2 O2        19.3997    6.2842    6.4736 O.2       1 RES1    0.0000
      3 O3        18.6764    8.0219    7.7221 O.3       1 RES1    0.0000
      4 O4        17.8363    1.1270    9.7335 O.2       1 RES1    0.0000
      5 O5        18.7554    1.7318    7.7799 O.3       1 RES1    0.0000
      6 N1        16.0238    4.0702    6.6701 N.pl3     1 RES1    0.0000
      7 N2        17.3827    3.2144    4.3581 N.ar      1 RES1    0.0000
      8 N3        16.8330    5.2676   10.2768 N.pl3     1 RES1    0.0000
      9 C1        17.3690    3.9738    6.6932 C.ar      1 RES1    0.0000
     10 C2        17.9961    3.5760    5.4563 C.ar      1 RES1    0.0000
     11 C3        15.9877    3.2606    4.4390 C.ar      1 RES1    0.0000
     12 C4        15.3246    2.9351    3.2484 C.ar      1 RES1    0.0000
     13 C5        13.8986    2.9653    3.2484 C.ar      1 RES1    0.0000
     14 C6        13.3626    3.4113    4.3466 C.ar      1 RES1    0.0000
     15 C7        13.8797    3.7890    5.5141 C.ar      1 RES1    0.0000
     16 C8        15.3177    3.7247    5.5141 C.ar      1 RES1    0.0000
     17 C9        18.1335    4.2852    7.9533 C.3       1 RES1    0.0000
     18 C10       18.0991    5.8140    8.2885 C.2       1 RES1    0.0000
     19 C11       17.3260    6.1877    9.4214 C.2       1 RES1    0.0000
     20 C12       17.1182    3.8492   10.1959 C.2       1 RES1    0.0000
     21 C13       17.7349    3.3530    9.0977 C.2       1 RES1    0.0000
     22 C14       18.8121    6.6639    7.3753 C.2       1 RES1    0.0000
     23 C15       19.3790    8.9059    6.8666 C.3       1 RES1    0.0000
     24 C16       19.2931   10.2077    7.3406 C.3       1 RES1    0.0000
     25 C17       18.1077    2.0150    8.9128 C.2       1 RES1    0.0000
     26 C18       19.1042    0.3355    7.4793 C.3       1 RES1    0.0000
     27 C19       19.5680    0.3335    6.1846 C.3       1 RES1    0.0000
     28 C20       17.0082    7.5739    9.8838 C.3       1 RES1    0.0000
     29 C21       16.6131    3.0939   11.3750 C.3       1 RES1    0.0000
     30 O6        14.7301    5.8100    0.6358 O.2       2 RES2    0.0000
     31 O7        10.5657    4.2390    1.7802 O.2       2 RES2    0.0000
     32 O8        11.3388    2.5052    0.6127 O.3       2 RES2    0.0000
     33 O9        12.6617    9.3298   -1.3872 O.2       2 RES2    0.0000
     34 O10       11.4762    8.7231    0.4508 O.3       2 RES2    0.0000
     35 N4        14.0704    6.1958    1.6415 N.pl3     2 RES2    0.0000
     36 N5        12.5929    7.0958    3.9304 N.ar      2 RES2    0.0000
     37 N6        13.2630    5.1430   -1.9652 N.pl3     2 RES2    0.0000
     38 C22       12.7132    6.3685    1.6531 C.ar      2 RES2    0.0000
     39 C23       12.0604    6.7904    2.7050 C.ar      2 RES2    0.0000
     40 C24       13.8471    6.9913    3.9188 C.ar      2 RES2    0.0000
     41 C25       14.7404    7.3128    5.0517 C.ar      2 RES2    0.0000
     42 C26       16.1492    7.1520    5.1211 C.ar      2 RES2    0.0000
     43 C27       16.9051    6.6699    3.9998 C.ar      2 RES2    0.0000
     44 C28       16.1664    6.3886    2.9131 C.ar      2 RES2    0.0000
     45 C29       14.7576    6.5092    2.8206 C.ar      2 RES2    0.0000
     46 C30       11.9573    6.0471    0.3815 C.3       2 RES2    0.0000
     47 C31       12.0088    4.6609   -0.0925 C.2       2 RES2    0.0000
     48 C32       12.6960    4.2390   -1.1560 C.2       2 RES2    0.0000
     49 C33       13.1083    6.5092   -1.8380 C.2       2 RES2    0.0000
     50 C34       12.4383    6.9712   -0.6705 C.2       2 RES2    0.0000
     51 C35       11.2529    3.8372    0.8901 C.2       2 RES2    0.0000
     52 C36       10.6172    1.7679    1.5837 C.3       2 RES2    0.0000
     53 C37       10.8234    0.4420    1.0520 C.3       2 RES2    0.0000
     54 C38       12.2150    8.4579   -0.6705 C.2       2 RES2    0.0000
     55 C39       11.1326   10.1254    0.6011 C.3       2 RES2    0.0000
     56 C40       10.7547   10.3263    2.0230 C.3       2 RES2    0.0000
     57 C41       12.8163    2.8528   -1.6415 C.3       2 RES2    0.0000
     58 C42       13.6066    7.1721   -3.0056 C.3       2 RES2    0.0000
@<TRIPOS>BOND
     1    1    6 1
     2    2   22 2
     3    3   22 1
     4    4   25 2
     5    5   25 1
     6    6    9 ar
     7    7   10 ar
     8    8   19 1
     9    9   10 ar
    10   11    7 ar
    11   12   11 ar
    12   13   12 ar
    13   14   13 ar
    14   15   14 ar
    15   16    6 ar
    16   17    9 1
    17   18   17 1
    18   19   18 2
    19   20    8 1
    20   21   17 1
    21   22   18 1
    22   23    3 1
    23   24   23 1
    24   25   21 1
    25   26    5 1
    26   27   26 1
    27   28   19 1
    28   29   20 1
    29   30   35 1
    30   31   51 2
    31   32   51 1
    32   33   54 2
    33   34   54 1
    34   35   38 ar
    35   36   39 ar
    36   37   48 1
    37   38   39 ar
    38   40   36 ar
    39   41   40 ar
    40   42   41 ar
    41   43   42 ar
    42   44   43 ar
    43   45   35 ar
    44   46   38 1
    45   47   46 1
    46   48   47 2
    47   49   37 1
    48   50   46 1
    49   51   47 1
    50   52   32 1
    51   53   52 1
    52   54   50 1
    53   55   34 1
    54   56   55 1
    55   57   48 1
    56   58   49 1
    57   11   16 ar
    58   15   16 ar
    59   20   21 2
    60   40   45 ar
    61   44   45 ar
    62   49   50 2
@<TRIPOS>SUBSTRUCTURE
     1 RES1 1
     2 RES2 30

@<TRIPOS>CRYSIN
  17.1800   20.0900   11.5600  90.0000  90.0000  90.0000  33 1

