# MOL2 file generated by ConQuest
# Please check atom types

@<TRIPOS>MOLECULE
JUKCUN
    29    32     1
SMALL
NO_CHARGES
****
Generated from CSD

@<TRIPOS>ATOM
      1 C1        -0.7310   -8.3681   -6.3049 C.3       1 RES1    0.0000
      2 C2        -1.6794   -7.2022   -6.1851 C.3       1 RES1    0.0000
      3 O1        -0.9512   -6.0084   -5.8321 O.3       1 RES1    0.0000
      4 N1        -1.6254   -4.8897   -6.4026 N.2       1 RES1    0.0000
      5 C3        -2.4346   -5.3137   -7.3019 C.2       1 RES1    0.0000
      6 C4        -2.4038   -6.8062   -7.4766 C.3       1 RES1    0.0000
      7 C5        -1.6546   -7.2495   -8.7332 C.2       1 RES1    0.0000
      8 O2        -1.7196   -6.6737   -9.7872 O.2       1 RES1    0.0000
      9 C6        -0.7893   -8.4811   -8.5309 C.3       1 RES1    0.0000
     10 O3        -1.5924   -9.5567   -8.1001 O.3       1 RES1    0.0000
     11 C7        -1.4631   -9.6412   -6.6602 C.3       1 RES1    0.0000
     12 O4         0.0969   -8.1883   -7.4737 O.3       1 RES1    0.0000
     13 C8        -3.3098   -4.3701   -8.0254 C.ar      1 RES1    0.0000
     14 C9        -3.1617   -2.9955   -7.8387 C.ar      1 RES1    0.0000
     15 C10       -4.0622   -2.1100   -8.4313 C.ar      1 RES1    0.0000
     16 C11       -5.1108   -2.5990   -9.2104 C.ar      1 RES1    0.0000
     17 C12       -5.2589   -3.9735   -9.3970 C.ar      1 RES1    0.0000
     18 C13       -4.3584   -4.8591   -8.8045 C.ar      1 RES1    0.0000
     19 H1        -0.2042   -8.4222   -5.3645 H         1 RES1    0.0000
     20 H2        -2.3966   -7.5403   -5.4524 H         1 RES1    0.0000
     21 H3        -3.3720   -7.2621   -7.6178 H         1 RES1    0.0000
     22 H4        -0.2802   -8.7352   -9.4485 H         1 RES1    0.0000
     23 H5        -0.8901  -10.5106   -6.3729 H         1 RES1    0.0000
     24 H6        -2.4324   -9.6751   -6.1846 H         1 RES1    0.0000
     25 H7        -2.3498   -2.6168   -7.2349 H         1 RES1    0.0000
     26 H8        -3.9472   -1.0461   -8.2873 H         1 RES1    0.0000
     27 H9        -5.8082   -1.9136   -9.6682 H         1 RES1    0.0000
     28 H10       -6.0708   -4.3516  -10.0009 H         1 RES1    0.0000
     29 H11       -4.4734   -5.9233   -8.9485 H         1 RES1    0.0000
@<TRIPOS>BOND
     1    1    2 1
     2    2    3 1
     3    3    4 1
     4    4    5 2
     5    5    6 1
     6    6    2 1
     7    7    6 1
     8    8    7 2
     9    9    7 1
    10   10    9 1
    11   11    1 1
    12   12    1 1
    13   13    5 1
    14   14   13 ar
    15   15   14 ar
    16   16   15 ar
    17   17   16 ar
    18   18   13 ar
    19   19    1 1
    20   20    2 1
    21   21    6 1
    22   22    9 1
    23   23   11 1
    24   24   11 1
    25   25   14 1
    26   26   15 1
    27   27   16 1
    28   28   17 1
    29   29   18 1
    30    9   12 1
    31   10   11 1
    32   17   18 ar
@<TRIPOS>SUBSTRUCTURE
     1 RES1 1

@<TRIPOS>CRYSIN
   5.5044    9.6596   20.9223  90.0000  90.0000  90.0000  19 1

