# MOL2 file generated by ConQuest
# Please check atom types

@<TRIPOS>MOLECULE
JUKDOI
    50    54     1
SMALL
NO_CHARGES
****
Generated from CSD

@<TRIPOS>ATOM
      1 O1         3.4105    3.1524    2.5160 O.3       1 RES1    0.0000
      2 O2         1.8084    3.2740    0.9692 O.2       1 RES1    0.0000
      3 O3         2.1020    3.9226    4.7506 O.2       1 RES1    0.0000
      4 O4         6.7569    0.4095    3.9380 O.3       1 RES1    0.0000
      5 N1         2.5639    3.9856    1.6937 N.pl3     1 RES1    0.0000
      6 N2         5.2212    2.8325    3.9319 N.3       1 RES1    0.0000
      7 C1         4.1981    3.7839    3.5648 C.3       1 RES1    0.0000
      8 C2         3.3030    4.0687    4.7922 C.2       1 RES1    0.0000
      9 C3         4.0290    4.6703    5.9596 C.3       1 RES1    0.0000
     10 C4         4.7308    5.9616    5.5484 C.3       1 RES1    0.0000
     11 C5         5.5679    5.7923    4.2696 C.3       1 RES1    0.0000
     12 C6         4.7628    5.1593    3.1169 C.3       1 RES1    0.0000
     13 C7         3.5945    6.0083    2.6457 C.3       1 RES1    0.0000
     14 C8         3.9317    7.2475    1.7793 C.3       1 RES1    0.0000
     15 C9         2.6491    7.5184    0.9692 C.3       1 RES1    0.0000
     16 C10        1.6188    8.4376    1.6410 C.3       1 RES1    0.0000
     17 C11        0.2977    7.8862    1.1895 C.3       1 RES1    0.0000
     18 C12        0.4580    6.3944    1.1564 C.3       1 RES1    0.0000
     19 C13        1.9309    6.1542    0.7905 C.3       1 RES1    0.0000
     20 C14        2.6631    5.2663    1.7365 C.2       1 RES1    0.0000
     21 C15        6.2507    2.5569    2.9039 C.3       1 RES1    0.0000
     22 C16        7.3068    1.6475    3.4803 C.3       1 RES1    0.0000
     23 C17        5.7766    0.6729    4.9317 C.3       1 RES1    0.0000
     24 C18        4.6729    1.5528    4.4214 C.3       1 RES1    0.0000
     25 H1         4.6846    4.0497    6.2851 H         1 RES1    0.0000
     26 H2         3.3991    4.8393    6.6645 H         1 RES1    0.0000
     27 H3         5.2930    6.2644    6.2656 H         1 RES1    0.0000
     28 H4         4.0619    6.6326    5.3942 H         1 RES1    0.0000
     29 H5         6.3284    5.2407    4.4703 H         1 RES1    0.0000
     30 H6         5.8921    6.6502    3.9845 H         1 RES1    0.0000
     31 H7         5.3463    5.0115    2.3692 H         1 RES1    0.0000
     32 H8         3.1017    6.2982    3.4167 H         1 RES1    0.0000
     33 H9         4.6762    7.0579    1.2042 H         1 RES1    0.0000
     34 H10        4.1469    8.0036    2.3312 H         1 RES1    0.0000
     35 H11        2.8769    7.8796    0.1089 H         1 RES1    0.0000
     36 H12        1.7394    9.3533    1.3792 H         1 RES1    0.0000
     37 H13        1.6935    8.3715    2.5956 H         1 RES1    0.0000
     38 H14        0.0969    8.2160    0.3108 H         1 RES1    0.0000
     39 H15       -0.4081    8.1459    1.7867 H         1 RES1    0.0000
     40 H16       -0.1251    5.9971    0.5054 H         1 RES1    0.0000
     41 H17        0.2635    6.0204    2.0192 H         1 RES1    0.0000
     42 H18        2.0149    5.8292   -0.1089 H         1 RES1    0.0000
     43 H19        6.6379    3.3842    2.6102 H         1 RES1    0.0000
     44 H20        5.8514    2.1232    2.1464 H         1 RES1    0.0000
     45 H21        7.9875    1.4744    2.8256 H         1 RES1    0.0000
     46 H22        7.7157    2.0965    4.2244 H         1 RES1    0.0000
     47 H23        6.1949    1.1058    5.6794 H         1 RES1    0.0000
     48 H24        5.4077   -0.1583    5.2376 H         1 RES1    0.0000
     49 H25        4.2209    1.1047    3.7030 H         1 RES1    0.0000
     50 H26        4.0341    1.7220    5.1189 H         1 RES1    0.0000
@<TRIPOS>BOND
     1    1    5 1
     2    2    5 1
     3    3    8 2
     4    4   22 1
     5    5   20 2
     6    6    7 1
     7    7    1 1
     8    8    7 1
     9    9    8 1
    10   10    9 1
    11   11   10 1
    12   12    7 1
    13   13   12 1
    14   14   13 1
    15   15   14 1
    16   16   15 1
    17   17   16 1
    18   18   17 1
    19   19   15 1
    20   20   13 1
    21   21    6 1
    22   22   21 1
    23   23    4 1
    24   24    6 1
    25   25    9 1
    26   26    9 1
    27   27   10 1
    28   28   10 1
    29   29   11 1
    30   30   11 1
    31   31   12 1
    32   32   13 1
    33   33   14 1
    34   34   14 1
    35   35   15 1
    36   36   16 1
    37   37   16 1
    38   38   17 1
    39   39   17 1
    40   40   18 1
    41   41   18 1
    42   42   19 1
    43   43   21 1
    44   44   21 1
    45   45   22 1
    46   46   22 1
    47   47   23 1
    48   48   23 1
    49   49   24 1
    50   50   24 1
    51   11   12 1
    52   18   19 1
    53   19   20 1
    54   23   24 1
@<TRIPOS>SUBSTRUCTURE
     1 RES1 1

@<TRIPOS>CRYSIN
   7.4660    9.1820   13.1850 110.9800  94.7500  93.0300   2 1

