# MOL2 file generated by ConQuest
# Please check atom types

@<TRIPOS>MOLECULE
JUKDUO
   138   147     3
SMALL
NO_CHARGES
****
Generated from CSD

@<TRIPOS>ATOM
      1 O1         7.2645   11.2710    8.1622 O.2       1 RES1    0.0000
      2 O2         4.3336   11.9711    7.3700 O.2       1 RES1    0.0000
      3 O3         4.3761    9.8249    7.5087 O.2       1 RES1    0.0000
      4 O4        11.5432   11.7278    4.6221 O.3       1 RES1    0.0000
      5 O5         3.2664    7.2214   13.7984 O.2       2 RES2    0.0000
      6 O6         0.2778    7.3516   12.3234 O.2       2 RES2    0.0000
      7 O7         0.4238    8.2513   14.2484 O.2       2 RES2    0.0000
      8 O8         7.5108   10.6853   12.9353 O.3       2 RES2    0.0000
      9 O9        -0.0012    0.5338   13.3375 O.2       3 RES3    0.0000
     10 O10        2.9083    0.6420   14.2345 O.2       3 RES3    0.0000
     11 O11        2.9656    1.9078   12.5022 O.2       3 RES3    0.0000
     12 O12       -4.2806    3.1752   15.5445 O.3       3 RES3    0.0000
     13 N1         4.7820   10.8936    7.0741 N.pl3     1 RES1    0.0000
     14 N2         9.1362   10.5913    5.6608 N.3       1 RES1    0.0000
     15 N3         0.7952    8.1304   13.0971 N.pl3     2 RES2    0.0000
     16 N4         5.1197    9.3041   12.2479 N.3       2 RES2    0.0000
     17 N5         2.5237    1.5921   13.5903 N.pl3     3 RES3    0.0000
     18 N6        -1.8175    2.9999   14.1266 N.3       3 RES3    0.0000
     19 C1         7.1906   10.7290    7.0864 C.2       1 RES1    0.0000
     20 C2         5.9814   10.8571    6.1525 C.3       1 RES1    0.0000
     21 C3         6.0361   12.0835    5.2293 C.3       1 RES1    0.0000
     22 C4         6.3535   11.5526    3.9039 C.3       1 RES1    0.0000
     23 C5         5.9705   10.1684    3.8237 C.3       1 RES1    0.0000
     24 C6         6.0220    9.6103    5.2478 C.3       1 RES1    0.0000
     25 C7         7.3037    8.8465    5.5930 C.3       1 RES1    0.0000
     26 C8         7.1337    7.5783    6.4299 C.3       1 RES1    0.0000
     27 C9         7.7284    7.8125    7.7569 C.3       1 RES1    0.0000
     28 C10        8.7935    8.8613    7.5565 C.3       1 RES1    0.0000
     29 C11        8.2113    9.7599    6.4592 C.3       1 RES1    0.0000
     30 C12       10.0602    9.8257    4.8209 C.3       1 RES1    0.0000
     31 C13       10.7949   10.7843    3.8946 C.3       1 RES1    0.0000
     32 C14       10.6689   12.4540    5.4820 C.3       1 RES1    0.0000
     33 C15        9.9217   11.5549    6.4299 C.3       1 RES1    0.0000
     34 C16        8.1141    6.6056    8.5629 C.3       1 RES1    0.0000
     35 C17        3.2047    8.0180   12.9014 C.2       2 RES2    0.0000
     36 C18        1.9865    8.9305   12.6363 C.3       2 RES2    0.0000
     37 C19        2.0656   10.3063   13.3452 C.3       2 RES2    0.0000
     38 C20        2.2312   11.2732   12.2602 C.3       2 RES2    0.0000
     39 C21        1.8655   10.7115   11.0196 C.3       2 RES2    0.0000
     40 C22        2.0080    9.1973   11.1213 C.3       2 RES2    0.0000
     41 C23        3.3331    8.6253   10.5773 C.3       2 RES2    0.0000
     42 C24        3.2180    7.3398    9.7650 C.3       2 RES2    0.0000
     43 C25        3.8178    6.2634   10.5079 C.3       2 RES2    0.0000
     44 C26        4.8676    6.8819   11.4003 C.3       2 RES2    0.0000
     45 C27        4.2395    8.2244   11.7840 C.3       2 RES2    0.0000
     46 C28        6.0546    9.8254   11.2292 C.3       2 RES2    0.0000
     47 C29        6.7680   11.0204   11.7825 C.3       2 RES2    0.0000
     48 C30        6.6365   10.1589   13.9324 C.3       2 RES2    0.0000
     49 C31        5.8990    8.9488   13.4362 C.3       2 RES2    0.0000
     50 C32        4.2108    4.9760    9.7943 C.3       2 RES2    0.0000
     51 C33        0.1216    1.7201   13.4886 C.2       3 RES3    0.0000
     52 C34        1.3505    2.3899   14.1374 C.3       3 RES3    0.0000
     53 C35        1.2945    2.3654   15.6694 C.3       3 RES3    0.0000
     54 C36        0.9105    3.7377   16.0501 C.3       3 RES3    0.0000
     55 C37        1.2796    4.6467   14.9928 C.3       3 RES3    0.0000
     56 C38        1.3226    3.8629   13.6781 C.3       3 RES3    0.0000
     57 C39        0.0768    4.0136   12.7812 C.3       3 RES3    0.0000
     58 C40        0.3478    3.9829   11.2600 C.3       3 RES3    0.0000
     59 C41       -0.2719    2.7572   10.7083 C.3       3 RES3    0.0000
     60 C42       -1.4130    2.4147   11.6376 C.3       3 RES3    0.0000
     61 C43       -0.8590    2.7976   13.0108 C.3       3 RES3    0.0000
     62 C44       -2.6386    1.8073   14.4164 C.3       3 RES3    0.0000
     63 C45       -3.4154    2.0617   15.6802 C.3       3 RES3    0.0000
     64 C46       -3.5152    4.3363   15.2394 C.3       3 RES3    0.0000
     65 C47       -2.7360    4.1388   13.9556 C.3       3 RES3    0.0000
     66 C48       -0.5854    2.7325    9.2349 C.3       3 RES3    0.0000
     67 H1         6.7206   12.6876    5.5267 H         1 RES1    0.0000
     68 H2         5.1942   12.5430    5.2185 H         1 RES1    0.0000
     69 H3         7.2991   11.6204    3.7482 H         1 RES1    0.0000
     70 H4         5.9039   12.0652    3.2288 H         1 RES1    0.0000
     71 H5         6.5643    9.6796    3.2504 H         1 RES1    0.0000
     72 H6         5.0790   10.1026    3.4723 H         1 RES1    0.0000
     73 H7         5.2597    9.0516    5.4235 H         1 RES1    0.0000
     74 H8         7.7643    8.6216    4.7808 H         1 RES1    0.0000
     75 H9         7.5637    6.8222    6.0215 H         1 RES1    0.0000
     76 H10        6.1970    7.3856    6.5131 H         1 RES1    0.0000
     77 H11        7.0503    8.2620    8.2670 H         1 RES1    0.0000
     78 H12        9.5991    8.4384    7.2513 H         1 RES1    0.0000
     79 H13        8.9758    9.3505    8.3626 H         1 RES1    0.0000
     80 H14        9.5766    9.1731    4.3077 H         1 RES1    0.0000
     81 H15       10.6896    9.3650    5.3803 H         1 RES1    0.0000
     82 H16       11.3906   10.2859    3.3321 H         1 RES1    0.0000
     83 H17       10.1587   11.2310    3.3321 H         1 RES1    0.0000
     84 H18       10.0388   12.9409    4.9473 H         1 RES1    0.0000
     85 H19       11.1851   13.0900    5.9845 H         1 RES1    0.0000
     86 H20       10.5413   11.0924    6.9986 H         1 RES1    0.0000
     87 H21        9.3347   12.0752    6.9816 H         1 RES1    0.0000
     88 H22        7.3735    6.0042    8.6569 H         1 RES1    0.0000
     89 H23        8.8390    6.1568    8.1221 H         1 RES1    0.0000
     90 H24        8.4003    6.8986    9.4306 H         1 RES1    0.0000
     91 H25        2.8322   10.3304   13.9232 H         2 RES2    0.0000
     92 H26        1.2765   10.4767   13.8631 H         2 RES2    0.0000
     93 H27        3.1374   11.5874   12.2186 H         2 RES2    0.0000
     94 H28        1.6612   12.0263   12.4282 H         2 RES2    0.0000
     95 H29        2.4504   11.0307   10.3276 H         2 RES2    0.0000
     96 H30        0.9647   10.9492   10.7869 H         2 RES2    0.0000
     97 H31        1.2618    8.7641   10.7021 H         2 RES2    0.0000
     98 H32        3.7766    9.2985   10.0563 H         2 RES2    0.0000
     99 H33        3.6974    7.4248    8.9374 H         2 RES2    0.0000
    100 H34        2.2968    7.1608    9.5631 H         2 RES2    0.0000
    101 H35        3.1276    5.9943   11.1182 H         2 RES2    0.0000
    102 H36        5.6744    7.0108   10.8947 H         2 RES2    0.0000
    103 H37        5.0607    6.3481   12.1739 H         2 RES2    0.0000
    104 H38        5.5767   10.0486   10.4262 H         2 RES2    0.0000
    105 H39        6.7017    9.1485   11.0196 H         2 RES2    0.0000
    106 H40        7.3493   11.4017   11.1198 H         2 RES2    0.0000
    107 H41        6.1102   11.6806   12.0183 H         2 RES2    0.0000
    108 H42        6.0007   10.8286   14.1945 H         2 RES2    0.0000
    109 H43        7.1545    9.9200   14.7046 H         2 RES2    0.0000
    110 H44        6.5313    8.2650   13.2050 H         2 RES2    0.0000
    111 H45        5.3126    8.5999   14.1128 H         2 RES2    0.0000
    112 H46        3.4690    4.6437    9.2842 H         2 RES2    0.0000
    113 H47        4.9390    5.1847    9.2040 H         2 RES2    0.0000
    114 H48        4.4907    4.3095   10.4262 H         2 RES2    0.0000
    115 H49        2.1581    2.1590   16.0346 H         3 RES3    0.0000
    116 H50        0.6612    1.7145   15.9792 H         3 RES3    0.0000
    117 H51        1.3210    3.9914   16.8792 H         3 RES3    0.0000
    118 H52       -0.0420    3.7672   16.1641 H         3 RES3    0.0000
    119 H53        2.1406    5.0225   15.1901 H         3 RES3    0.0000
    120 H54        0.6439    5.3601   14.9173 H         3 RES3    0.0000
    121 H55        2.1161    4.0749   13.1803 H         3 RES3    0.0000
    122 H56       -0.3870    4.8200   13.0185 H         3 RES3    0.0000
    123 H57        1.2937    4.0113   11.0966 H         3 RES3    0.0000
    124 H58       -0.0613    4.7391   10.8331 H         3 RES3    0.0000
    125 H59        0.3812    2.0699   10.8547 H         3 RES3    0.0000
    126 H60       -1.6466    1.4836   11.6037 H         3 RES3    0.0000
    127 H61       -2.1809    2.9438   11.4095 H         3 RES3    0.0000
    128 H62       -2.0761    1.0344   14.4981 H         3 RES3    0.0000
    129 H63       -3.2551    1.6575   13.6966 H         3 RES3    0.0000
    130 H64       -3.9305    1.2789   15.8898 H         3 RES3    0.0000
    131 H65       -2.8006    2.2203   16.3999 H         3 RES3    0.0000
    132 H66       -2.9006    4.5071   15.9560 H         3 RES3    0.0000
    133 H67       -4.0981    5.0935   15.1546 H         3 RES3    0.0000
    134 H68       -3.3452    3.9557   13.2389 H         3 RES3    0.0000
    135 H69       -2.2372    4.9304   13.7367 H         3 RES3    0.0000
    136 H70        0.2007    2.9376    8.7247 H         3 RES3    0.0000
    137 H71       -0.9079    1.8605    8.9929 H         3 RES3    0.0000
    138 H72       -1.2639    3.3866    9.0545 H         3 RES3    0.0000
@<TRIPOS>BOND
     1    1   19 2
     2    2   13 2
     3    3   13 2
     4    4   31 1
     5    5   35 2
     6    6   15 2
     7    7   15 2
     8    8   47 1
     9    9   51 2
    10   10   17 2
    11   11   17 2
    12   12   63 1
    13   13   20 1
    14   14   29 1
    15   15   36 1
    16   16   45 1
    17   17   52 1
    18   18   61 1
    19   19   20 1
    20   20   21 1
    21   21   22 1
    22   22   23 1
    23   23   24 1
    24   24   20 1
    25   25   24 1
    26   26   25 1
    27   27   26 1
    28   28   27 1
    29   29   19 1
    30   30   14 1
    31   31   30 1
    32   32    4 1
    33   33   14 1
    34   34   27 1
    35   35   36 1
    36   36   37 1
    37   37   38 1
    38   38   39 1
    39   39   40 1
    40   40   36 1
    41   41   40 1
    42   42   41 1
    43   43   42 1
    44   44   43 1
    45   45   35 1
    46   46   16 1
    47   47   46 1
    48   48    8 1
    49   49   16 1
    50   50   43 1
    51   51   52 1
    52   52   53 1
    53   53   54 1
    54   54   55 1
    55   55   56 1
    56   56   52 1
    57   57   56 1
    58   58   57 1
    59   59   58 1
    60   60   59 1
    61   61   51 1
    62   62   18 1
    63   63   62 1
    64   64   12 1
    65   65   18 1
    66   66   59 1
    67   67   21 1
    68   68   21 1
    69   69   22 1
    70   70   22 1
    71   71   23 1
    72   72   23 1
    73   73   24 1
    74   74   25 1
    75   75   26 1
    76   76   26 1
    77   77   27 1
    78   78   28 1
    79   79   28 1
    80   80   30 1
    81   81   30 1
    82   82   31 1
    83   83   31 1
    84   84   32 1
    85   85   32 1
    86   86   33 1
    87   87   33 1
    88   88   34 1
    89   89   34 1
    90   90   34 1
    91   91   37 1
    92   92   37 1
    93   93   38 1
    94   94   38 1
    95   95   39 1
    96   96   39 1
    97   97   40 1
    98   98   41 1
    99   99   42 1
   100  100   42 1
   101  101   43 1
   102  102   44 1
   103  103   44 1
   104  104   46 1
   105  105   46 1
   106  106   47 1
   107  107   47 1
   108  108   48 1
   109  109   48 1
   110  110   49 1
   111  111   49 1
   112  112   50 1
   113  113   50 1
   114  114   50 1
   115  115   53 1
   116  116   53 1
   117  117   54 1
   118  118   54 1
   119  119   55 1
   120  120   55 1
   121  121   56 1
   122  122   57 1
   123  123   58 1
   124  124   58 1
   125  125   59 1
   126  126   60 1
   127  127   60 1
   128  128   62 1
   129  129   62 1
   130  130   63 1
   131  131   63 1
   132  132   64 1
   133  133   64 1
   134  134   65 1
   135  135   65 1
   136  136   66 1
   137  137   66 1
   138  138   66 1
   139   25   29 1
   140   28   29 1
   141   32   33 1
   142   41   45 1
   143   44   45 1
   144   48   49 1
   145   57   61 1
   146   60   61 1
   147   64   65 1
@<TRIPOS>SUBSTRUCTURE
     1 RES1 1
     2 RES2 5
     3 RES3 9

@<TRIPOS>CRYSIN
   8.9460   17.8950   17.8790  59.6200  82.0300  77.9800   2 1

