# MOL2 file generated by ConQuest
# Please check atom types

@<TRIPOS>MOLECULE
JUKJUW
    44    44     2
SMALL
NO_CHARGES
****
Generated from CSD

@<TRIPOS>ATOM
      1 O1         4.4825    4.6929    1.5101 O.2       1 RES1    0.0000
      2 N1         4.2860    4.6005    2.7401 N.pl3     1 RES1    0.0000
      3 N2         5.1488    3.8174    3.4127 N.ar      1 RES1    0.0000
      4 O2         5.6665    2.9638    5.3602 O.2       1 RES1    0.0000
      5 O3         1.0986    6.3217    4.8023 O.2       1 RES1    0.0000
      6 N3         4.9121    3.7321    4.7417 N.pl3     1 RES1    0.0000
      7 O4         2.1216    5.7301    6.7288 O.3       1 RES1    0.0000
      8 N4         3.9751    4.3848    5.4403 N.ar      1 RES1    0.0000
      9 C1         3.1372    5.1233    4.7011 C.ar      1 RES1    0.0000
     10 O5         2.5214    7.1815    2.1439 O.2       1 RES1    0.0000
     11 O6         1.4600    5.2071    1.8622 O.3       1 RES1    0.0000
     12 C2         3.2357    5.2473    3.3400 C.ar      1 RES1    0.0000
     13 C3         1.9966    5.8038    5.4227 C.2       1 RES1    0.0000
     14 C4         0.9738    6.2039    7.4920 C.3       1 RES1    0.0000
     15 H1         1.0789    5.9485    8.4323 H         1 RES1    0.0000
     16 H2         0.1548    5.8026    7.1344 H         1 RES1    0.0000
     17 H3         0.9162    7.1800    7.4227 H         1 RES1    0.0000
     18 C5         2.3553    6.0245    2.3887 C.2       1 RES1    0.0000
     19 C6         0.6034    5.7894    0.8282 C.3       1 RES1    0.0000
     20 H4        -0.1773    5.2137    0.6889 H         1 RES1    0.0000
     21 H5         1.1078    5.8645   -0.0098 H         1 RES1    0.0000
     22 H6         0.3064    6.6793    1.1123 H         1 RES1    0.0000
     23 O7        11.4889    4.4029    6.3578 O.2       2 RES2    0.0000
     24 N5        11.2470    4.3675    5.1376 N.pl3     2 RES2    0.0000
     25 N6        12.1798    3.7786    4.3683 N.ar      2 RES2    0.0000
     26 O8        12.7628    3.2330    2.3300 O.2       2 RES2    0.0000
     27 O9         7.7784    5.8499    3.3053 O.2       2 RES2    0.0000
     28 N7        11.9016    3.7738    3.0446 N.pl3     2 RES2    0.0000
     29 O10        8.7734    5.3889    1.3243 O.3       2 RES2    0.0000
     30 N8        10.8212    4.2807    2.4405 N.ar      2 RES2    0.0000
     31 O11        9.2939    6.7228    5.9275 O.2       2 RES2    0.0000
     32 C7         9.9317    4.8417    3.2690 C.ar      2 RES2    0.0000
     33 O12        8.3778    4.6748    6.1930 O.3       2 RES2    0.0000
     34 C8        10.0901    4.9001    4.6318 C.ar      2 RES2    0.0000
     35 C9         8.6896    5.4230    2.6344 C.2       2 RES2    0.0000
     36 C10        7.5713    5.7779    0.5980 C.3       2 RES2    0.0000
     37 H7         7.6858    5.5775   -0.3550 H         2 RES2    0.0000
     38 H8         7.4167    6.7388    0.7133 H         2 RES2    0.0000
     39 H9         6.8034    5.2790    0.9462 H         2 RES2    0.0000
     40 C11        9.1975    5.5636    5.6515 C.2       2 RES2    0.0000
     41 C12        7.5194    5.1817    7.2618 C.3       2 RES2    0.0000
     42 H10        6.7167    4.6233    7.3298 H         2 RES2    0.0000
     43 H11        7.2587    6.1051    7.0611 H         2 RES2    0.0000
     44 H12        8.0067    5.1575    8.1115 H         2 RES2    0.0000
@<TRIPOS>BOND
     1    1    2 1
     2    2    3 ar
     3    3    6 ar
     4    4    6 1
     5    5   13 2
     6    6    8 ar
     7    7   13 1
     8    8    9 ar
     9    9   12 ar
    10   10   18 2
    11   11   18 1
    12   12    2 ar
    13   13    9 1
    14   14    7 1
    15   15   14 1
    16   16   14 1
    17   17   14 1
    18   18   12 1
    19   19   11 1
    20   20   19 1
    21   21   19 1
    22   22   19 1
    23   23   24 1
    24   24   25 ar
    25   25   28 ar
    26   26   28 1
    27   27   35 2
    28   28   30 ar
    29   29   35 1
    30   30   32 ar
    31   31   40 2
    32   32   34 ar
    33   33   40 1
    34   34   24 ar
    35   35   32 1
    36   36   29 1
    37   37   36 1
    38   38   36 1
    39   39   36 1
    40   40   34 1
    41   41   33 1
    42   42   41 1
    43   43   41 1
    44   44   41 1
@<TRIPOS>SUBSTRUCTURE
     1 RES1 1
     2 RES2 23

@<TRIPOS>CRYSIN
  13.8329    8.1554   17.5760  90.0000 112.0980  90.0000 231 1

