# MOL2 file generated by ConQuest
# Please check atom types

@<TRIPOS>MOLECULE
JUKJIK
    53    57     1
SMALL
NO_CHARGES
****
Generated from CSD

@<TRIPOS>ATOM
      1 O1        -9.3068   -5.3002  -14.1618 O.3       1 RES1    0.0000
      2 O2        -7.6439   -1.8547  -10.1966 O.3       1 RES1    0.0000
      3 O3        -8.5441   -3.5142  -15.8680 O.3       1 RES1    0.0000
      4 O4        -4.0516   -1.2918   -9.0764 O.2       1 RES1    0.0000
      5 N1        -9.0665   -1.9468  -10.1580 N.2       1 RES1    0.0000
      6 N2        -4.9283   -2.7799  -10.6063 N.am      1 RES1    0.0000
      7 C1        -9.3822   -3.0571   -9.6294 C.2       1 RES1    0.0000
      8 C2        -7.0478   -3.0746   -9.6466 C.3       1 RES1    0.0000
      9 C3       -10.8059   -3.3798   -9.4059 C.ar      1 RES1    0.0000
     10 C4        -4.8718   -2.1372   -9.4245 C.2       1 RES1    0.0000
     11 C5        -7.8575   -3.5116  -14.6876 C.ar      1 RES1    0.0000
     12 C6        -8.3073   -4.4839  -13.7436 C.ar      1 RES1    0.0000
     13 C7        -6.1944   -2.7133  -13.0989 C.ar      1 RES1    0.0000
     14 C8       -13.1277   -2.7625   -9.4646 C.ar      1 RES1    0.0000
     15 H1       -13.7936   -2.1890   -9.7669 H         1 RES1    0.0000
     16 C9       -11.1714   -4.5257   -8.6639 C.ar      1 RES1    0.0000
     17 H2       -10.5202   -5.1409   -8.4160 H         1 RES1    0.0000
     18 C10       -7.6935   -4.5061  -12.4973 C.ar      1 RES1    0.0000
     19 H3        -7.9735   -5.1325  -11.8684 H         1 RES1    0.0000
     20 C11       -6.8301   -2.6821  -14.3739 C.ar      1 RES1    0.0000
     21 H4        -6.5324   -2.0737  -15.0099 H         1 RES1    0.0000
     22 C12       -8.2280   -3.9311   -9.1967 C.3       1 RES1    0.0000
     23 H5        -8.2393   -4.7897   -9.6480 H         1 RES1    0.0000
     24 H6        -8.2244   -4.0707   -8.2370 H         1 RES1    0.0000
     25 C13       -6.1126   -3.6512  -10.7510 C.3       1 RES1    0.0000
     26 H7        -5.8673   -4.5712  -10.5190 H         1 RES1    0.0000
     27 C14       -6.6746   -3.6242  -12.1578 C.ar      1 RES1    0.0000
     28 C15      -13.4797   -3.8575   -8.6696 C.ar      1 RES1    0.0000
     29 C16      -12.4860   -4.7405   -8.3043 C.ar      1 RES1    0.0000
     30 H8       -12.7041   -5.4943   -7.8058 H         1 RES1    0.0000
     31 C17      -11.8172   -2.5107   -9.8127 C.ar      1 RES1    0.0000
     32 H9       -11.6081   -1.7600  -10.3213 H         1 RES1    0.0000
     33 C18       -5.0047   -1.8230  -12.8296 C.3       1 RES1    0.0000
     34 H10       -5.3110   -0.9496  -12.5388 H         1 RES1    0.0000
     35 H11       -4.4924   -1.7076  -13.6447 H         1 RES1    0.0000
     36 C19       -9.8469   -6.1725  -13.1648 C.3       1 RES1    0.0000
     37 H12      -10.5820   -6.6661  -13.5358 H         1 RES1    0.0000
     38 H13      -10.1539   -5.6535  -12.4185 H         1 RES1    0.0000
     39 H14       -9.1669   -6.7835  -12.8726 H         1 RES1    0.0000
     40 C20       -8.3144   -2.3954  -16.7389 C.3       1 RES1    0.0000
     41 H15       -8.9082   -2.4488  -17.4924 H         1 RES1    0.0000
     42 H16       -7.4055   -2.4107  -17.0469 H         1 RES1    0.0000
     43 H17       -8.4772   -1.5791  -16.2605 H         1 RES1    0.0000
     44 C21       -4.1211   -2.4403  -11.7524 C.3       1 RES1    0.0000
     45 H18       -3.6897   -3.2370  -12.0976 H         1 RES1    0.0000
     46 H19       -3.4306   -1.8097  -11.4916 H         1 RES1    0.0000
     47 C22       -6.0586   -2.6228   -8.5822 C.3       1 RES1    0.0000
     48 H20       -5.8036   -3.3582   -8.0035 H         1 RES1    0.0000
     49 H21       -6.4256   -1.9044   -8.0436 H         1 RES1    0.0000
     50 C23      -14.9089   -4.0792   -8.2284 C.3       1 RES1    0.0000
     51 H22      -15.4066   -3.2656   -8.3358 H         1 RES1    0.0000
     52 H23      -14.9209   -4.3432   -7.3058 H         1 RES1    0.0000
     53 H24      -15.3055   -4.7701   -8.7641 H         1 RES1    0.0000
@<TRIPOS>BOND
     1    1   12 1
     2    2    5 1
     3    3   11 1
     4    4   10 2
     5    5    7 2
     6    6   10 1
     7    7    9 1
     8    8    2 1
     9    9   16 ar
    10   10   47 1
    11   11   12 ar
    12   12   18 ar
    13   13   20 ar
    14   14   15 1
    15   16   17 1
    16   18   19 1
    17   20   11 ar
    18   21   20 1
    19   22    7 1
    20   23   22 1
    21   24   22 1
    22   25    6 1
    23   26   25 1
    24   27   13 ar
    25   28   14 ar
    26   29   16 ar
    27   30   29 1
    28   31    9 ar
    29   32   31 1
    30   33   13 1
    31   34   33 1
    32   35   33 1
    33   36    1 1
    34   37   36 1
    35   38   36 1
    36   39   36 1
    37   40    3 1
    38   41   40 1
    39   42   40 1
    40   43   40 1
    41   44    6 1
    42   45   44 1
    43   46   44 1
    44   47    8 1
    45   48   47 1
    46   49   47 1
    47   50   28 1
    48   51   50 1
    49   52   50 1
    50   53   50 1
    51    8   22 1
    52    8   25 1
    53   14   31 ar
    54   18   27 ar
    55   25   27 1
    56   28   29 ar
    57   33   44 1
@<TRIPOS>SUBSTRUCTURE
     1 RES1 1

@<TRIPOS>CRYSIN
  12.8280    5.2901   14.4480  90.0000  97.4770  90.0000   4 1

