# MOL2 file generated by ConQuest
# Please check atom types

@<TRIPOS>MOLECULE
JUKLEG
    23    21     2
SMALL
NO_CHARGES
****
Generated from CSD

@<TRIPOS>ATOM
      1 N1         0.9503   -1.6255    0.0043 N.pl3     1 RES1    0.0000
      2 O1         0.2321   -2.5537   -0.0446 O.2       1 RES1    0.0000
      3 O2         2.1403   -1.6656    0.0029 O.2       1 RES1    0.0000
      4 C1         0.5703   -0.1743    0.4489 C.3       1 RES1    0.0000
      5 C2        -0.1730   -0.5762    0.4475 Du        2 SUP2    0.0000
      6 C3         0.5789   -0.1833   -0.4647 Du        2 SUP2    0.0000
      7 C4        -0.1591   -0.5746   -0.4863 Du        2 SUP2    0.0000
      8 C5         0.0338   -0.0598    1.9266 C.ar      1 RES1    0.0000
      9 C6        -0.9836   -0.6695    2.6057 C.ar      1 RES1    0.0000
     10 C7        -1.0219   -0.6679    3.9511 C.ar      1 RES1    0.0000
     11 C8        -0.0471   -0.4502    4.6619 C.ar      1 RES1    0.0000
     12 C9         0.9613    0.5672    3.9928 C.ar      1 RES1    0.0000
     13 C10        1.0084    0.5599    2.6561 C.ar      1 RES1    0.0000
     14 C1B       -0.5703    0.1743   -0.4489 C.3       1 RES1    0.0000
     15 N1B       -0.9503    1.6255   -0.0043 N.pl3     1 RES1    0.0000
     16 C5B       -0.0338    0.0598   -1.9266 C.ar      1 RES1    0.0000
     17 O1B       -0.2321    2.5537    0.0446 O.2       1 RES1    0.0000
     18 O2B       -2.1403    1.6656   -0.0029 O.2       1 RES1    0.0000
     19 C6B        0.9836    0.6695   -2.6057 C.ar      1 RES1    0.0000
     20 C10B      -1.0084   -0.5599   -2.6561 C.ar      1 RES1    0.0000
     21 C7B        1.0219    0.6679   -3.9511 C.ar      1 RES1    0.0000
     22 C9B       -0.9613   -0.5672   -3.9928 C.ar      1 RES1    0.0000
     23 C8B        0.0471    0.4502   -4.6619 C.ar      1 RES1    0.0000
@<TRIPOS>BOND
     1    1    2 2
     2    3    1 2
     3    4    1 1
     4    8    4 1
     5    9    8 ar
     6   10    9 ar
     7   11   10 ar
     8   12   11 ar
     9   13    8 ar
    10   14    4 1
    11   15   14 1
    12   16   14 1
    13   17   15 2
    14   18   15 2
    15   19   16 ar
    16   20   16 ar
    17   21   19 ar
    18   22   20 ar
    19   23   21 ar
    20   12   13 ar
    21   22   23 ar
@<TRIPOS>SUBSTRUCTURE
     1 RES1 1
     2 SUP2 5

@<TRIPOS>CRYSIN
   5.5970    8.1850   14.3890  90.0000  90.5100  90.0000 231 1

