# MOL2 file generated by ConQuest
# Please check atom types

@<TRIPOS>MOLECULE
JUKLIK
    20    21     1
SMALL
NO_CHARGES
****
Generated from CSD

@<TRIPOS>ATOM
      1 C1         2.8653    1.4081    5.3173 C.3       1 RES1    0.0000
      2 C2         3.9154    1.5771    6.3897 C.3       1 RES1    0.0000
      3 C3         3.4327    0.9423    3.9895 C.ar      1 RES1    0.0000
      4 C4         3.1314    1.6493    2.8587 C.ar      1 RES1    0.0000
      5 C5         3.6060    1.2251    1.6340 C.ar      1 RES1    0.0000
      6 C6         4.3639    0.1068    1.5463 C.ar      1 RES1    0.0000
      7 C7         4.6740   -0.6042    2.6648 C.ar      1 RES1    0.0000
      8 C8         4.2085   -0.1869    3.8895 C.ar      1 RES1    0.0000
      9 C9         4.8545    2.7172    6.1004 C.ar      1 RES1    0.0000
     10 C10        4.3875    3.9928    5.9635 C.ar      1 RES1    0.0000
     11 C11        5.2648    5.0320    5.7158 C.ar      1 RES1    0.0000
     12 C12        6.5862    4.7848    5.5742 C.ar      1 RES1    0.0000
     13 C13        7.0612    3.5083    5.7035 C.ar      1 RES1    0.0000
     14 C14        6.1997    2.4740    5.9619 C.ar      1 RES1    0.0000
     15 N1         1.8175    0.3856    5.7542 N.pl3     1 RES1    0.0000
     16 N2         3.2373    1.8342    7.7390 N.pl3     1 RES1    0.0000
     17 O1         0.7321    0.5132    5.2727 O.2       1 RES1    0.0000
     18 O2         2.1802   -0.4885    6.5235 O.2       1 RES1    0.0000
     19 O3         3.8521    1.4822    8.7252 O.2       1 RES1    0.0000
     20 O4         2.1692    2.4058    7.7421 O.2       1 RES1    0.0000
@<TRIPOS>BOND
     1    1    2 1
     2    2    9 1
     3    3    1 1
     4    4    3 ar
     5    5    4 ar
     6    6    5 ar
     7    7    6 ar
     8    8    3 ar
     9    9   10 ar
    10   10   11 ar
    11   11   12 ar
    12   12   13 ar
    13   13   14 ar
    14   14    9 ar
    15   15    1 1
    16   16    2 1
    17   17   15 2
    18   18   15 2
    19   19   16 2
    20   20   16 2
    21    7    8 ar
@<TRIPOS>SUBSTRUCTURE
     1 RES1 1

@<TRIPOS>CRYSIN
  18.2600    9.8880   17.6600  90.0000 119.4000  90.0000  15 1

