# MOL2 file generated by ConQuest
# Please check atom types

@<TRIPOS>MOLECULE
JUKLUW
    22    23     1
SMALL
NO_CHARGES
****
Generated from CSD

@<TRIPOS>ATOM
      1 C1         0.9660   12.5750    3.8246 C.3       1 RES1    0.0000
      2 C2         0.3338   11.8185    2.6624 C.3       1 RES1    0.0000
      3 C3        -0.4454   12.8014    1.6947 C.3       1 RES1    0.0000
      4 C4        -1.4118   13.6591    2.5221 C.3       1 RES1    0.0000
      5 C5        -0.5823   10.6755    3.1396 C.ar      1 RES1    0.0000
      6 C6        -1.1706   10.7344    4.3940 C.ar      1 RES1    0.0000
      7 C7        -1.9942    9.7202    4.8302 C.ar      1 RES1    0.0000
      8 C8        -2.2513    8.6306    4.0417 C.ar      1 RES1    0.0000
      9 C9        -1.6755    8.5569    2.8037 C.ar      1 RES1    0.0000
     10 C10       -0.8503    9.5656    2.3501 C.ar      1 RES1    0.0000
     11 C11       -1.1809   12.1700    0.5069 C.ar      1 RES1    0.0000
     12 C12       -2.4450   11.6381    0.7014 C.ar      1 RES1    0.0000
     13 C13       -3.1396   11.0510   -0.3338 C.ar      1 RES1    0.0000
     14 C14       -2.5978   11.0086   -1.5882 C.ar      1 RES1    0.0000
     15 C15       -1.3600   11.5571   -1.8115 C.ar      1 RES1    0.0000
     16 C16       -0.6538   12.1332   -0.7762 C.ar      1 RES1    0.0000
     17 N1         1.4910   11.1025    1.9149 N.pl3     1 RES1    0.0000
     18 N2         0.5640   13.8155    1.0865 N.pl3     1 RES1    0.0000
     19 O1         1.3269   10.7657    0.7598 O.2       1 RES1    0.0000
     20 O2         2.4906   10.8375    2.5539 O.2       1 RES1    0.0000
     21 O3         1.7487   13.5652    1.0629 O.2       1 RES1    0.0000
     22 O4         0.0921   14.8334    0.6226 O.2       1 RES1    0.0000
@<TRIPOS>BOND
     1    1    2 1
     2    2    3 1
     3    3    4 1
     4    5    2 1
     5    6    5 ar
     6    7    6 ar
     7    8    7 ar
     8    9    8 ar
     9   10    5 ar
    10   11    3 1
    11   12   11 ar
    12   13   12 ar
    13   14   13 ar
    14   15   14 ar
    15   16   11 ar
    16   17    2 1
    17   18    3 1
    18   19   17 2
    19   20   17 2
    20   21   18 2
    21   22   18 2
    22    9   10 ar
    23   15   16 ar
@<TRIPOS>SUBSTRUCTURE
     1 RES1 1

@<TRIPOS>CRYSIN
   7.7630   18.4060   10.2400  90.0000  90.1000  90.0000 231 1

