# MOL2 file generated by ConQuest
# Please check atom types

@<TRIPOS>MOLECULE
JUKMAD
    22    23     1
SMALL
NO_CHARGES
****
Generated from CSD

@<TRIPOS>ATOM
      1 C1        -1.7096    1.4019    4.3630 C.3       1 RES1    0.0000
      2 C2        -1.3328    1.2181    2.8956 C.3       1 RES1    0.0000
      3 C3        -0.2893    2.2567    2.4659 C.ar      1 RES1    0.0000
      4 C4         0.7759    1.9439    1.6372 C.ar      1 RES1    0.0000
      5 C5         1.6965    2.8953    1.2660 C.ar      1 RES1    0.0000
      6 C6         1.5745    4.1657    1.6957 C.ar      1 RES1    0.0000
      7 C7         0.5277    4.5238    2.5062 C.ar      1 RES1    0.0000
      8 C8        -0.4041    3.5636    2.9109 C.ar      1 RES1    0.0000
      9 N1        -0.6077   -0.1516    2.7910 N.pl3     1 RES1    0.0000
     10 O1        -0.6744   -0.7676    1.7494 O.2       1 RES1    0.0000
     11 O2         0.0357   -0.5123    3.7540 O.2       1 RES1    0.0000
     12 C2B       -2.5700    1.2181    1.9000 C.3       1 RES1    0.0000
     13 C1B       -2.1932    1.4019    0.4326 C.3       1 RES1    0.0000
     14 C3B       -3.6135    2.2567    2.3297 C.ar      1 RES1    0.0000
     15 N1B       -3.2951   -0.1516    2.0045 N.pl3     1 RES1    0.0000
     16 C4B       -4.6787    1.9439    3.1584 C.ar      1 RES1    0.0000
     17 C8B       -3.4987    3.5636    1.8847 C.ar      1 RES1    0.0000
     18 O1B       -3.2285   -0.7676    3.0461 O.2       1 RES1    0.0000
     19 O2B       -3.9385   -0.5123    1.0416 O.2       1 RES1    0.0000
     20 C5B       -5.5993    2.8953    3.5295 C.ar      1 RES1    0.0000
     21 C7B       -4.4305    4.5238    2.2894 C.ar      1 RES1    0.0000
     22 C6B       -5.4773    4.1657    3.0999 C.ar      1 RES1    0.0000
@<TRIPOS>BOND
     1    1    2 1
     2    2    3 1
     3    3    4 ar
     4    4    5 ar
     5    5    6 ar
     6    6    7 ar
     7    7    8 ar
     8    8    3 ar
     9    9    2 1
    10   10    9 2
    11   11    9 2
    12   12    2 1
    13   13   12 1
    14   14   12 1
    15   15   12 1
    16   16   14 ar
    17   17   14 ar
    18   18   15 2
    19   19   15 2
    20   20   16 ar
    21   21   17 ar
    22   22   20 ar
    23   21   22 ar
@<TRIPOS>SUBSTRUCTURE
     1 RES1 1

@<TRIPOS>CRYSIN
  17.9280    8.7130   12.3660  90.0000 129.1400  90.0000  15 1

