# MOL2 file generated by ConQuest
# Please check atom types

@<TRIPOS>MOLECULE
JUKSUD
    98   104     2
SMALL
NO_CHARGES
****
Generated from CSD

@<TRIPOS>ATOM
      1 C1        12.6924    1.5037    5.3794 C.ar      1 RES1    0.0000
      2 C2        11.3549    1.2235    5.5537 C.ar      1 RES1    0.0000
      3 C3        10.7563    0.2414    4.8019 C.ar      1 RES1    0.0000
      4 C4        11.5378   -0.5151    3.9177 C.ar      1 RES1    0.0000
      5 C5        12.8753   -0.2303    3.7507 C.ar      1 RES1    0.0000
      6 C6        13.6119   -0.9914    2.6588 C.3       1 RES1    0.0000
      7 C7        15.1161   -0.7741    2.6885 C.2       1 RES1    0.0000
      8 C8        15.7309   -0.1507    3.9041 C.3       1 RES1    0.0000
      9 C9        14.9430    1.1708    4.2046 C.3       1 RES1    0.0000
     10 C10       13.4851    0.8101    4.4606 C.ar      1 RES1    0.0000
     11 C11       15.5588    2.0447    5.2842 C.3       1 RES1    0.0000
     12 C12       17.0768    2.2500    5.0962 C.3       1 RES1    0.0000
     13 C13       17.7867    0.9156    4.9973 C.3       1 RES1    0.0000
     14 C14       17.2334    0.1230    3.8113 C.3       1 RES1    0.0000
     15 C15       18.2057   -1.0413    3.6543 C.3       1 RES1    0.0000
     16 C16       19.5843   -0.4152    4.0463 C.3       1 RES1    0.0000
     17 C17       19.2660    0.9969    4.5620 C.3       1 RES1    0.0000
     18 C18       17.7100    0.1452    6.3328 C.3       1 RES1    0.0000
     19 C19        8.5690    0.7112    5.6650 C.3       1 RES1    0.0000
     20 N1        15.9085   -1.0691    1.7251 N.2       1 RES1    0.0000
     21 O1         9.4231   -0.0490    4.8155 O.3       1 RES1    0.0000
     22 O2        13.0239   -0.5789    1.4283 O.3       1 RES1    0.0000
     23 O3        15.2073   -1.6757    0.6233 O.3       1 RES1    0.0000
     24 O4        20.1891    1.3807    5.5834 O.3       1 RES1    0.0000
     25 H1        13.3800   -0.9812    0.7333 H         1 RES1    0.0000
     26 H2        15.7671   -1.9828    0.1113 H         1 RES1    0.0000
     27 H3        20.2428    2.4156    5.3992 H         1 RES1    0.0000
     28 C20        5.2022    2.2926    1.0425 C.ar      2 RES2    0.0000
     29 C21        3.8568    2.5358    0.9572 C.ar      2 RES2    0.0000
     30 C22        3.2957    3.5854    1.6682 C.ar      2 RES2    0.0000
     31 C23        4.0974    4.3956    2.4523 C.ar      2 RES2    0.0000
     32 C24        5.4607    4.1107    2.5611 C.ar      2 RES2    0.0000
     33 C25        6.3277    4.9449    3.4552 C.3       2 RES2    0.0000
     34 C26        7.6866    5.2038    2.8158 C.2       2 RES2    0.0000
     35 C27        8.3111    4.1135    1.9551 C.3       2 RES2    0.0000
     36 C28        7.5155    2.7957    2.0800 C.3       2 RES2    0.0000
     37 C29        6.0318    3.0546    1.8673 C.ar      2 RES2    0.0000
     38 C30        8.0960    1.6887    1.1835 C.3       2 RES2    0.0000
     39 C31        9.5862    1.4667    1.4320 C.3       2 RES2    0.0000
     40 C32       10.3757    2.7790    1.2923 C.3       2 RES2    0.0000
     41 C33        9.7779    3.8240    2.2544 C.3       2 RES2    0.0000
     42 C34       10.8395    4.9431    2.2692 C.3       2 RES2    0.0000
     43 C35       12.1713    4.1977    2.0627 C.3       2 RES2    0.0000
     44 C36       11.8128    2.7189    1.8376 C.3       2 RES2    0.0000
     45 C37       10.4000    3.2165   -0.1892 C.3       2 RES2    0.0000
     46 C38        1.3224    4.8367    2.1839 C.3       2 RES2    0.0000
     47 N2         8.3322    6.2896    2.9407 N.2       2 RES2    0.0000
     48 O5         1.9356    3.7306    1.5124 O.3       2 RES2    0.0000
     49 O6         6.5140    4.2319    4.7067 O.3       2 RES2    0.0000
     50 O7         7.6643    7.2375    3.7631 O.3       2 RES2    0.0000
     51 O8        12.7727    2.0947    0.9893 O.3       2 RES2    0.0000
     52 H4         6.5607    4.8515    5.4598 H         2 RES2    0.0000
     53 H5         8.2330    7.9237    3.9758 H         2 RES2    0.0000
     54 H6        12.8306    1.1310    1.1995 H         2 RES2    0.0000
     55 H7        13.1459    2.2750    5.9853 H         1 RES1    0.0000
     56 H8        10.7884    1.7941    6.2698 H         1 RES1    0.0000
     57 H9        11.0855   -1.3132    3.3513 H         1 RES1    0.0000
     58 H10       13.5233   -2.0623    2.8072 H         1 RES1    0.0000
     59 H11       15.6355   -0.8601    4.7116 H         1 RES1    0.0000
     60 H12       15.0072    1.8034    3.3266 H         1 RES1    0.0000
     61 H13       15.0545    2.9964    5.3176 H         1 RES1    0.0000
     62 H14       15.4301    1.5352    6.2327 H         1 RES1    0.0000
     63 H15       17.4808    2.8299    5.9111 H         1 RES1    0.0000
     64 H16       17.2211    2.7836    4.1675 H         1 RES1    0.0000
     65 H17       17.2016    0.6751    2.8814 H         1 RES1    0.0000
     66 H18       17.9548   -1.8496    4.3159 H         1 RES1    0.0000
     67 H19       18.2213   -1.3964    2.6340 H         1 RES1    0.0000
     68 H20       20.2386   -0.3699    3.1782 H         1 RES1    0.0000
     69 H21       20.0541   -0.9988    4.8229 H         1 RES1    0.0000
     70 H22       19.3939    1.7849    3.8336 H         1 RES1    0.0000
     71 H23       16.6815    0.0740    6.6408 H         1 RES1    0.0000
     72 H24       18.2695    0.6936    7.0859 H         1 RES1    0.0000
     73 H25       18.1235   -0.8508    6.2203 H         1 RES1    0.0000
     74 H26        7.5489    0.3607    5.5525 H         1 RES1    0.0000
     75 H27        8.6290    1.6554    5.3794 H         1 RES1    0.0000
     76 H28        8.8829    0.6104    6.6902 H         1 RES1    0.0000
     77 H29        5.6245    1.4982    0.4452 H         2 RES2    0.0000
     78 H30        3.2440    1.9236    0.3092 H         2 RES2    0.0000
     79 H31        3.6873    5.2621    2.9556 H         2 RES2    0.0000
     80 H32        5.8475    5.9002    3.6110 H         2 RES2    0.0000
     81 H33        8.2620    4.5223    0.9522 H         2 RES2    0.0000
     82 H34        7.6376    2.4230    3.0916 H         2 RES2    0.0000
     83 H35        7.5699    0.7676    1.3603 H         2 RES2    0.0000
     84 H36        7.9695    1.9883    0.1484 H         2 RES2    0.0000
     85 H37        9.7232    1.0820    2.4362 H         2 RES2    0.0000
     86 H38        9.9521    0.7491    0.7173 H         2 RES2    0.0000
     87 H39        9.6348    3.5050    3.2771 H         2 RES2    0.0000
     88 H40       10.8028    5.5118    3.1905 H         2 RES2    0.0000
     89 H41       10.6800    5.6043    1.4345 H         2 RES2    0.0000
     90 H42       12.7367    4.6055    1.2366 H         2 RES2    0.0000
     91 H43       12.7422    4.2911    2.9803 H         2 RES2    0.0000
     92 H44       11.8681    2.0900    2.7082 H         2 RES2    0.0000
     93 H45       10.9687    4.1339   -0.2844 H         2 RES2    0.0000
     94 H46        9.3847    3.3848   -0.5194 H         2 RES2    0.0000
     95 H47       10.8452    2.4507   -0.8038 H         2 RES2    0.0000
     96 H48        0.2614    4.8090    1.9663 H         2 RES2    0.0000
     97 H49        1.7553    5.7615    1.8179 H         2 RES2    0.0000
     98 H50        1.4620    4.7720    3.2524 H         2 RES2    0.0000
@<TRIPOS>BOND
     1    1    2 ar
     2    2    3 ar
     3    3    4 ar
     4    4    5 ar
     5    5    6 1
     6    6    7 1
     7    7    8 1
     8    8    9 1
     9    9   10 1
    10   10    1 ar
    11   11    9 1
    12   12   11 1
    13   13   12 1
    14   14    8 1
    15   15   14 1
    16   16   15 1
    17   17   13 1
    18   18   13 1
    19   19   21 1
    20   20    7 2
    21   21    3 1
    22   22    6 1
    23   23   20 1
    24   24   17 1
    25   25   22 1
    26   26   23 1
    27   27   24 1
    28   28   29 ar
    29   29   30 ar
    30   30   31 ar
    31   31   32 ar
    32   32   33 1
    33   33   34 1
    34   34   35 1
    35   35   36 1
    36   36   37 1
    37   37   28 ar
    38   38   36 1
    39   39   38 1
    40   40   39 1
    41   41   35 1
    42   42   41 1
    43   43   42 1
    44   44   40 1
    45   45   40 1
    46   46   48 1
    47   47   34 2
    48   48   30 1
    49   49   33 1
    50   50   47 1
    51   51   44 1
    52   52   49 1
    53   53   50 1
    54   54   51 1
    55   55    1 1
    56   56    2 1
    57   57    4 1
    58   58    6 1
    59   59    8 1
    60   60    9 1
    61   61   11 1
    62   62   11 1
    63   63   12 1
    64   64   12 1
    65   65   14 1
    66   66   15 1
    67   67   15 1
    68   68   16 1
    69   69   16 1
    70   70   17 1
    71   71   18 1
    72   72   18 1
    73   73   18 1
    74   74   19 1
    75   75   19 1
    76   76   19 1
    77   77   28 1
    78   78   29 1
    79   79   31 1
    80   80   33 1
    81   81   35 1
    82   82   36 1
    83   83   38 1
    84   84   38 1
    85   85   39 1
    86   86   39 1
    87   87   41 1
    88   88   42 1
    89   89   42 1
    90   90   43 1
    91   91   43 1
    92   92   44 1
    93   93   45 1
    94   94   45 1
    95   95   45 1
    96   96   46 1
    97   97   46 1
    98   98   46 1
    99    5   10 ar
   100   13   14 1
   101   16   17 1
   102   32   37 ar
   103   40   41 1
   104   43   44 1
@<TRIPOS>SUBSTRUCTURE
     1 RES1 1
     2 RES2 28

@<TRIPOS>CRYSIN
  14.9500    9.2480   12.5970  90.0000 100.9800  90.0000   4 1

