# MOL2 file generated by ConQuest
# Please check atom types

@<TRIPOS>MOLECULE
JUKSIR
    27    29     1
SMALL
NO_CHARGES
****
Generated from CSD

@<TRIPOS>ATOM
      1 O1         1.4927    2.5652    2.5044 O.3       1 RES1    0.0000
      2 C1         2.4775    3.1304    1.7623 C.2       1 RES1    0.0000
      3 C2         2.5310    3.2092    0.4410 C.2       1 RES1    0.0000
      4 C3         1.3859    2.6939   -1.7083 C.ar      1 RES1    0.0000
      5 C4         0.2688    2.1689   -2.3875 C.ar      1 RES1    0.0000
      6 C5        -0.7790    1.6281   -1.6923 C.ar      1 RES1    0.0000
      7 C6        -1.8018    0.9979    0.5048 C.ar      1 RES1    0.0000
      8 C7        -1.7045    0.9503    1.8624 C.ar      1 RES1    0.0000
      9 C8        -0.5974    1.4813    2.5416 C.ar      1 RES1    0.0000
     10 C9         0.4018    2.0455    1.8039 C.ar      1 RES1    0.0000
     11 C10        0.3647    2.1060    0.3985 C.ar      1 RES1    0.0000
     12 C11       -0.7653    1.5745   -0.2630 C.ar      1 RES1    0.0000
     13 C12        1.4443    2.6753   -0.3392 C.ar      1 RES1    0.0000
     14 O2        -1.8945    1.0911   -2.2520 O.3       1 RES1    0.0000
     15 C13       -2.0172    1.1647   -3.6760 C.3       1 RES1    0.0000
     16 N1         3.5095    3.6693    2.6186 N.pl3     1 RES1    0.0000
     17 O3         3.3875    3.5425    3.8257 O.2       1 RES1    0.0000
     18 O4         4.4565    4.2393    2.0882 O.2       1 RES1    0.0000
     19 H1         3.2970    3.6196    0.0381 H         1 RES1    0.0000
     20 H2         2.1062    3.0814   -2.2130 H         1 RES1    0.0000
     21 H3         0.2582    2.1864   -3.3537 H         1 RES1    0.0000
     22 H4        -2.5425    0.6510    0.0381 H         1 RES1    0.0000
     23 H5        -2.3872    0.5535    2.4034 H         1 RES1    0.0000
     24 H6        -0.5604    1.4286    3.5414 H         1 RES1    0.0000
     25 H7        -2.8448    0.7603   -3.8319 H         1 RES1    0.0000
     26 H8        -2.0280    2.1385   -3.9833 H         1 RES1    0.0000
     27 H9        -1.2840    0.6173   -4.1046 H         1 RES1    0.0000
@<TRIPOS>BOND
     1    1    2 1
     2    2    3 2
     3    3   13 1
     4    4    5 ar
     5    5    6 ar
     6    6   12 ar
     7    7    8 ar
     8    8    9 ar
     9    9   10 ar
    10   10    1 1
    11   11   10 ar
    12   12    7 ar
    13   13    4 ar
    14   14    6 1
    15   15   14 1
    16   16    2 1
    17   17   16 2
    18   18   16 2
    19   19    3 1
    20   20    4 1
    21   21    5 1
    22   22    7 1
    23   23    8 1
    24   24    9 1
    25   25   15 1
    26   26   15 1
    27   27   15 1
    28   11   12 ar
    29   11   13 ar
@<TRIPOS>SUBSTRUCTURE
     1 RES1 1

@<TRIPOS>CRYSIN
   7.0202    8.7890    9.5480  68.8070  80.3400  78.0870   2 1

