# MOL2 file generated by ConQuest
# Please check atom types

@<TRIPOS>MOLECULE
JULBEX
    45    46     1
SMALL
NO_CHARGES
****
Generated from CSD

@<TRIPOS>ATOM
      1 O1         0.4620    8.8018    1.6985 O.3       1 RES1    0.0000
      2 O2         2.1646    7.5629    0.8937 O.2       1 RES1    0.0000
      3 O3        -1.9740    2.0535    1.6196 O.2       1 RES1    0.0000
      4 O4        -3.4211    3.2892    2.6506 O.2       1 RES1    0.0000
      5 N1        -2.3468    3.1264    2.0786 N.pl3     1 RES1    0.0000
      6 C1         1.2536   10.0354    1.5570 C.3       1 RES1    0.0000
      7 C2         0.2521   11.1498    1.3398 C.3       1 RES1    0.0000
      8 C3        -0.6131   11.4046    2.5789 C.3       1 RES1    0.0000
      9 C4         0.2503   11.6951    3.8180 C.3       1 RES1    0.0000
     10 C5         1.1852   10.5014    4.0397 C.3       1 RES1    0.0000
     11 C6         2.0689   10.2413    2.8185 C.3       1 RES1    0.0000
     12 C7        -0.5543   12.1100    5.0795 C.3       1 RES1    0.0000
     13 C8        -1.4822   13.2910    4.7527 C.3       1 RES1    0.0000
     14 C9        -1.4068   10.9642    5.6179 C.3       1 RES1    0.0000
     15 C10        0.4258   12.5677    6.1653 C.3       1 RES1    0.0000
     16 C11        1.0455    7.6567    1.3510 C.2       1 RES1    0.0000
     17 C12        0.1490    6.4809    1.5794 C.ar      1 RES1    0.0000
     18 C13       -1.1417    6.6423    2.0898 C.ar      1 RES1    0.0000
     19 C14       -1.9536    5.5402    2.2700 C.ar      1 RES1    0.0000
     20 C15       -1.4580    4.2943    1.9308 C.ar      1 RES1    0.0000
     21 C16       -0.1834    4.1008    1.4283 C.ar      1 RES1    0.0000
     22 C17        0.6213    5.2157    1.2559 C.ar      1 RES1    0.0000
     23 H1         1.8355    9.9429    0.7723 H         1 RES1    0.0000
     24 H2         0.7874   11.9760    1.1193 H         1 RES1    0.0000
     25 H3        -0.3376   10.9410    0.5709 H         1 RES1    0.0000
     26 H4        -1.2231   12.1457    2.3954 H         1 RES1    0.0000
     27 H5        -1.1796   10.6121    2.7424 H         1 RES1    0.0000
     28 H6         0.8264   12.4711    3.6042 H         1 RES1    0.0000
     29 H7         0.6449    9.6750    4.2311 H         1 RES1    0.0000
     30 H8         1.7559   10.6495    4.8131 H         1 RES1    0.0000
     31 H9         2.6719    9.4706    2.9550 H         1 RES1    0.0000
     32 H10        2.6860   11.0341    2.6192 H         1 RES1    0.0000
     33 H11       -2.2483   13.0309    4.1303 H         1 RES1    0.0000
     34 H12       -0.9646   14.0038    4.3654 H         1 RES1    0.0000
     35 H13       -1.8703   13.6780    5.5854 H         1 RES1    0.0000
     36 H14       -0.8252   10.2263    5.9101 H         1 RES1    0.0000
     37 H15       -2.0438   10.5948    4.9139 H         1 RES1    0.0000
     38 H16       -1.9802   11.2929    6.3578 H         1 RES1    0.0000
     39 H17        0.9868   11.7847    6.5033 H         1 RES1    0.0000
     40 H18       -0.0844   12.8975    6.9510 H         1 RES1    0.0000
     41 H19        1.0320   13.2418    5.8765 H         1 RES1    0.0000
     42 H20       -1.4642    7.4956    2.2834 H         1 RES1    0.0000
     43 H21       -2.8514    5.6415    2.5968 H         1 RES1    0.0000
     44 H22        0.1226    3.2342    1.2089 H         1 RES1    0.0000
     45 H23        1.5000    5.0950    0.9067 H         1 RES1    0.0000
@<TRIPOS>BOND
     1    1    6 1
     2    2   16 2
     3    3    5 2
     4    4    5 2
     5    5   20 1
     6    6    7 1
     7    7    8 1
     8    8    9 1
     9    9   10 1
    10   10   11 1
    11   11    6 1
    12   12    9 1
    13   13   12 1
    14   14   12 1
    15   15   12 1
    16   16    1 1
    17   17   16 1
    18   18   17 ar
    19   19   18 ar
    20   20   19 ar
    21   21   20 ar
    22   22   17 ar
    23   23    6 1
    24   24    7 1
    25   25    7 1
    26   26    8 1
    27   27    8 1
    28   28    9 1
    29   29   10 1
    30   30   10 1
    31   31   11 1
    32   32   11 1
    33   33   13 1
    34   34   13 1
    35   35   13 1
    36   36   14 1
    37   37   14 1
    38   38   14 1
    39   39   15 1
    40   40   15 1
    41   41   15 1
    42   42   18 1
    43   43   19 1
    44   44   21 1
    45   45   22 1
    46   21   22 ar
@<TRIPOS>SUBSTRUCTURE
     1 RES1 1

@<TRIPOS>CRYSIN
   6.3555   11.6150   12.3650 111.4400 100.0600  96.3800   2 1

