# MOL2 file generated by ConQuest
# Please check atom types

@<TRIPOS>MOLECULE
JULBIB
    90    92     2
SMALL
NO_CHARGES
****
Generated from CSD

@<TRIPOS>ATOM
      1 O1         2.3263    5.7831    6.4698 O.3       1 RES1    0.0000
      2 O2         0.6636    6.8226    7.5787 O.2       1 RES1    0.0000
      3 O3         4.4680   12.5872    7.2649 O.2       1 RES1    0.0000
      4 O4         5.9716   11.5421    6.1014 O.2       1 RES1    0.0000
      5 N1         4.8948   11.5891    6.6915 N.pl3     1 RES1    0.0000
      6 C1         1.7167    4.4712    6.6898 C.3       1 RES1    0.0000
      7 C2         2.8712    3.4923    6.7376 C.3       1 RES1    0.0000
      8 C3         2.3586    2.0581    6.8730 C.3       1 RES1    0.0000
      9 C4         1.3989    1.6819    5.7331 C.3       1 RES1    0.0000
     10 C5         0.2482    2.6987    5.7105 C.3       1 RES1    0.0000
     11 C6         0.7492    4.1427    5.5729 C.3       1 RES1    0.0000
     12 C7         0.9365    0.1957    5.7680 C.3       1 RES1    0.0000
     13 C8         0.2352   -0.1629    7.0759 C.3       1 RES1    0.0000
     14 C9        -0.0181   -0.0924    4.6021 C.3       1 RES1    0.0000
     15 C10        2.1482   -0.7245    5.5866 C.3       1 RES1    0.0000
     16 C11        1.7293    6.8495    7.0078 C.2       1 RES1    0.0000
     17 C12        2.5521    8.0887    6.8439 C.ar      1 RES1    0.0000
     18 C13        3.8005    8.0620    6.2187 C.ar      1 RES1    0.0000
     19 C14        4.5638    9.2123    6.1529 C.ar      1 RES1    0.0000
     20 C15        4.0637   10.3715    6.7261 C.ar      1 RES1    0.0000
     21 C16        2.8207   10.4326    7.3312 C.ar      1 RES1    0.0000
     22 C17        2.0654    9.2724    7.3842 C.ar      1 RES1    0.0000
     23 O5         0.5539    6.1382    2.1757 O.3       2 RES2    0.0000
     24 O6        -1.4386    6.4954    3.1682 O.2       2 RES2    0.0000
     25 O7        -1.0474   -0.4432    1.1358 O.2       2 RES2    0.0000
     26 O8        -3.1122   -0.0064    1.6225 O.2       2 RES2    0.0000
     27 N2        -1.9326    0.3159    1.4989 N.pl3     2 RES2    0.0000
     28 C18        0.8217    7.5808    2.1954 C.3       2 RES2    0.0000
     29 C19        1.7993    7.8506    1.0742 C.3       2 RES2    0.0000
     30 C20        2.0637    9.3511    0.9892 C.3       2 RES2    0.0000
     31 C21        2.6410    9.8977    2.3089 C.3       2 RES2    0.0000
     32 C22        1.6841    9.5370    3.4586 C.3       2 RES2    0.0000
     33 C23        1.3901    8.0296    3.5249 C.3       2 RES2    0.0000
     34 C24        3.0124   11.4064    2.2403 C.3       2 RES2    0.0000
     35 C25        3.9371   11.6563    1.0421 C.3       2 RES2    0.0000
     36 C26        3.7852   11.8029    3.5038 C.3       2 RES2    0.0000
     37 C27        1.7760   12.3089    2.1196 C.3       2 RES2    0.0000
     38 C28       -0.6492    5.7602    2.6296 C.2       2 RES2    0.0000
     39 C29       -0.9195    4.3146    2.3574 C.ar      2 RES2    0.0000
     40 C30       -0.0021    3.4893    1.7200 C.ar      2 RES2    0.0000
     41 C31       -0.3148    2.1662    1.4474 C.ar      2 RES2    0.0000
     42 C32       -1.5697    1.7147    1.8087 C.ar      2 RES2    0.0000
     43 C33       -2.5057    2.5085    2.4404 C.ar      2 RES2    0.0000
     44 C34       -2.1730    3.8206    2.7214 C.ar      2 RES2    0.0000
     45 H1         1.2626    4.5055    7.5623 H         1 RES1    0.0000
     46 H2         3.4056    3.5893    5.8827 H         1 RES1    0.0000
     47 H3         3.4828    3.7174    7.4664 H         1 RES1    0.0000
     48 H4         3.1490    1.4452    6.8740 H         1 RES1    0.0000
     49 H5         1.9096    1.9846    7.7523 H         1 RES1    0.0000
     50 H6         1.9199    1.8062    4.8452 H         1 RES1    0.0000
     51 H7        -0.3516    2.5016    4.9565 H         1 RES1    0.0000
     52 H8        -0.2682    2.6338    6.5744 H         1 RES1    0.0000
     53 H9        -0.0350    4.7953    5.5985 H         1 RES1    0.0000
     54 H10        1.2386    4.2056    4.6894 H         1 RES1    0.0000
     55 H11        0.8398   -0.0839    7.8243 H         1 RES1    0.0000
     56 H12       -0.0975   -1.1260    7.0196 H         1 RES1    0.0000
     57 H13       -0.5869    0.4353    7.2421 H         1 RES1    0.0000
     58 H14       -0.9251    0.3967    4.7254 H         1 RES1    0.0000
     59 H15       -0.2347   -1.0789    4.5713 H         1 RES1    0.0000
     60 H16        0.3850    0.1555    3.7495 H         1 RES1    0.0000
     61 H17        2.7981   -0.6347    6.3347 H         1 RES1    0.0000
     62 H18        2.6395   -0.5240    4.6740 H         1 RES1    0.0000
     63 H19        1.8545   -1.6882    5.5643 H         1 RES1    0.0000
     64 H20        4.1295    7.2108    5.8348 H         1 RES1    0.0000
     65 H21        5.4313    9.2297    5.7372 H         1 RES1    0.0000
     66 H22        2.5017   11.2782    7.6941 H         1 RES1    0.0000
     67 H23        1.2005    9.2764    7.8054 H         1 RES1    0.0000
     68 H24       -0.0716    7.9871    2.0100 H         2 RES2    0.0000
     69 H25        2.6339    7.3615    1.2789 H         2 RES2    0.0000
     70 H26        1.4507    7.4892    0.1866 H         2 RES2    0.0000
     71 H27        2.6990    9.5192    0.2328 H         2 RES2    0.0000
     72 H28        1.1861    9.7930    0.7448 H         2 RES2    0.0000
     73 H29        3.5237    9.4143    2.4842 H         2 RES2    0.0000
     74 H30        0.7879   10.0277    3.3454 H         2 RES2    0.0000
     75 H31        2.0760    9.8209    4.3350 H         2 RES2    0.0000
     76 H32        0.7338    7.8480    4.2477 H         2 RES2    0.0000
     77 H33        2.2158    7.5464    3.7238 H         2 RES2    0.0000
     78 H34        3.4389   11.5843    0.1712 H         2 RES2    0.0000
     79 H35        4.7010   10.9874    1.0101 H         2 RES2    0.0000
     80 H36        4.3137   12.5571    1.0444 H         2 RES2    0.0000
     81 H37        3.2185   11.7422    4.3282 H         2 RES2    0.0000
     82 H38        4.1124   12.7667    3.4362 H         2 RES2    0.0000
     83 H39        4.5776   11.1936    3.6313 H         2 RES2    0.0000
     84 H40        1.1894   12.0475    1.3183 H         2 RES2    0.0000
     85 H41        2.0619   13.2902    1.9860 H         2 RES2    0.0000
     86 H42        1.1553   12.2448    2.9619 H         2 RES2    0.0000
     87 H43        0.8466    3.8476    1.4484 H         2 RES2    0.0000
     88 H44        0.2910    1.5763    0.9930 H         2 RES2    0.0000
     89 H45       -3.3743    2.1811    2.6743 H         2 RES2    0.0000
     90 H46       -2.7847    4.3970    3.1845 H         2 RES2    0.0000
@<TRIPOS>BOND
     1    1    6 1
     2    2   16 2
     3    3    5 2
     4    4    5 2
     5    5   20 1
     6    6    7 1
     7    7    8 1
     8    8    9 1
     9    9   10 1
    10   10   11 1
    11   11    6 1
    12   12    9 1
    13   13   12 1
    14   14   12 1
    15   15   12 1
    16   16    1 1
    17   17   16 1
    18   18   17 ar
    19   19   18 ar
    20   20   19 ar
    21   21   20 ar
    22   22   17 ar
    23   23   28 1
    24   24   38 2
    25   25   27 2
    26   26   27 2
    27   27   42 1
    28   28   29 1
    29   29   30 1
    30   30   31 1
    31   31   32 1
    32   32   33 1
    33   33   28 1
    34   34   31 1
    35   35   34 1
    36   36   34 1
    37   37   34 1
    38   38   23 1
    39   39   38 1
    40   40   39 ar
    41   41   40 ar
    42   42   41 ar
    43   43   42 ar
    44   44   39 ar
    45   45    6 1
    46   46    7 1
    47   47    7 1
    48   48    8 1
    49   49    8 1
    50   50    9 1
    51   51   10 1
    52   52   10 1
    53   53   11 1
    54   54   11 1
    55   55   13 1
    56   56   13 1
    57   57   13 1
    58   58   14 1
    59   59   14 1
    60   60   14 1
    61   61   15 1
    62   62   15 1
    63   63   15 1
    64   64   18 1
    65   65   19 1
    66   66   21 1
    67   67   22 1
    68   68   28 1
    69   69   29 1
    70   70   29 1
    71   71   30 1
    72   72   30 1
    73   73   31 1
    74   74   32 1
    75   75   32 1
    76   76   33 1
    77   77   33 1
    78   78   35 1
    79   79   35 1
    80   80   35 1
    81   81   36 1
    82   82   36 1
    83   83   36 1
    84   84   37 1
    85   85   37 1
    86   86   37 1
    87   87   40 1
    88   88   41 1
    89   89   43 1
    90   90   44 1
    91   21   22 ar
    92   43   44 ar
@<TRIPOS>SUBSTRUCTURE
     1 RES1 1
     2 RES2 23

@<TRIPOS>CRYSIN
   5.9963   15.5110   17.2440  83.1500  89.7300  87.9400   2 1

