# MOL2 file generated by ConQuest
# Please check atom types

@<TRIPOS>MOLECULE
JULGUS
    38    39     1
SMALL
NO_CHARGES
****
Generated from CSD

@<TRIPOS>ATOM
      1 C1         4.5359    2.4639    2.6834 C.ar      1 RES1    0.0000
      2 C2         3.2877    2.1592    3.2264 C.ar      1 RES1    0.0000
      3 C3         3.0316    2.0694    4.5795 C.ar      1 RES1    0.0000
      4 C4         4.0899    2.2553    5.4544 C.ar      1 RES1    0.0000
      5 C5         5.3577    2.5134    4.9674 C.ar      1 RES1    0.0000
      6 C6         5.5826    2.6216    3.5955 C.ar      1 RES1    0.0000
      7 C7         4.7331    2.7347    1.2383 C.2       1 RES1    0.0000
      8 C8         6.0012    2.2815    0.5732 C.3       1 RES1    0.0000
      9 N1         3.7846    3.4099    0.6881 N.2       1 RES1    0.0000
     10 N2         2.1511    1.8120    2.3343 N.pl3     1 RES1    0.0000
     11 O1         2.3362    0.9516    1.4911 O.2       1 RES1    0.0000
     12 O2         1.0946    2.3981    2.5354 O.2       1 RES1    0.0000
     13 H1         2.1061    1.7675    4.8841 H         1 RES1    0.0000
     14 H2         3.9154    2.1917    6.3637 H         1 RES1    0.0000
     15 H3         6.0453    2.7220    5.5736 H         1 RES1    0.0000
     16 H4         6.4571    2.8846    3.2608 H         1 RES1    0.0000
     17 H5         6.5958    1.7887    1.1348 H         1 RES1    0.0000
     18 H6         5.7543    1.5837    0.0431 H         1 RES1    0.0000
     19 H7         6.2826    2.9199   -0.0575 H         1 RES1    0.0000
     20 N1B        4.0304    3.6601   -0.6881 N.2       1 RES1    0.0000
     21 C7B        3.0819    4.3353   -1.2383 C.2       1 RES1    0.0000
     22 C1B        3.2791    4.6061   -2.6834 C.ar      1 RES1    0.0000
     23 C8B        1.8138    4.7885   -0.5732 C.3       1 RES1    0.0000
     24 C2B        4.5273    4.9108   -3.2264 C.ar      1 RES1    0.0000
     25 C6B        2.2324    4.4484   -3.5955 C.ar      1 RES1    0.0000
     26 H5B        1.2192    5.2813   -1.1348 H         1 RES1    0.0000
     27 H6B        2.0607    5.4863   -0.0431 H         1 RES1    0.0000
     28 H7B        1.5324    4.1501    0.0575 H         1 RES1    0.0000
     29 C3B        4.7834    5.0006   -4.5795 C.ar      1 RES1    0.0000
     30 N2B        5.6639    5.2580   -2.3343 N.pl3     1 RES1    0.0000
     31 C5B        2.4573    4.5566   -4.9674 C.ar      1 RES1    0.0000
     32 H4B        1.3579    4.1854   -3.2608 H         1 RES1    0.0000
     33 C4B        3.7251    4.8147   -5.4544 C.ar      1 RES1    0.0000
     34 H1B        5.7089    5.3025   -4.8841 H         1 RES1    0.0000
     35 O1B        5.4788    6.1184   -1.4911 O.2       1 RES1    0.0000
     36 O2B        6.7204    4.6719   -2.5354 O.2       1 RES1    0.0000
     37 H3B        1.7697    4.3480   -5.5736 H         1 RES1    0.0000
     38 H2B        3.8996    4.8783   -6.3637 H         1 RES1    0.0000
@<TRIPOS>BOND
     1    1    2 ar
     2    2    3 ar
     3    3    4 ar
     4    4    5 ar
     5    5    6 ar
     6    6    1 ar
     7    7    1 1
     8    8    7 1
     9    9    7 2
    10   10    2 1
    11   11   10 2
    12   12   10 2
    13   13    3 1
    14   14    4 1
    15   15    5 1
    16   16    6 1
    17   17    8 1
    18   18    8 1
    19   19    8 1
    20   20    9 1
    21   21   20 2
    22   22   21 1
    23   23   21 1
    24   24   22 ar
    25   25   22 ar
    26   26   23 1
    27   27   23 1
    28   28   23 1
    29   29   24 ar
    30   30   24 1
    31   31   25 ar
    32   32   25 1
    33   33   29 ar
    34   34   29 1
    35   35   30 2
    36   36   30 2
    37   37   31 1
    38   38   33 1
    39   31   33 ar
@<TRIPOS>SUBSTRUCTURE
     1 RES1 1

@<TRIPOS>CRYSIN
   7.8150    7.0700   14.4750  90.0000  97.0700  90.0000 231 1

