# MOL2 file generated by ConQuest
# Please check atom types

@<TRIPOS>MOLECULE
JULGAY
    25    25     1
SMALL
NO_CHARGES
****
Generated from CSD

@<TRIPOS>ATOM
      1 N1         1.1450    3.5598   15.6601 N.pl3     1 RES1    0.0000
      2 O1         1.4227    2.5104   16.2172 O.2       1 RES1    0.0000
      3 O2         0.9936    4.5974   16.2776 O.2       1 RES1    0.0000
      4 O3         0.9175    1.0901    8.1037 O.3       1 RES1    0.0000
      5 C1         1.1007    2.1695   12.1266 C.ar      1 RES1    0.0000
      6 C2         0.7786    0.8800   11.7088 C.ar      1 RES1    0.0000
      7 C3         0.7092    0.5456   10.3678 C.ar      1 RES1    0.0000
      8 C4         0.9936    1.5125    9.4101 C.ar      1 RES1    0.0000
      9 C5         1.3245    2.7902    9.7897 C.ar      1 RES1    0.0000
     10 C6         1.3762    3.1107   11.1430 C.ar      1 RES1    0.0000
     11 C7         1.1679    2.4343   13.5686 C.2       1 RES1    0.0000
     12 C8         1.0216    3.5930   14.1922 C.2       1 RES1    0.0000
     13 C9         0.6700    4.9307   13.6462 C.3       1 RES1    0.0000
     14 C10        1.1627    2.0527    7.0980 C.3       1 RES1    0.0000
     15 H1         0.6080    0.2037   12.3681 H         1 RES1    0.0000
     16 H2         0.4661   -0.3430   10.1003 H         1 RES1    0.0000
     17 H3         1.5195    3.4579    9.1279 H         1 RES1    0.0000
     18 H4         1.6178    4.0035   11.4019 H         1 RES1    0.0000
     19 H5         1.3444    1.6743   14.1269 H         1 RES1    0.0000
     20 H6         0.1862    4.8150   12.8205 H         1 RES1    0.0000
     21 H7         1.3843    5.3927   13.6265 H         1 RES1    0.0000
     22 H8         0.1005    5.4560   14.3586 H         1 RES1    0.0000
     23 H9         1.0460    1.5167    6.2611 H         1 RES1    0.0000
     24 H10        2.1304    2.4300    7.1867 H         1 RES1    0.0000
     25 H11        0.4912    2.7151    7.1239 H         1 RES1    0.0000
@<TRIPOS>BOND
     1    1    2 2
     2    3    1 2
     3    4    8 1
     4    5    6 ar
     5    6    7 ar
     6    7    8 ar
     7    8    9 ar
     8    9   10 ar
     9   10    5 ar
    10   11    5 1
    11   12    1 1
    12   13   12 1
    13   14    4 1
    14   15    6 1
    15   16    7 1
    16   17    9 1
    17   18   10 1
    18   19   11 1
    19   20   13 1
    20   21   13 1
    21   22   13 1
    22   23   14 1
    23   24   14 1
    24   25   14 1
    25   11   12 2
@<TRIPOS>SUBSTRUCTURE
     1 RES1 1

@<TRIPOS>CRYSIN
   7.3870   10.7190   12.3250  90.0000  90.0000  90.0000  19 1

