# MOL2 file generated by ConQuest
# Please check atom types

@<TRIPOS>MOLECULE
JULHED01
    32    33     1
SMALL
NO_CHARGES
****
Generated from CSD

@<TRIPOS>ATOM
      1 O1         3.7409    6.1098    8.1961 O.2       1 RES1    0.0000
      2 O2         2.2302    7.5563    8.7399 O.2       1 RES1    0.0000
      3 N1         3.8543    3.6334    5.5474 N.2       1 RES1    0.0000
      4 N2         2.7217    6.7479    7.9546 N.pl3     1 RES1    0.0000
      5 C1         2.3224    5.4210    5.8963 C.ar      1 RES1    0.0000
      6 C2         2.0600    6.5597    6.6592 C.ar      1 RES1    0.0000
      7 C3         1.2223    7.5745    6.2304 C.ar      1 RES1    0.0000
      8 C4         0.6447    7.4817    4.9789 C.ar      1 RES1    0.0000
      9 C5         0.8981    6.3722    4.1866 C.ar      1 RES1    0.0000
     10 C6         1.7113    5.3517    4.6388 C.ar      1 RES1    0.0000
     11 C7         3.1354    4.2868    6.3708 C.2       1 RES1    0.0000
     12 H1         1.0469    8.3237    6.7878 H         1 RES1    0.0000
     13 H2         0.0771    8.1742    4.6626 H         1 RES1    0.0000
     14 H3         0.5082    6.3141    3.3229 H         1 RES1    0.0000
     15 H4         1.8583    4.5912    4.0884 H         1 RES1    0.0000
     16 H5         3.1231    4.0439    7.2892 H         1 RES1    0.0000
     17 O1B        4.6062    0.0678    3.5455 O.2       1 RES1    0.0000
     18 O2B        6.1169   -1.3787    3.0017 O.2       1 RES1    0.0000
     19 N1B        4.4928    2.5442    6.1942 N.2       1 RES1    0.0000
     20 N2B        5.6255   -0.5703    3.7870 N.pl3     1 RES1    0.0000
     21 C1B        6.0247    0.7566    5.8453 C.ar      1 RES1    0.0000
     22 C2B        6.2871   -0.3821    5.0824 C.ar      1 RES1    0.0000
     23 C3B        7.1248   -1.3969    5.5112 C.ar      1 RES1    0.0000
     24 C4B        7.7024   -1.3041    6.7627 C.ar      1 RES1    0.0000
     25 C5B        7.4490   -0.1946    7.5550 C.ar      1 RES1    0.0000
     26 C6B        6.6359    0.8259    7.1028 C.ar      1 RES1    0.0000
     27 C7B        5.2118    1.8908    5.3708 C.2       1 RES1    0.0000
     28 H1B        7.3002   -2.1461    4.9538 H         1 RES1    0.0000
     29 H2B        8.2700   -1.9966    7.0790 H         1 RES1    0.0000
     30 H3B        7.8390   -0.1365    8.4187 H         1 RES1    0.0000
     31 H4B        6.4888    1.5864    7.6532 H         1 RES1    0.0000
     32 H5B        5.2240    2.1337    4.4524 H         1 RES1    0.0000
@<TRIPOS>BOND
     1    1    4 2
     2    2    4 2
     3    3   11 2
     4    4    6 1
     5    5    6 ar
     6    6    7 ar
     7    7    8 ar
     8    8    9 ar
     9    9   10 ar
    10   10    5 ar
    11   11    5 1
    12   12    7 1
    13   13    8 1
    14   14    9 1
    15   15   10 1
    16   16   11 1
    17   17   20 2
    18   18   20 2
    19   19    3 1
    20   20   22 1
    21   21   22 ar
    22   22   23 ar
    23   23   24 ar
    24   24   25 ar
    25   25   26 ar
    26   26   21 ar
    27   27   19 2
    28   28   23 1
    29   29   24 1
    30   30   25 1
    31   31   26 1
    32   32   27 1
    33   21   27 1
@<TRIPOS>SUBSTRUCTURE
     1 RES1 1

@<TRIPOS>CRYSIN
   9.1379    6.1776   11.7682  90.0000  93.8530  90.0000 231 1

