# MOL2 file generated by ConQuest
# Please check atom types

@<TRIPOS>MOLECULE
JULVAP
   274   236     3
SMALL
NO_CHARGES
****
Generated from CSD

@<TRIPOS>ATOM
      1 C1         7.6482    5.3837    3.1078 C.ar      1 RES1    0.0000
      2 C2         6.2193    4.9787    2.7794 C.3       1 RES1    0.0000
      3 C3         6.0951    3.5420    2.2607 C.ar      1 RES1    0.0000
      4 C4         6.7627    3.1270    1.1130 C.ar      1 RES1    0.0000
      5 C5         6.7034    1.8179    0.6237 C.ar      1 RES1    0.0000
      6 C6         5.9750    0.8957    1.3637 C.ar      1 RES1    0.0000
      7 C7         5.2953    1.2617    2.5229 C.ar      1 RES1    0.0000
      8 C8         4.6383    0.1574    3.3370 C.3       1 RES1    0.0000
      9 C9         5.6809   -0.8697    3.7013 C.ar      1 RES1    0.0000
     10 C10        5.7345   -2.1341    3.0737 C.ar      1 RES1    0.0000
     11 C11        6.8043   -2.9676    3.2726 C.ar      1 RES1    0.0000
     12 C12        7.8815   -2.5720    4.0595 C.ar      1 RES1    0.0000
     13 C13        7.8688   -1.3376    4.7086 C.ar      1 RES1    0.0000
     14 C14        9.0689   -0.8338    5.4502 C.3       1 RES1    0.0000
     15 C15        9.7611    0.2640    4.6883 C.ar      1 RES1    0.0000
     16 C16       10.1783    0.0657    3.3772 C.ar      1 RES1    0.0000
     17 C17       10.7888    1.0643    2.6516 C.ar      1 RES1    0.0000
     18 C18       10.9549    2.3274    3.2258 C.ar      1 RES1    0.0000
     19 C19       10.5336    2.5710    4.5262 C.ar      1 RES1    0.0000
     20 C20       10.5996    3.9899    5.0689 C.3       1 RES1    0.0000
     21 C21        9.7678    4.9189    4.2148 C.ar      1 RES1    0.0000
     22 C22       10.3584    5.9587    3.5041 C.ar      1 RES1    0.0000
     23 C23        9.5846    6.7308    2.6294 C.ar      1 RES1    0.0000
     24 C24        8.2700    6.4221    2.4114 C.ar      1 RES1    0.0000
     25 C25        5.3163    2.5886    2.9318 C.ar      1 RES1    0.0000
     26 C26        6.7149   -0.5380    4.5579 C.ar      1 RES1    0.0000
     27 C27        9.9850    1.5232    5.2611 C.ar      1 RES1    0.0000
     28 C28        8.3935    4.7035    4.0656 C.ar      1 RES1    0.0000
     29 O1         4.6344    2.9660    4.0790 O.3       1 RES1    0.0000
     30 C29        3.3077    3.4486    3.8117 C.3       1 RES1    0.0000
     31 C30        2.7202    3.9311    5.0858 C.3       1 RES1    0.0000
     32 C31        1.3681    4.5922    4.9129 C.3       1 RES1    0.0000
     33 O2         6.6747    0.6710    5.2181 O.3       1 RES1    0.0000
     34 C32        6.5749    0.6118    6.6472 C.3       1 RES1    0.0000
     35 C33        5.1382    0.8564    7.0642 C.3       1 RES1    0.0000
     36 C34        5.0137    0.4713    8.5595 C.3       1 RES1    0.0000
     37 O3         9.6167    1.7409    6.5768 O.3       1 RES1    0.0000
     38 C35       10.6901    1.3584    7.4745 C.3       1 RES1    0.0000
     39 C36       10.1816    1.1306    8.9070 C.3       1 RES1    0.0000
     40 C37        9.5314    2.3517    9.5309 C.3       1 RES1    0.0000
     41 O4         7.7976    3.7195    4.8097 O.3       1 RES1    0.0000
     42 C38        6.9494    4.2051    5.8640 C.3       1 RES1    0.0000
     43 C39        7.7154    4.7188    7.0456 C.3       1 RES1    0.0000
     44 C40        6.7584    5.0231    8.2051 C.3       1 RES1    0.0000
     45 N1         7.5914    4.0395    0.3818 N.pl3     1 RES1    0.0000
     46 N2         7.0550    4.9754   -0.4460 N.2       1 RES1    0.0000
     47 N3         8.0450    5.6419   -0.9804 N.2       1 RES1    0.0000
     48 C41        9.2283    5.1424   -0.4986 C.2       1 RES1    0.0000
     49 C42        8.9300    4.1168    0.3657 C.2       1 RES1    0.0000
     50 C43       10.5160    5.7267   -0.8746 C.ar      1 RES1    0.0000
     51 C44       10.5702    6.6466   -1.9131 C.ar      1 RES1    0.0000
     52 C45       11.7462    7.3057   -2.2113 C.ar      1 RES1    0.0000
     53 C46       12.8737    6.9925   -1.4820 C.ar      1 RES1    0.0000
     54 C47       12.8777    6.0452   -0.5021 C.ar      1 RES1    0.0000
     55 C48       11.6872    5.4125   -0.1931 C.ar      1 RES1    0.0000
     56 N4        14.0992    7.7578   -1.7321 N.pl3     1 RES1    0.0000
     57 O5        15.1246    7.3958   -1.1618 O.2       1 RES1    0.0000
     58 O6        14.0533    8.7139   -2.5073 O.2       1 RES1    0.0000
     59 N5         7.4177    1.4233   -0.5037 N.3       1 RES1    0.0000
     60 H1         5.6249    5.0874    3.5770 H         1 RES1    0.0000
     61 H2         5.9095    5.5761    2.0276 H         1 RES1    0.0000
     62 H3         5.9238   -0.0354    1.0562 H         1 RES1    0.0000
     63 H4         4.2154    0.5422    4.1585 H         1 RES1    0.0000
     64 H5         3.9303   -0.2916    2.7803 H         1 RES1    0.0000
     65 H6         5.0118   -2.3873    2.4921 H         1 RES1    0.0000
     66 H7         6.8237   -3.8412    2.8684 H         1 RES1    0.0000
     67 H8         8.6697   -3.1300    4.1331 H         1 RES1    0.0000
     68 H9         9.7407   -1.5567    5.5758 H         1 RES1    0.0000
     69 H10        8.8013   -0.5229    6.3895 H         1 RES1    0.0000
     70 H11       10.0552   -0.8031    2.9583 H         1 RES1    0.0000
     71 H12       11.1112    0.9329    1.7614 H         1 RES1    0.0000
     72 H13       11.3704    3.0598    2.7141 H         1 RES1    0.0000
     73 H14       11.5543    4.2896    5.0892 H         1 RES1    0.0000
     74 H15       10.2153    3.9819    6.0132 H         1 RES1    0.0000
     75 H16       11.3022    6.1547    3.6008 H         1 RES1    0.0000
     76 H17        9.9924    7.4650    2.1717 H         1 RES1    0.0000
     77 H18        7.7327    6.8738    1.7258 H         1 RES1    0.0000
     78 H19        3.3429    4.2137    3.1668 H         1 RES1    0.0000
     79 H20        2.7417    2.7199    3.4160 H         1 RES1    0.0000
     80 H21        3.3505    4.5943    5.4351 H         1 RES1    0.0000
     81 H22        2.6447    3.1377    5.6571 H         1 RES1    0.0000
     82 H23        0.9894    4.8535    5.7809 H         1 RES1    0.0000
     83 H24        1.5382    5.4016    4.3586 H         1 RES1    0.0000
     84 H25        0.7753    3.9368    4.4603 H         1 RES1    0.0000
     85 H26        7.1340    1.3104    7.0846 H         1 RES1    0.0000
     86 H27        6.8312   -0.2673    6.9879 H         1 RES1    0.0000
     87 H28        4.8566    1.7786    6.8591 H         1 RES1    0.0000
     88 H29        4.5990    0.2237    6.5624 H         1 RES1    0.0000
     89 H30        4.2613   -0.1424    8.6442 H         1 RES1    0.0000
     90 H31        4.8103    1.3245    8.9935 H         1 RES1    0.0000
     91 H32        5.8262    0.0327    8.8883 H         1 RES1    0.0000
     92 H33       11.3607    2.0817    7.4457 H         1 RES1    0.0000
     93 H34       11.1117    0.5227    7.1286 H         1 RES1    0.0000
     94 H35       10.9727    0.8882    9.4580 H         1 RES1    0.0000
     95 H36        9.4870    0.4177    8.9290 H         1 RES1    0.0000
     96 H37        9.4915    2.2346   10.4921 H         1 RES1    0.0000
     97 H38       10.0844    3.1001    9.2545 H         1 RES1    0.0000
     98 H39        8.6443    2.3701    9.1494 H         1 RES1    0.0000
     99 H40        6.3303    4.9322    5.5114 H         1 RES1    0.0000
    100 H41        6.4185    3.4569    6.2166 H         1 RES1    0.0000
    101 H42        8.1714    5.5439    6.7659 H         1 RES1    0.0000
    102 H43        8.3493    4.0417    7.2948 H         1 RES1    0.0000
    103 H44        7.2375    5.4647    8.9087 H         1 RES1    0.0000
    104 H45        6.0553    5.6352    7.9203 H         1 RES1    0.0000
    105 H46        6.3525    4.2092    8.5645 H         1 RES1    0.0000
    106 H47        9.5456    3.5465    0.8697 H         1 RES1    0.0000
    107 H48        9.7708    6.7928   -2.4548 H         1 RES1    0.0000
    108 H49       11.7812    7.9650   -2.9227 H         1 RES1    0.0000
    109 H50       13.6932    5.8412   -0.0017 H         1 RES1    0.0000
    110 H51       11.6204    4.7624    0.5306 H         1 RES1    0.0000
    111 H52        7.8165    2.0599   -1.0256 H         1 RES1    0.0000
    112 H53        7.1656    0.6555   -0.8917 H         1 RES1    0.0000
    113 C49        5.6306    0.7130    6.2301 Du        3 SUP3    0.0000
    114 C50        6.1598    0.2963    7.5898 Du        3 SUP3    0.0000
    115 C51        5.1873    0.8967    8.6307 Du        3 SUP3    0.0000
    116 C52       10.3909    1.1817    7.6491 Du        3 SUP3    0.0000
    117 C53        9.6198    1.4555    8.9341 Du        3 SUP3    0.0000
    118 C54       10.4858    0.8859   10.0615 Du        3 SUP3    0.0000
    119 C55        7.6722    3.8232    6.2505 Du        3 SUP3    0.0000
    120 C56        6.5168    4.7206    6.6811 Du        3 SUP3    0.0000
    121 C57        6.3281    4.6097    8.2068 Du        3 SUP3    0.0000
    122 H54        5.2687    1.6211    6.2759 Du        3 SUP3    0.0000
    123 H55        4.9269    0.0888    5.9742 Du        3 SUP3    0.0000
    124 H56        7.0807    0.5878    7.7033 Du        3 SUP3    0.0000
    125 H57        6.1132   -0.6614    7.6304 Du        3 SUP3    0.0000
    126 H58        4.9876    0.1901    9.2800 Du        3 SUP3    0.0000
    127 H59        5.6952    1.6138    9.0477 Du        3 SUP3    0.0000
    128 H60        4.3678    1.2759    8.2458 Du        3 SUP3    0.0000
    129 H61       11.2481    1.6424    7.6745 Du        3 SUP3    0.0000
    130 H62       10.5536    0.2137    7.5101 Du        3 SUP3    0.0000
    131 H63        9.5112    2.4019    9.0630 Du        3 SUP3    0.0000
    132 H64        8.7399    1.0403    8.9579 Du        3 SUP3    0.0000
    133 H65        8.4669    4.2919    6.5607 Du        3 SUP3    0.0000
    134 H66        7.6180    2.9566    6.6879 Du        3 SUP3    0.0000
    135 H67        6.6609    5.6591    6.4539 Du        3 SUP3    0.0000
    136 H68        5.7357    4.3778    6.1996 Du        3 SUP3    0.0000
    137 H69        6.3058    5.4862    8.6069 Du        3 SUP3    0.0000
    138 H70        7.0311    4.0882    8.6069 Du        3 SUP3    0.0000
    139 H71        5.4838    4.1750    8.3594 Du        3 SUP3    0.0000
    140 H72       10.0614    0.9843   10.9057 Du        3 SUP3    0.0000
    141 H73       11.2980    1.3802   10.0547 Du        3 SUP3    0.0000
    142 H74       10.6713   -0.0322    9.9038 Du        3 SUP3    0.0000
    143 C58       16.4215    8.8899    5.7689 C.ar      2 RES2    0.0000
    144 C59       16.7591    8.8280    4.2869 C.3       2 RES2    0.0000
    145 C60       15.6914    9.5436    3.4811 C.ar      2 RES2    0.0000
    146 C61       14.7191    8.8838    2.7287 C.ar      2 RES2    0.0000
    147 C62       13.6237    9.5373    2.1547 C.ar      2 RES2    0.0000
    148 C63       13.4960   10.9005    2.3964 C.ar      2 RES2    0.0000
    149 C64       14.4506   11.6074    3.1076 C.ar      2 RES2    0.0000
    150 C65       14.2102   13.0506    3.5116 C.3       2 RES2    0.0000
    151 C66       13.9004   13.1214    4.9968 C.ar      2 RES2    0.0000
    152 C67       12.9317   12.2970    5.5522 C.ar      2 RES2    0.0000
    153 C68       12.6864   12.2968    6.9133 C.ar      2 RES2    0.0000
    154 C69       13.4438   13.0889    7.7364 C.ar      2 RES2    0.0000
    155 C70       14.4324   13.9269    7.2307 C.ar      2 RES2    0.0000
    156 C71       15.3319   14.6763    8.1982 C.3       2 RES2    0.0000
    157 C72       15.9280   13.6996    9.2020 C.ar      2 RES2    0.0000
    158 C73       15.5316   13.6983   10.5297 C.ar      2 RES2    0.0000
    159 C74       15.9179   12.6690   11.3940 C.ar      2 RES2    0.0000
    160 C75       16.6795   11.6313   10.9123 C.ar      2 RES2    0.0000
    161 C76       17.1015   11.6041    9.5919 C.ar      2 RES2    0.0000
    162 C77       17.8352   10.4070    9.0096 C.3       2 RES2    0.0000
    163 C78       16.9535    9.6419    8.0268 C.ar      2 RES2    0.0000
    164 C79       15.7296    9.1563    8.4618 C.ar      2 RES2    0.0000
    165 C80       14.8802    8.5218    7.5813 C.ar      2 RES2    0.0000
    166 C81       15.1967    8.4083    6.2400 C.ar      2 RES2    0.0000
    167 C82       15.5751   10.9309    3.5899 C.ar      2 RES2    0.0000
    168 C83       14.6259   13.9626    5.8499 C.ar      2 RES2    0.0000
    169 C84       16.7704   12.6717    8.7661 C.ar      2 RES2    0.0000
    170 C85       17.2985    9.4719    6.6948 C.ar      2 RES2    0.0000
    171 O7        16.5377   11.6316    4.2872 O.3       2 RES2    0.0000
    172 C86       17.7941   11.7874    3.5838 C.3       2 RES2    0.0000
    173 C87       17.8488   13.1132    2.8650 C.3       2 RES2    0.0000
    174 C88       19.2193   13.3445    2.2123 C.3       2 RES2    0.0000
    175 O8        15.6138   14.7815    5.3203 O.3       2 RES2    0.0000
    176 C89       15.1595   16.0812    4.9400 C.3       2 RES2    0.0000
    177 C90       16.1667   16.7862    4.0771 C.3       2 RES2    0.0000
    178 C91       17.5289   16.9736    4.7468 C.3       2 RES2    0.0000
    179 O9        17.1840   12.6264    7.4535 O.3       2 RES2    0.0000
    180 C92       18.1125   13.6353    7.0354 C.3       2 RES2    0.0000
    181 C93       19.5059   13.1148    6.9659 C.3       2 RES2    0.0000
    182 C94       20.3969   14.2042    6.3336 C.3       2 RES2    0.0000
    183 O10       18.5433    9.8897    6.2556 O.3       2 RES2    0.0000
    184 C95       19.5066    8.8179    6.3200 C.3       2 RES2    0.0000
    185 C96       20.8196    9.2977    5.7951 C.3       2 RES2    0.0000
    186 C97       21.8453    8.1631    5.7826 C.3       2 RES2    0.0000
    187 N6        14.8648    7.4656    2.4943 N.pl3     2 RES2    0.0000
    188 N7        13.9645    6.5589    2.9372 N.2       2 RES2    0.0000
    189 N8        14.3848    5.3695    2.5661 N.2       2 RES2    0.0000
    190 C98       15.5522    5.5135    1.8679 C.2       2 RES2    0.0000
    191 C99       15.8551    6.8514    1.8224 C.2       2 RES2    0.0000
    192 C100      16.3012    4.3752    1.3220 C.ar      2 RES2    0.0000
    193 C101      15.7822    3.0823    1.4088 C.ar      2 RES2    0.0000
    194 C102      16.5115    2.0089    0.9273 C.ar      2 RES2    0.0000
    195 C103      17.7223    2.2270    0.3457 C.ar      2 RES2    0.0000
    196 C104      18.2672    3.4861    0.2185 C.ar      2 RES2    0.0000
    197 C105      17.5329    4.5599    0.7032 C.ar      2 RES2    0.0000
    198 N9        18.4863    1.0805   -0.1760 N.pl3     2 RES2    0.0000
    199 O11       18.0619   -0.0373    0.0492 O.2       2 RES2    0.0000
    200 O12       19.5183    1.3081   -0.7763 O.2       2 RES2    0.0000
    201 N10       12.7105    8.8627    1.3381 N.3       2 RES2    0.0000
    202 H75       17.6827    9.2595    4.1229 H         2 RES2    0.0000
    203 H76       16.7427    7.8549    4.0246 H         2 RES2    0.0000
    204 H77       12.7108   11.3515    2.0767 H         2 RES2    0.0000
    205 H78       14.9987   13.6268    3.2583 H         2 RES2    0.0000
    206 H79       13.4093   13.4083    3.0464 H         2 RES2    0.0000
    207 H80       12.4259   11.7165    4.9790 H         2 RES2    0.0000
    208 H81       11.9835   11.7605    7.2592 H         2 RES2    0.0000
    209 H82       13.3041   13.0587    8.7002 H         2 RES2    0.0000
    210 H83       16.0647   15.1265    7.6694 H         2 RES2    0.0000
    211 H84       14.7912   15.3403    8.6832 H         2 RES2    0.0000
    212 H85       14.9605   14.4156   10.8362 H         2 RES2    0.0000
    213 H86       15.6360   12.6773   12.3162 H         2 RES2    0.0000
    214 H87       16.9037   10.8967   11.5160 H         2 RES2    0.0000
    215 H88       18.7140   10.6871    8.5679 H         2 RES2    0.0000
    216 H89       18.0316    9.8057    9.7665 H         2 RES2    0.0000
    217 H90       15.4476    9.2655    9.3935 H         2 RES2    0.0000
    218 H91       14.0594    8.1733    7.9034 H         2 RES2    0.0000
    219 H92       14.6249    7.9671    5.6148 H         2 RES2    0.0000
    220 H93       18.5354   11.7903    4.2687 H         2 RES2    0.0000
    221 H94       17.8943   11.0320    2.9193 H         2 RES2    0.0000
    222 H95       17.6563   13.8271    3.5092 H         2 RES2    0.0000
    223 H96       17.1553   13.1039    2.1361 H         2 RES2    0.0000
    224 H97       19.1885   14.2008    1.7377 H         2 RES2    0.0000
    225 H98       19.8799   13.3782    2.9328 H         2 RES2    0.0000
    226 H99       19.4232   12.6276    1.5732 H         2 RES2    0.0000
    227 H100      14.9631   16.6266    5.7589 H         2 RES2    0.0000
    228 H101      14.3445   15.9996    4.4043 H         2 RES2    0.0000
    229 H102      15.8207   17.7457    4.0144 H         2 RES2    0.0000
    230 H103      16.2366   16.2755    3.1753 H         2 RES2    0.0000
    231 H104      18.1372   17.4035    4.0958 H         2 RES2    0.0000
    232 H105      17.3859   17.5271    5.5656 H         2 RES2    0.0000
    233 H106      17.8732   16.0781    4.9892 H         2 RES2    0.0000
    234 H107      18.1575   14.3986    7.6949 H         2 RES2    0.0000
    235 H108      17.9607   13.9432    6.0674 H         2 RES2    0.0000
    236 H109      19.7171   12.8747    7.9373 H         2 RES2    0.0000
    237 H110      19.4081   12.3388    6.3471 H         2 RES2    0.0000
    238 H111      21.3234   14.0305    6.5607 H         2 RES2    0.0000
    239 H112      20.0748   15.0560    6.6658 H         2 RES2    0.0000
    240 H113      20.2675   14.1890    5.3656 H         2 RES2    0.0000
    241 H114      19.6182    8.5442    7.2999 H         2 RES2    0.0000
    242 H115      19.2017    8.0370    5.7351 H         2 RES2    0.0000
    243 H116      21.1369   10.0049    6.4387 H         2 RES2    0.0000
    244 H117      20.6716    9.6629    4.8417 H         2 RES2    0.0000
    245 H118      22.7024    8.4932    5.3876 H         2 RES2    0.0000
    246 H119      22.0123    7.8233    6.7031 H         2 RES2    0.0000
    247 H120      21.4599    7.4336    5.2113 H         2 RES2    0.0000
    248 H121      16.6092    7.2910    1.4139 H         2 RES2    0.0000
    249 H122      14.9010    2.9585    1.8173 H         2 RES2    0.0000
    250 H123      16.1782    1.1240    1.0341 H         2 RES2    0.0000
    251 H124      19.1459    3.6077   -0.1916 H         2 RES2    0.0000
    252 H125      17.8730    5.4660    0.6612 H         2 RES2    0.0000
    253 H126      12.6801    7.9800    1.4156 H         2 RES2    0.0000
    254 H127      12.0887    9.3258    0.9341 H         2 RES2    0.0000
    255 C106      17.2908   12.5736    3.4957 Du        3 SUP3    0.0000
    256 C107      18.5892   11.9281    3.0481 Du        3 SUP3    0.0000
    257 C108      19.5396   12.9981    2.4870 Du        3 SUP3    0.0000
    258 C109      15.0701   16.1110    5.2621 Du        3 SUP3    0.0000
    259 C110      16.2228   17.0492    4.9451 Du        3 SUP3    0.0000
    260 C111      17.0291   16.4957    3.7567 Du        3 SUP3    0.0000
    261 H128      17.5253   13.3515    4.0483 Du        3 SUP3    0.0000
    262 H129      16.7619   12.8526    2.7158 Du        3 SUP3    0.0000
    263 H130      18.9984   11.4307    3.7856 Du        3 SUP3    0.0000
    264 H131      18.3412   11.3191    2.3174 Du        3 SUP3    0.0000
    265 H132      20.4315   12.6810    2.6548 Du        3 SUP3    0.0000
    266 H133      19.3858   13.8334    2.9566 Du        3 SUP3    0.0000
    267 H134      19.4122   13.1252    1.5308 Du        3 SUP3    0.0000
    268 H135      14.8855   16.3062    6.2115 Du        3 SUP3    0.0000
    269 H136      14.2497   16.2482    4.7434 Du        3 SUP3    0.0000
    270 H137      16.9611   16.9693    5.5588 Du        3 SUP3    0.0000
    271 H138      15.9070   17.9801    4.9468 Du        3 SUP3    0.0000
    272 H139      16.9893   17.2332    3.1210 Du        3 SUP3    0.0000
    273 H140      17.9368   16.1652    3.7856 Du        3 SUP3    0.0000
    274 H141      16.4395   15.7748    3.4584 Du        3 SUP3    0.0000
@<TRIPOS>BOND
     1    1    2 1
     2    2    3 1
     3    3    4 ar
     4    4    5 ar
     5    5    6 ar
     6    6    7 ar
     7    7    8 1
     8    8    9 1
     9    9   10 ar
    10   10   11 ar
    11   11   12 ar
    12   12   13 ar
    13   13   14 1
    14   14   15 1
    15   15   16 ar
    16   16   17 ar
    17   17   18 ar
    18   18   19 ar
    19   19   20 1
    20   20   21 1
    21   21   22 ar
    22   22   23 ar
    23   23   24 ar
    24   24    1 ar
    25   25    3 ar
    26   26    9 ar
    27   27   15 ar
    28   28    1 ar
    29   29   25 1
    30   30   29 1
    31   31   30 1
    32   32   31 1
    33   33   26 1
    34   34   33 1
    35   35   34 1
    36   36   35 1
    37   37   27 1
    38   38   37 1
    39   39   38 1
    40   40   39 1
    41   41   28 1
    42   42   41 1
    43   43   42 1
    44   44   43 1
    45   45    4 1
    46   46   45 1
    47   47   46 2
    48   48   47 1
    49   49   45 1
    50   50   48 1
    51   51   50 ar
    52   52   51 ar
    53   53   52 ar
    54   54   53 ar
    55   55   50 ar
    56   56   53 1
    57   57   56 2
    58   58   56 2
    59   59    5 1
    60   60    2 1
    61   61    2 1
    62   62    6 1
    63   63    8 1
    64   64    8 1
    65   65   10 1
    66   66   11 1
    67   67   12 1
    68   68   14 1
    69   69   14 1
    70   70   16 1
    71   71   17 1
    72   72   18 1
    73   73   20 1
    74   74   20 1
    75   75   22 1
    76   76   23 1
    77   77   24 1
    78   78   30 1
    79   79   30 1
    80   80   31 1
    81   81   31 1
    82   82   32 1
    83   83   32 1
    84   84   32 1
    85   85   34 1
    86   86   34 1
    87   87   35 1
    88   88   35 1
    89   89   36 1
    90   90   36 1
    91   91   36 1
    92   92   38 1
    93   93   38 1
    94   94   39 1
    95   95   39 1
    96   96   40 1
    97   97   40 1
    98   98   40 1
    99   99   42 1
   100  100   42 1
   101  101   43 1
   102  102   43 1
   103  103   44 1
   104  104   44 1
   105  105   44 1
   106  106   49 1
   107  107   51 1
   108  108   52 1
   109  109   54 1
   110  110   55 1
   111  111   59 1
   112  112   59 1
   113  143  144 1
   114  144  145 1
   115  145  146 ar
   116  146  147 ar
   117  147  148 ar
   118  148  149 ar
   119  149  150 1
   120  150  151 1
   121  151  152 ar
   122  152  153 ar
   123  153  154 ar
   124  154  155 ar
   125  155  156 1
   126  156  157 1
   127  157  158 ar
   128  158  159 ar
   129  159  160 ar
   130  160  161 ar
   131  161  162 1
   132  162  163 1
   133  163  164 ar
   134  164  165 ar
   135  165  166 ar
   136  166  143 ar
   137  167  145 ar
   138  168  151 ar
   139  169  157 ar
   140  170  143 ar
   141  171  167 1
   142  172  171 1
   143  173  172 1
   144  174  173 1
   145  175  168 1
   146  176  175 1
   147  177  176 1
   148  178  177 1
   149  179  169 1
   150  180  179 1
   151  181  180 1
   152  182  181 1
   153  183  170 1
   154  184  183 1
   155  185  184 1
   156  186  185 1
   157  187  146 1
   158  188  187 1
   159  189  188 2
   160  190  189 1
   161  191  187 1
   162  192  190 1
   163  193  192 ar
   164  194  193 ar
   165  195  194 ar
   166  196  195 ar
   167  197  192 ar
   168  198  195 1
   169  199  198 2
   170  200  198 2
   171  201  147 1
   172  202  144 1
   173  203  144 1
   174  204  148 1
   175  205  150 1
   176  206  150 1
   177  207  152 1
   178  208  153 1
   179  209  154 1
   180  210  156 1
   181  211  156 1
   182  212  158 1
   183  213  159 1
   184  214  160 1
   185  215  162 1
   186  216  162 1
   187  217  164 1
   188  218  165 1
   189  219  166 1
   190  220  172 1
   191  221  172 1
   192  222  173 1
   193  223  173 1
   194  224  174 1
   195  225  174 1
   196  226  174 1
   197  227  176 1
   198  228  176 1
   199  229  177 1
   200  230  177 1
   201  231  178 1
   202  232  178 1
   203  233  178 1
   204  234  180 1
   205  235  180 1
   206  236  181 1
   207  237  181 1
   208  238  182 1
   209  239  182 1
   210  240  182 1
   211  241  184 1
   212  242  184 1
   213  243  185 1
   214  244  185 1
   215  245  186 1
   216  246  186 1
   217  247  186 1
   218  248  191 1
   219  249  193 1
   220  250  194 1
   221  251  196 1
   222  252  197 1
   223  253  201 1
   224  254  201 1
   225    7   25 ar
   226   13   26 ar
   227   19   27 ar
   228   21   28 ar
   229   48   49 2
   230   54   55 ar
   231  149  167 ar
   232  155  168 ar
   233  161  169 ar
   234  163  170 ar
   235  190  191 2
   236  196  197 ar
@<TRIPOS>SUBSTRUCTURE
     1 RES1 1
     2 RES2 143
     3 SUP3 113

@<TRIPOS>CRYSIN
  15.9200   16.3222   19.6072  69.2880  66.9710  84.1230   2 1

