# MOL2 file generated by ConQuest
# Please check atom types

@<TRIPOS>MOLECULE
JULWAO20
    68    72     2
SMALL
NO_CHARGES
****
Generated from CSD

@<TRIPOS>ATOM
      1 O1         3.6365    1.0237    6.5799 O.2       1 RES1    0.0000
      2 O2         7.7347    2.7520    8.1576 O.2       1 RES1    0.0000
      3 O3         6.8797   -3.9495   13.3557 O.2       1 RES1    0.0000
      4 O4         6.6096   -2.5435   14.9606 O.2       1 RES1    0.0000
      5 N1         5.4486    1.2275   10.0290 N.2       1 RES1    0.0000
      6 N2         5.5788    0.9036    8.8322 N.2       1 RES1    0.0000
      7 N3         6.5924   -2.8215   13.7909 N.pl3     1 RES1    0.0000
      8 C1         6.2616   -1.7931   12.8035 C.ar      1 RES1    0.0000
      9 C2         5.9874   -0.4945   13.2306 C.ar      1 RES1    0.0000
     10 C3         5.7049    0.4566   12.2867 C.ar      1 RES1    0.0000
     11 C4         5.7084    0.1216   10.9402 C.ar      1 RES1    0.0000
     12 C5         5.9757   -1.1770   10.5159 C.ar      1 RES1    0.0000
     13 C6         6.2313   -2.1359   11.4380 C.ar      1 RES1    0.0000
     14 C7         4.6590    3.2733    8.4840 C.3       1 RES1    0.0000
     15 C8         5.4093    2.0427    7.8883 C.3       1 RES1    0.0000
     16 C9         4.7072    1.5119    6.6316 C.2       1 RES1    0.0000
     17 C10        5.6257    1.8089    5.5109 C.ar      1 RES1    0.0000
     18 C11        6.8473    2.3334    5.9516 C.ar      1 RES1    0.0000
     19 C12        6.8294    2.4282    7.4422 C.2       1 RES1    0.0000
     20 C13        7.9159    2.6019    5.0866 C.ar      1 RES1    0.0000
     21 C14        7.6803    2.3618    3.7483 C.ar      1 RES1    0.0000
     22 C15        6.4670    1.8736    3.2859 C.ar      1 RES1    0.0000
     23 C16        5.4472    1.5656    4.1454 C.ar      1 RES1    0.0000
     24 H1         5.9915   -0.2528   14.2832 H         1 RES1    0.0000
     25 H2         5.4934    1.4692   12.5941 H         1 RES1    0.0000
     26 H3         5.9626   -1.4250    9.4659 H         1 RES1    0.0000
     27 H4         6.4132   -3.1549   11.1306 H         1 RES1    0.0000
     28 H5         3.6675    2.9732    8.7914 H         1 RES1    0.0000
     29 H6         4.5860    4.0506    7.7387 H         1 RES1    0.0000
     30 H7         5.2013    3.6462    9.3408 H         1 RES1    0.0000
     31 H8         8.8592    2.9858    5.4456 H         1 RES1    0.0000
     32 H9         8.4644    2.5451    3.0275 H         1 RES1    0.0000
     33 H10        6.3057    1.7315    2.2250 H         1 RES1    0.0000
     34 H11        4.5178    1.1580    3.7782 H         1 RES1    0.0000
     35 O5         4.6542    2.5403   14.9061 O.2       2 RES2    0.0000
     36 O6         0.6056    0.6051   16.3587 O.2       2 RES2    0.0000
     37 O7         2.7615   -2.0569    7.6108 O.2       2 RES2    0.0000
     38 O8         3.1797   -3.5624    8.9736 O.2       2 RES2    0.0000
     39 N4         2.1380    1.1959   12.9477 N.2       2 RES2    0.0000
     40 N5         2.4391    0.7946   14.0656 N.2       2 RES2    0.0000
     41 N6         2.8401   -2.4471    8.7179 N.pl3     2 RES2    0.0000
     42 C17        2.6327   -1.5213    9.8413 C.ar      2 RES2    0.0000
     43 C18        2.7567   -2.0111   11.1388 C.ar      2 RES2    0.0000
     44 C19        2.5769   -1.1517   12.1888 C.ar      2 RES2    0.0000
     45 C20        2.3226    0.1943   11.9249 C.ar      2 RES2    0.0000
     46 C21        2.1655    0.6588   10.6193 C.ar      2 RES2    0.0000
     47 C22        2.3454   -0.2101    9.5666 C.ar      2 RES2    0.0000
     48 C23        1.5544    3.0964   14.7484 C.3       2 RES2    0.0000
     49 C24        2.3006    1.8310   15.1292 C.3       2 RES2    0.0000
     50 C25        3.7089    2.1517   15.5862 C.2       2 RES2    0.0000
     51 C26        3.7909    1.9511   17.0768 C.ar      2 RES2    0.0000
     52 C27        2.6230    1.3444   17.4821 C.ar      2 RES2    0.0000
     53 C28        1.6991    1.1612   16.3424 C.2       2 RES2    0.0000
     54 C29        2.3715    0.9937   18.8285 C.ar      2 RES2    0.0000
     55 C30        3.4381    1.2717   19.6826 C.ar      2 RES2    0.0000
     56 C31        4.5970    1.8547   19.2964 C.ar      2 RES2    0.0000
     57 C32        4.8285    2.1659   17.9581 C.ar      2 RES2    0.0000
     58 H12        2.9868   -3.0506   11.3156 H         2 RES2    0.0000
     59 H13        2.6299   -1.5103   13.2061 H         2 RES2    0.0000
     60 H14        1.8782    1.6841   10.4343 H         2 RES2    0.0000
     61 H15        2.2833    0.1422    8.5466 H         2 RES2    0.0000
     62 H16        0.5546    2.8468   14.4274 H         2 RES2    0.0000
     63 H17        2.0766    3.5972   13.9487 H         2 RES2    0.0000
     64 H18        1.5020    3.7489   15.6079 H         2 RES2    0.0000
     65 H19        1.4469    0.5482   19.1685 H         2 RES2    0.0000
     66 H20        3.3472    1.0016   20.7244 H         2 RES2    0.0000
     67 H21        5.3515    2.1043   20.0281 H         2 RES2    0.0000
     68 H22        5.7807    2.5514   17.6290 H         2 RES2    0.0000
@<TRIPOS>BOND
     1    1   16 2
     2    2   19 2
     3    3    7 2
     4    4    7 2
     5    5    6 2
     6    6   15 1
     7    7    8 1
     8    8    9 ar
     9    9   10 ar
    10   10   11 ar
    11   11    5 1
    12   12   11 ar
    13   13    8 ar
    14   14   15 1
    15   15   16 1
    16   16   17 1
    17   17   18 ar
    18   18   19 1
    19   19   15 1
    20   20   18 ar
    21   21   20 ar
    22   22   21 ar
    23   23   17 ar
    24   24    9 1
    25   25   10 1
    26   26   12 1
    27   27   13 1
    28   28   14 1
    29   29   14 1
    30   30   14 1
    31   31   20 1
    32   32   21 1
    33   33   22 1
    34   34   23 1
    35   35   50 2
    36   36   53 2
    37   37   41 2
    38   38   41 2
    39   39   40 2
    40   40   49 1
    41   41   42 1
    42   42   43 ar
    43   43   44 ar
    44   44   45 ar
    45   45   39 1
    46   46   45 ar
    47   47   42 ar
    48   48   49 1
    49   49   50 1
    50   50   51 1
    51   51   52 ar
    52   52   53 1
    53   53   49 1
    54   54   52 ar
    55   55   54 ar
    56   56   55 ar
    57   57   51 ar
    58   58   43 1
    59   59   44 1
    60   60   46 1
    61   61   47 1
    62   62   48 1
    63   63   48 1
    64   64   48 1
    65   65   54 1
    66   66   55 1
    67   67   56 1
    68   68   57 1
    69   12   13 ar
    70   22   23 ar
    71   46   47 ar
    72   56   57 ar
@<TRIPOS>SUBSTRUCTURE
     1 RES1 1
     2 RES2 35

@<TRIPOS>CRYSIN
   6.8900   15.7980   27.2010  90.0000  90.0000  90.0000  19 1

