# MOL2 file generated by ConQuest
# Please check atom types

@<TRIPOS>MOLECULE
JUMDIG
    98   102     2
SMALL
NO_CHARGES
****
Generated from CSD

@<TRIPOS>ATOM
      1 N1         9.6683    0.6294    2.3761 N.2       1 RES1    0.0000
      2 N2         7.1557    0.7692    6.4545 N.am      1 RES1    0.0000
      3 C1         9.7784   -1.0901    0.6702 C.2       1 RES1    0.0000
      4 C2        10.8385   -0.3685   -0.1259 C.ar      1 RES1    0.0000
      5 C3        11.8206   -1.2391   -0.7218 C.ar      1 RES1    0.0000
      6 H1        11.7449   -2.1625   -0.6450 H         1 RES1    0.0000
      7 C4        12.8222   -0.7029   -1.3730 C.ar      1 RES1    0.0000
      8 H2        13.4854   -1.2391   -1.7446 H         1 RES1    0.0000
      9 C5        12.8796    0.7391   -1.5050 C.ar      1 RES1    0.0000
     10 H3        13.6104    1.1273   -1.9289 H         1 RES1    0.0000
     11 C6        11.9296    1.5041   -1.0462 C.ar      1 RES1    0.0000
     12 H4        11.9503    2.4172   -1.2225 H         1 RES1    0.0000
     13 C7        10.8925    0.9752   -0.2998 C.ar      1 RES1    0.0000
     14 H5        10.2454    1.5290    0.0737 H         1 RES1    0.0000
     15 C8         9.1497   -0.4306    1.8484 C.2       1 RES1    0.0000
     16 C9         8.0013   -0.9886    2.5923 C.3       1 RES1    0.0000
     17 H6         8.1539   -1.9172    2.8289 H         1 RES1    0.0000
     18 H7         7.1821   -0.9224    2.0763 H         1 RES1    0.0000
     19 C10        7.9473   -0.0828    3.8590 C.3       1 RES1    0.0000
     20 C11        6.6360    0.6149    4.0759 C.3       1 RES1    0.0000
     21 H8         5.9373   -0.0435    4.2110 H         1 RES1    0.0000
     22 H9         6.4123    1.1356    3.2896 H         1 RES1    0.0000
     23 C12        8.4074   -0.8044    5.0919 C.3       1 RES1    0.0000
     24 H10        9.3000   -1.1522    4.9390 H         1 RES1    0.0000
     25 H11        7.8188   -1.5580    5.2553 H         1 RES1    0.0000
     26 C13        8.4258    0.0880    6.3304 C.3       1 RES1    0.0000
     27 H12        8.5887   -0.4503    7.1197 H         1 RES1    0.0000
     28 H13        9.1417    0.7391    6.2536 H         1 RES1    0.0000
     29 C14        6.7094    1.5373    5.2925 C.3       1 RES1    0.0000
     30 H14        7.3290    2.2619    5.1202 H         1 RES1    0.0000
     31 H15        5.8352    1.9203    5.4673 H         1 RES1    0.0000
     32 C15        6.3721    0.7640    7.5547 C.2       1 RES1    0.0000
     33 C16        6.2379   -0.0890    9.8294 C.3       1 RES1    0.0000
     34 C17        4.9403   -0.8654    9.6445 C.3       1 RES1    0.0000
     35 H16        5.1273   -1.7029    9.2145 H         1 RES1    0.0000
     36 H17        4.3356   -0.3540    9.1009 H         1 RES1    0.0000
     37 H18        4.5410   -1.0290   10.5015 H         1 RES1    0.0000
     38 C18        6.1484    1.2402   10.4769 C.3       1 RES1    0.0000
     39 H19        5.6883    1.1574   11.3154 H         1 RES1    0.0000
     40 H20        5.6665    1.8427    9.9056 H         1 RES1    0.0000
     41 H21        7.0318    1.5828   10.6305 H         1 RES1    0.0000
     42 C19        7.1821   -0.9865   10.6335 C.3       1 RES1    0.0000
     43 H22        7.4276   -1.7485   10.1022 H         1 RES1    0.0000
     44 H23        6.7404   -1.2816   11.4321 H         1 RES1    0.0000
     45 H24        7.9714   -0.4928   10.8670 H         1 RES1    0.0000
     46 O1         9.4033   -2.2226    0.4266 O.2       1 RES1    0.0000
     47 O2         8.9650    0.9555    3.5230 O.3       1 RES1    0.0000
     48 O3         5.3304    1.3447    7.6471 O.2       1 RES1    0.0000
     49 O4         6.9607    0.0114    8.5271 O.3       1 RES1    0.0000
     50 N3        -1.0177    5.8199    4.4528 N.2       2 RES2    0.0000
     51 N4         1.5236    5.9835    0.3830 N.am      2 RES2    0.0000
     52 C20       -4.2920    5.8592    8.4128 C.ar      2 RES2    0.0000
     53 H25       -4.9839    6.2516    8.8951 H         2 RES2    0.0000
     54 C21       -3.2583    6.6822    7.8630 C.ar      2 RES2    0.0000
     55 H26       -3.2801    7.6035    7.9920 H         2 RES2    0.0000
     56 C22       -2.2315    6.1139    7.1406 C.ar      2 RES2    0.0000
     57 H27       -1.5638    6.6522    6.7819 H         2 RES2    0.0000
     58 C23       -2.1902    4.7122    6.9474 C.ar      2 RES2    0.0000
     59 C24       -3.1815    3.9721    7.4948 C.ar      2 RES2    0.0000
     60 H28       -3.1677    3.0487    7.3870 H         2 RES2    0.0000
     61 C25       -4.2737    4.5808    8.2470 C.ar      2 RES2    0.0000
     62 H29       -4.9495    4.0507    8.6033 H         2 RES2    0.0000
     63 C26       -1.1163    4.0994    6.1522 C.2       2 RES2    0.0000
     64 C27       -0.5301    4.7526    4.9777 C.2       2 RES2    0.0000
     65 C28        0.6826    4.2122    4.2270 C.3       2 RES2    0.0000
     66 H30        1.4938    4.3023    4.7485 H         2 RES2    0.0000
     67 H31        0.5610    3.2837    3.9776 H         2 RES2    0.0000
     68 C29        0.6999    5.1108    3.0220 C.3       2 RES2    0.0000
     69 C30        2.0055    5.8251    2.7570 C.3       2 RES2    0.0000
     70 H32        2.2453    6.3478    3.5384 H         2 RES2    0.0000
     71 H33        2.7042    5.1667    2.6138 H         2 RES2    0.0000
     72 C31        1.9321    6.7319    1.5597 C.3       2 RES2    0.0000
     73 H34        1.2953    7.4431    1.7293 H         2 RES2    0.0000
     74 H35        2.8006    7.1346    1.4037 H         2 RES2    0.0000
     75 C32        0.2019    5.2878    0.5397 C.3       2 RES2    0.0000
     76 H36       -0.5025    5.9441    0.6512 H         2 RES2    0.0000
     77 H37        0.0092    4.7692   -0.2580 H         2 RES2    0.0000
     78 C33        0.2432    4.3820    1.7332 C.3       2 RES2    0.0000
     79 H38        0.8501    3.6480    1.5511 H         2 RES2    0.0000
     80 H39       -0.6413    4.0083    1.8767 H         2 RES2    0.0000
     81 C34        2.2717    5.9866   -0.7295 C.2       2 RES2    0.0000
     82 C35        2.4093    5.1336   -3.0224 C.3       2 RES2    0.0000
     83 C36        2.6158    6.4638   -3.6551 C.3       2 RES2    0.0000
     84 H40        1.8116    6.9835   -3.5814 H         2 RES2    0.0000
     85 H41        2.8350    6.3458   -4.5827 H         2 RES2    0.0000
     86 H42        3.3352    6.9213   -3.2128 H         2 RES2    0.0000
     87 C37        3.7161    4.4100   -2.8012 C.3       2 RES2    0.0000
     88 H43        4.3827    5.0352   -2.5063 H         2 RES2    0.0000
     89 H44        4.0006    4.0062   -3.6244 H         2 RES2    0.0000
     90 H45        3.5979    3.7298   -2.1347 H         2 RES2    0.0000
     91 C38        1.4284    4.2588   -3.7964 C.3       2 RES2    0.0000
     92 H46        1.4364    3.3696   -3.4309 H         2 RES2    0.0000
     93 H47        1.6854    4.2288   -4.7209 H         2 RES2    0.0000
     94 H48        0.5438    4.6253   -3.7196 H         2 RES2    0.0000
     95 O5         3.3536    6.5808   -0.8053 O.2       2 RES2    0.0000
     96 O6         1.7634    5.2474   -1.7339 O.3       2 RES2    0.0000
     97 O7        -0.3144    6.1543    3.2951 O.3       2 RES2    0.0000
     98 O8        -0.7802    2.9420    6.3958 O.2       2 RES2    0.0000
@<TRIPOS>BOND
     1    1   15 2
     2    2   26 1
     3    3    4 1
     4    4    5 ar
     5    5    6 1
     6    7    5 ar
     7    8    7 1
     8    9    7 ar
     9   10    9 1
    10   11    9 ar
    11   12   11 1
    12   13    4 ar
    13   14   13 1
    14   15    3 1
    15   16   15 1
    16   17   16 1
    17   18   16 1
    18   19   16 1
    19   20   19 1
    20   21   20 1
    21   22   20 1
    22   23   19 1
    23   24   23 1
    24   25   23 1
    25   26   23 1
    26   27   26 1
    27   28   26 1
    28   29    2 1
    29   30   29 1
    30   31   29 1
    31   32    2 1
    32   33   34 1
    33   34   35 1
    34   36   34 1
    35   37   34 1
    36   38   33 1
    37   39   38 1
    38   40   38 1
    39   41   38 1
    40   42   33 1
    41   43   42 1
    42   44   42 1
    43   45   42 1
    44   46    3 2
    45   47    1 1
    46   48   32 2
    47   49   32 1
    48   50   64 2
    49   51   72 1
    50   52   53 1
    51   54   52 ar
    52   55   54 1
    53   56   54 ar
    54   57   56 1
    55   58   56 ar
    56   59   58 ar
    57   60   59 1
    58   61   52 ar
    59   62   61 1
    60   63   58 1
    61   64   63 1
    62   65   64 1
    63   66   65 1
    64   67   65 1
    65   68   65 1
    66   69   68 1
    67   70   69 1
    68   71   69 1
    69   72   69 1
    70   73   72 1
    71   74   72 1
    72   75   51 1
    73   76   75 1
    74   77   75 1
    75   78   68 1
    76   79   78 1
    77   80   78 1
    78   81   51 1
    79   82   83 1
    80   83   84 1
    81   85   83 1
    82   86   83 1
    83   87   82 1
    84   88   87 1
    85   89   87 1
    86   90   87 1
    87   91   82 1
    88   92   91 1
    89   93   91 1
    90   94   91 1
    91   95   81 2
    92   96   81 1
    93   97   50 1
    94   98   63 2
    95   11   13 ar
    96   19   47 1
    97   20   29 1
    98   33   49 1
    99   59   61 ar
   100   68   97 1
   101   75   78 1
   102   82   96 1
@<TRIPOS>SUBSTRUCTURE
     1 RES1 1
     2 RES2 50

@<TRIPOS>CRYSIN
  11.4730   10.3520   30.7150  90.0000  90.0000  90.0000  29 1

