# MOL2 file generated by ConQuest
# Please check atom types

@<TRIPOS>MOLECULE
JUMFAA
    20    20     1
SMALL
NO_CHARGES
****
Generated from CSD

@<TRIPOS>ATOM
      1 N1         0.6030    6.6912    5.4840 N.pl3     1 RES1    0.0000
      2 N2         2.6870    4.5297    6.7702 N.am      1 RES1    0.0000
      3 O1        -0.5173    6.2505    5.3152 O.2       1 RES1    0.0000
      4 O2         0.8897    7.8478    5.7100 O.2       1 RES1    0.0000
      5 C1         2.9114    5.8987    6.3372 C.3       1 RES1    0.0000
      6 C2         1.4906    4.3223    5.9408 C.3       1 RES1    0.0000
      7 O3         3.9031    4.5566    8.6306 O.2       1 RES1    0.0000
      8 O4         1.5228    6.4268    3.1323 O.2       1 RES1    0.0000
      9 N3         2.1333    5.7309    3.9023 N.pl3     1 RES1    0.0000
     10 C3         1.7315    5.7148    5.3601 C.3       1 RES1    0.0000
     11 O5         3.0682    5.0119    3.6170 O.2       1 RES1    0.0000
     12 C4         3.0490    4.0083    7.9471 C.2       1 RES1    0.0000
     13 C5         2.3749    2.7305    8.3301 C.3       1 RES1    0.0000
     14 H1         0.6639    4.2593    6.4707 H         1 RES1    0.0000
     15 H2         2.6692    6.5744    7.0063 H         1 RES1    0.0000
     16 H3         3.7231    6.0078    5.9115 H         1 RES1    0.0000
     17 H4         1.5536    3.6369    5.2996 H         1 RES1    0.0000
     18 H5         2.8060    2.2940    9.0621 H         1 RES1    0.0000
     19 H6         2.2175    2.1961    7.5927 H         1 RES1    0.0000
     20 H7         1.3962    2.9445    8.6265 H         1 RES1    0.0000
@<TRIPOS>BOND
     1    1    3 2
     2    2    5 1
     3    4    1 2
     4    5   10 1
     5    6    2 1
     6    7   12 2
     7    8    9 2
     8    9   10 1
     9   10    1 1
    10   11    9 2
    11   12    2 1
    12   13   12 1
    13   14    6 1
    14   15    5 1
    15   16    5 1
    16   17    6 1
    17   18   13 1
    18   19   13 1
    19   20   13 1
    20    6   10 1
@<TRIPOS>SUBSTRUCTURE
     1 RES1 1

@<TRIPOS>CRYSIN
   6.8440    6.9940   16.9480  90.0000  90.0000  90.0000  19 1

