# MOL2 file generated by ConQuest
# Please check atom types

@<TRIPOS>MOLECULE
JUPGIK
    28    29     1
SMALL
NO_CHARGES
****
Generated from CSD

@<TRIPOS>ATOM
      1 O1        14.5184    4.5680    3.1460 O.2       1 RES1    0.0000
      2 N1        14.2284    5.1591    2.0732 N.3       1 RES1    0.0000
      3 C1        13.5700    4.5835    1.0038 C.2       1 RES1    0.0000
      4 C2        13.1796    3.1899    0.9937 C.ar      1 RES1    0.0000
      5 C3        11.9912    2.8160    0.3803 C.ar      1 RES1    0.0000
      6 H1        11.4238    3.5296    0.1346 H         1 RES1    0.0000
      7 C4        11.5971    1.4799    0.3812 C.ar      1 RES1    0.0000
      8 H2        10.7951    1.1923   -0.0337 H         1 RES1    0.0000
      9 C5        12.3837    0.5261    0.9718 C.ar      1 RES1    0.0000
     10 H3        12.1675   -0.4824    1.0013 H         1 RES1    0.0000
     11 C6        13.5798    0.8756    1.5675 C.ar      1 RES1    0.0000
     12 H4        14.2146    0.1311    1.8174 H         1 RES1    0.0000
     13 C7        13.9662    2.2026    1.5886 C.ar      1 RES1    0.0000
     14 H5        14.7620    2.5411    2.0194 H         1 RES1    0.0000
     15 C8        13.3620    5.5610    0.0648 C.2       1 RES1    0.0000
     16 C9        12.8008    5.4502   -1.2276 C.1       1 RES1    0.0000
     17 N2        12.3669    5.4740   -2.2920 N.1       1 RES1    0.0000
     18 C10       13.8788    6.8407    0.5410 C.2       1 RES1    0.0000
     19 O2        13.8219    7.9127   -0.0244 O.2       1 RES1    0.0000
     20 C11       14.5182    6.6020    1.8847 C.3       1 RES1    0.0000
     21 C12       13.8619    7.4141    2.9844 C.3       1 RES1    0.0000
     22 H6        14.0613    7.0082    3.7190 H         1 RES1    0.0000
     23 H7        12.7732    7.2084    3.0290 H         1 RES1    0.0000
     24 H8        14.0153    8.4098    2.8187 H         1 RES1    0.0000
     25 C13       16.0225    6.8207    1.7855 C.3       1 RES1    0.0000
     26 H9        16.5147    6.3528    2.3727 H         1 RES1    0.0000
     27 H10       16.1068    7.7399    1.5482 H         1 RES1    0.0000
     28 H11       16.4994    6.1708    0.9929 H         1 RES1    0.0000
@<TRIPOS>BOND
     1    1    2 1
     2    2    3 1
     3    3    4 1
     4    4    5 ar
     5    5    6 1
     6    7    5 ar
     7    8    7 1
     8    9    7 ar
     9   10    9 1
    10   11    9 ar
    11   12   11 1
    12   13    4 ar
    13   14   13 1
    14   15    3 2
    15   16   15 1
    16   17   16 3
    17   18   15 1
    18   19   18 2
    19   20    2 1
    20   21   20 1
    21   22   21 1
    22   23   21 1
    23   24   21 1
    24   25   20 1
    25   26   25 1
    26   27   25 1
    27   28   25 1
    28   11   13 ar
    29   18   20 1
@<TRIPOS>SUBSTRUCTURE
     1 RES1 1

@<TRIPOS>CRYSIN
  15.3340   18.2030    8.4140  90.0000  90.0000  90.0000  41 1

