# MOL2 file generated by ConQuest
# Please check atom types

@<TRIPOS>MOLECULE
JUPLAJ
    35    36     1
SMALL
NO_CHARGES
****
Generated from CSD

@<TRIPOS>ATOM
      1 C1         2.1551    9.4299    5.9185 C.ar      1 RES1    0.0000
      2 C2         2.9760   10.0027    4.9904 C.ar      1 RES1    0.0000
      3 H1         2.7155   10.7911    4.5721 H         1 RES1    0.0000
      4 C3         4.2124    9.4164    4.6564 C.ar      1 RES1    0.0000
      5 C4         4.6789    8.2458    5.1847 C.ar      1 RES1    0.0000
      6 C5         3.8139    7.6024    6.1336 C.ar      1 RES1    0.0000
      7 C6         4.1722    6.3727    6.7399 C.ar      1 RES1    0.0000
      8 H2         4.9947    5.9902    6.5347 H         1 RES1    0.0000
      9 C7         3.3458    5.7364    7.6138 C.ar      1 RES1    0.0000
     10 H3         3.6113    4.9262    7.9865 H         1 RES1    0.0000
     11 C8         2.0969    6.2809    7.9640 C.ar      1 RES1    0.0000
     12 C9         1.7330    7.4773    7.4160 C.ar      1 RES1    0.0000
     13 H4         0.9140    7.8486    7.6552 H         1 RES1    0.0000
     14 C10        2.5580    8.1780    6.4934 C.ar      1 RES1    0.0000
     15 C11        0.8362   10.0909    6.3071 C.3       1 RES1    0.0000
     16 H5         0.6591    9.8588    7.2431 H         1 RES1    0.0000
     17 C12       -0.3132    9.5501    5.4844 C.3       1 RES1    0.0000
     18 H6        -0.1534    9.7285    4.5551 H         1 RES1    0.0000
     19 H7        -1.1298    9.9764    5.7563 H         1 RES1    0.0000
     20 H8        -0.3866    8.6025    5.6214 H         1 RES1    0.0000
     21 C13        0.8847   11.6150    6.2182 C.3       1 RES1    0.0000
     22 H9         1.6427   11.9398    6.7089 H         1 RES1    0.0000
     23 H10        0.0806   11.9828    6.5921 H         1 RES1    0.0000
     24 H11        0.9603   11.8804    5.2985 H         1 RES1    0.0000
     25 C14        5.9796    7.5939    4.7853 C.3       1 RES1    0.0000
     26 H12        6.3309    8.0307    4.0060 H         1 RES1    0.0000
     27 H13        5.8260    6.6670    4.5901 H         1 RES1    0.0000
     28 H14        6.6096    7.6689    5.5056 H         1 RES1    0.0000
     29 C15        1.1942    5.5621    8.9332 C.3       1 RES1    0.0000
     30 H15        1.4885    5.7308    9.8313 H         1 RES1    0.0000
     31 H16        1.2237    4.6188    8.7586 H         1 RES1    0.0000
     32 H17        0.2939    5.8788    8.8277 H         1 RES1    0.0000
     33 N1         4.9955   10.1738    3.6596 N.pl3     1 RES1    0.0000
     34 O1         4.3981   10.6367    2.7004 O.2       1 RES1    0.0000
     35 O2         6.1872   10.3381    3.8517 O.2       1 RES1    0.0000
@<TRIPOS>BOND
     1    1    2 ar
     2    2    3 1
     3    4    2 ar
     4    5    4 ar
     5    6    5 ar
     6    7    6 ar
     7    8    7 1
     8    9    7 ar
     9   10    9 1
    10   11    9 ar
    11   12   11 ar
    12   13   12 1
    13   14    1 ar
    14   15    1 1
    15   16   15 1
    16   17   15 1
    17   18   17 1
    18   19   17 1
    19   20   17 1
    20   21   15 1
    21   22   21 1
    22   23   21 1
    23   24   21 1
    24   25    5 1
    25   26   25 1
    26   27   25 1
    27   28   25 1
    28   29   11 1
    29   30   29 1
    30   31   29 1
    31   32   29 1
    32   33    4 1
    33   34   33 2
    34   35   33 2
    35    6   14 ar
    36   12   14 ar
@<TRIPOS>SUBSTRUCTURE
     1 RES1 1

@<TRIPOS>CRYSIN
   9.7637   12.6508   11.6162  90.0000 113.8970  90.0000 231 1

