# MOL2 file generated by ConQuest
# Please check atom types

@<TRIPOS>MOLECULE
JUPSAO
    24    22     2
SMALL
NO_CHARGES
****
Generated from CSD

@<TRIPOS>ATOM
      1 C1        -2.3132    3.2842    2.6867 C.ar      1 RES1    0.0000
      2 N1        -1.7330    3.5468    3.8335 N.3       1 RES1    0.0000
      3 C2        -1.7454    2.3842    1.7268 C.ar      1 RES1    0.0000
      4 N2        -0.5214    1.7235    2.0110 N.pl3     1 RES1    0.0000
      5 O1        -0.1403    0.7876    1.2793 O.2       1 RES1    0.0000
      6 O2         0.1820    2.0519    2.9590 O.2       1 RES1    0.0000
      7 C3        -2.3836    2.0926    0.5138 C.ar      1 RES1    0.0000
      8 O3        -1.9285    1.2284   -0.3739 O.3       1 RES1    0.0000
      9 C4        -3.5666    2.7524    0.1914 C.ar      1 RES1    0.0000
     10 N3        -4.1695    2.5063   -1.1041 N.pl3     1 RES1    0.0000
     11 O4        -3.4780    2.7301   -2.0993 O.2       1 RES1    0.0000
     12 O5        -5.3009    2.1081   -1.1498 O.2       1 RES1    0.0000
     13 C5        -4.1744    3.6320    1.0791 C.ar      1 RES1    0.0000
     14 O6        -5.2983    4.2027    0.6669 O.3       1 RES1    0.0000
     15 C6        -3.5796    3.8762    2.3289 C.ar      1 RES1    0.0000
     16 N4        -4.2533    4.7326    3.2549 N.pl3     1 RES1    0.0000
     17 O7        -3.7708    4.9951    4.3576 O.2       1 RES1    0.0000
     18 O8        -5.3598    5.2141    2.9281 O.2       1 RES1    0.0000
     19 H1        -2.2695    4.0651    4.4371 H         1 RES1    0.0000
     20 H2        -0.9836    3.1728    3.9380 H         1 RES1    0.0000
     21 H3        -1.2443    0.7993    0.0118 H         1 RES1    0.0000
     22 H4        -5.6392    4.7355    1.2587 H         1 RES1    0.0000
     23 O9        -4.5628    3.4586   -1.7283 Du        2 SUP2    0.0000
     24 O10       -4.8389    1.4997   -1.3279 Du        2 SUP2    0.0000
@<TRIPOS>BOND
     1    1    2 1
     2    2   19 1
     3    3    1 ar
     4    4    3 1
     5    5    4 2
     6    6    4 2
     7    7    3 ar
     8    8    7 1
     9    9    7 ar
    10   10    9 1
    11   11   10 2
    12   12   10 2
    13   13    9 ar
    14   14   13 1
    15   15    1 ar
    16   16   15 1
    17   17   16 2
    18   18   16 2
    19   20    2 1
    20   21    8 1
    21   22   14 1
    22   13   15 ar
@<TRIPOS>SUBSTRUCTURE
     1 RES1 1
     2 SUP2 23

@<TRIPOS>CRYSIN
   6.3902    9.6880   14.8240  90.0000  96.7400  90.0000  14 1

