# MOL2 file generated by ConQuest
# Please check atom types

@<TRIPOS>MOLECULE
JUPWOG
    18    21     1
SMALL
NO_CHARGES
****
Generated from CSD

@<TRIPOS>ATOM
      1 N1         6.0653    5.1367    3.6690 N.3       1 RES1    0.0000
      2 O1         5.9971    4.0948    2.6218 O.3       1 RES1    0.0000
      3 C1         6.8599    4.6661    1.6526 C.3       1 RES1    0.0000
      4 C2         6.4249    6.1221    1.5410 C.3       1 RES1    0.0000
      5 C3         5.3265    6.3556    0.4997 C.3       1 RES1    0.0000
      6 C4         4.0264    6.2218    1.2679 C.3       1 RES1    0.0000
      7 C5         4.3003    6.7910    2.6683 C.3       1 RES1    0.0000
      8 C6         5.7887    6.3840    2.9217 C.3       1 RES1    0.0000
      9 C7         3.3146    6.2205    3.7061 C.3       1 RES1    0.0000
     10 C8         3.6570    4.8127    4.1362 C.3       1 RES1    0.0000
     11 C9         5.0688    4.7644    4.6777 C.3       1 RES1    0.0000
     12 C10        5.4396    3.4381    5.3157 C.3       1 RES1    0.0000
     13 O2         5.2017    8.9117    1.8908 O.3       1 RES1    0.0000
     14 C11        4.1876    8.3283    2.7078 C.3       1 RES1    0.0000
     15 O3         4.4982    8.7668    4.0281 O.3       1 RES1    0.0000
     16 C12        5.1318   10.0342    3.9142 C.3       1 RES1    0.0000
     17 C13        5.7017   10.0529    2.5417 C.3       1 RES1    0.0000
     18 C14        2.8336    8.8719    2.3011 C.3       1 RES1    0.0000
@<TRIPOS>BOND
     1    1    2 1
     2    2    3 1
     3    3    4 1
     4    4    5 1
     5    5    6 1
     6    6    7 1
     7    7    8 1
     8    8    1 1
     9    9    7 1
    10   10    9 1
    11   11    1 1
    12   12   11 1
    13   13   14 1
    14   14    7 1
    15   15   14 1
    16   16   15 1
    17   17   13 1
    18   18   14 1
    19    4    8 1
    20   10   11 1
    21   16   17 1
@<TRIPOS>SUBSTRUCTURE
     1 RES1 1

@<TRIPOS>CRYSIN
   6.6420    9.0320   12.3930  71.7300  75.5600  69.5900   2 1

