# MOL2 file generated by ConQuest
# Please check atom types

@<TRIPOS>MOLECULE
JUQBEE
   124   130     2
SMALL
NO_CHARGES
****
Generated from CSD

@<TRIPOS>ATOM
      1 C1        -6.7574    4.4145   16.9240 C.3       1 RES1    0.0000
      2 C2        -6.6865    4.0566   15.4060 C.3       1 RES1    0.0000
      3 C3        -5.3760    3.4776   14.9024 C.2       1 RES1    0.0000
      4 C4        -5.1986    2.0552   15.3600 C.ar      1 RES1    0.0000
      5 C5        -6.1567    1.0889   14.9990 C.ar      1 RES1    0.0000
      6 C6        -5.9329   -0.2616   15.4049 C.ar      1 RES1    0.0000
      7 C7        -4.9150   -0.6182   16.2421 C.ar      1 RES1    0.0000
      8 C8        -4.0241    0.3465   16.6135 C.ar      1 RES1    0.0000
      9 C9        -4.1556    1.6753   16.1765 C.ar      1 RES1    0.0000
     10 C10       -4.4976    4.0124   13.9720 C.2       1 RES1    0.0000
     11 N1        -3.3274    3.2879   13.5914 N.am      1 RES1    0.0000
     12 C11       -2.1544    3.3507   14.2768 C.2       1 RES1    0.0000
     13 O1        -1.9070    4.0736   15.2301 O.2       1 RES1    0.0000
     14 O2        -1.2470    2.5089   13.7627 O.3       1 RES1    0.0000
     15 C12       -1.9091    1.6893   12.7830 C.3       1 RES1    0.0000
     16 C13       -3.1503    2.4936   12.3690 C.3       1 RES1    0.0000
     17 C14       -4.3641    1.6077   12.0206 C.3       1 RES1    0.0000
     18 C15       -4.0327    0.6005   10.9752 C.ar      1 RES1    0.0000
     19 C16       -3.7628    0.9610    9.6643 C.ar      1 RES1    0.0000
     20 C17       -3.4857   -0.0215    8.7064 C.ar      1 RES1    0.0000
     21 C18       -3.4777   -1.3745    9.0399 C.ar      1 RES1    0.0000
     22 C19       -3.7579   -1.7259   10.3784 C.ar      1 RES1    0.0000
     23 C20       -4.0182   -0.7686   11.3007 C.ar      1 RES1    0.0000
     24 C21       -4.7366    5.3877   13.4362 C.3       1 RES1    0.0000
     25 C22       -4.2063    5.5003   11.9711 C.ar      1 RES1    0.0000
     26 C23       -5.0998    5.1662   11.0086 C.ar      1 RES1    0.0000
     27 C24       -4.7426    5.2088    9.7747 C.ar      1 RES1    0.0000
     28 C25       -3.5398    5.7067    9.3768 C.ar      1 RES1    0.0000
     29 C26       -2.5639    6.0805   10.3439 C.ar      1 RES1    0.0000
     30 C27       -2.9403    5.9447   11.6767 C.ar      1 RES1    0.0000
     31 C28       -4.0381    6.3576   14.4056 C.3       1 RES1    0.0000
     32 N2        -4.3310    7.7665   14.1112 N.pl3     1 RES1    0.0000
     33 O3        -5.5988    8.0551   14.0652 O.2       1 RES1    0.0000
     34 O4        -3.5586    8.6987   13.9479 O.2       1 RES1    0.0000
     35 H1        -6.8992    4.8698   14.8679 H         1 RES1    0.0000
     36 H2        -7.3810    3.3780   15.2359 H         1 RES1    0.0000
     37 H3        -2.1636    0.8595   13.2085 H         1 RES1    0.0000
     38 H4        -1.3202    1.4976   12.0401 H         1 RES1    0.0000
     39 H5        -2.9376    3.0904   11.6250 H         1 RES1    0.0000
     40 H6        -4.6004    1.1051   12.8152 H         1 RES1    0.0000
     41 H7        -5.1287    2.1397   11.7250 H         1 RES1    0.0000
     42 H8        -3.7709    1.8602    9.4136 H         1 RES1    0.0000
     43 H9        -3.2941    0.2304    7.8209 H         1 RES1    0.0000
     44 H10       -3.3022   -2.0437    8.3924 H         1 RES1    0.0000
     45 H11       -3.7669   -2.6312   10.6257 H         1 RES1    0.0000
     46 H12       -4.1949   -1.0215   12.1770 H         1 RES1    0.0000
     47 H13       -5.7294    5.5563   13.4017 H         1 RES1    0.0000
     48 H14       -3.0567    6.3242   14.3688 H         1 RES1    0.0000
     49 H15       -4.3264    6.1028   15.3106 H         1 RES1    0.0000
     50 H16       -3.5317    2.3059   16.4560 H         1 RES1    0.0000
     51 H17       -3.3377    0.1113   17.1919 H         1 RES1    0.0000
     52 H18       -4.8104   -1.5152   16.5307 H         1 RES1    0.0000
     53 H19       -6.4896   -0.9300   15.1186 H         1 RES1    0.0000
     54 H20       -6.8926    1.3192   14.4895 H         1 RES1    0.0000
     55 H21       -5.9765    4.9158   11.2512 H         1 RES1    0.0000
     56 H22       -5.3772    4.8692    9.1675 H         1 RES1    0.0000
     57 H23       -3.3981    5.7738    8.4856 H         1 RES1    0.0000
     58 H24       -1.7254    6.3925   10.1162 H         1 RES1    0.0000
     59 H25       -2.3711    6.1584   12.3736 H         1 RES1    0.0000
     60 H26       -7.1593    5.3029   16.9930 H         1 RES1    0.0000
     61 H27       -7.3063    3.7572   17.4070 H         1 RES1    0.0000
     62 H28       -5.7531    4.4587   17.2678 H         1 RES1    0.0000
     63 C29       12.1178   11.0894    4.5044 C.3       2 RES2    0.0000
     64 C30       12.2090   11.5163    6.0109 C.3       2 RES2    0.0000
     65 C31       10.9061   12.1512    6.4628 C.2       2 RES2    0.0000
     66 C32       10.6955   13.5335    5.9603 C.ar      2 RES2    0.0000
     67 C33        9.6807   13.8141    5.0426 C.ar      2 RES2    0.0000
     68 C34        9.4278   15.1156    4.6021 C.ar      2 RES2    0.0000
     69 C35       10.2274   16.1339    5.0863 C.ar      2 RES2    0.0000
     70 C36       11.2306   15.8868    5.9994 C.ar      2 RES2    0.0000
     71 C37       11.4681   14.5788    6.4053 C.ar      2 RES2    0.0000
     72 C38       10.0148   11.5466    7.2574 C.2       2 RES2    0.0000
     73 N3         8.8278   12.2668    7.6323 N.am      2 RES2    0.0000
     74 C39        7.6197   11.9934    7.0447 C.2       2 RES2    0.0000
     75 O5         7.3556   11.1594    6.2247 O.2       2 RES2    0.0000
     76 O6         6.6949   12.8787    7.5323 O.3       2 RES2    0.0000
     77 C40        7.2947   13.6417    8.6213 C.3       2 RES2    0.0000
     78 C41        8.7820   13.5236    8.3993 C.3       2 RES2    0.0000
     79 C42        9.5929   13.4935    9.6689 C.3       2 RES2    0.0000
     80 C43        9.3981   14.7514   10.5118 C.ar      2 RES2    0.0000
     81 C44        9.5461   16.0337    9.9748 C.ar      2 RES2    0.0000
     82 C45        9.3609   17.1555   10.7682 C.ar      2 RES2    0.0000
     83 C46        9.0100   17.0162   12.0815 C.ar      2 RES2    0.0000
     84 C47        8.8519   15.7526   12.6139 C.ar      2 RES2    0.0000
     85 C48        9.0383   14.6207   11.8366 C.ar      2 RES2    0.0000
     86 C49       10.1714   10.1361    7.8082 C.3       2 RES2    0.0000
     87 C50        9.7085   10.0360    9.2537 C.ar      2 RES2    0.0000
     88 C51        8.3850    9.7870    9.6183 C.ar      2 RES2    0.0000
     89 C52        8.0369    9.7097   10.9626 C.ar      2 RES2    0.0000
     90 C53        8.9839    9.9108   11.9550 C.ar      2 RES2    0.0000
     91 C54       10.3103   10.1334   11.5928 C.ar      2 RES2    0.0000
     92 C55       10.6518   10.2061   10.2554 C.ar      2 RES2    0.0000
     93 C56        9.5805    9.0556    6.8802 C.3       2 RES2    0.0000
     94 N4        10.1937    7.7077    7.2965 N.pl3     2 RES2    0.0000
     95 O7        11.4021    7.6611    7.5012 O.2       2 RES2    0.0000
     96 O8         9.4020    6.7956    7.3575 O.2       2 RES2    0.0000
     97 H29       12.9936   10.8822    4.1560 H         2 RES2    0.0000
     98 H30       11.6811   11.7805    3.9662 H         2 RES2    0.0000
     99 H31       11.5537   10.3000    4.4320 H         2 RES2    0.0000
    100 H32       12.9446   12.1792    6.0983 H         2 RES2    0.0000
    101 H33       12.3920   10.7360    6.5605 H         2 RES2    0.0000
    102 H34        9.1495   13.1031    4.7068 H         2 RES2    0.0000
    103 H35        8.7185   15.2805    4.0007 H         2 RES2    0.0000
    104 H36       10.0788   16.9993    4.7735 H         2 RES2    0.0000
    105 H37       11.7436   16.5821    6.3259 H         2 RES2    0.0000
    106 H38       12.1690   14.3773    6.9964 H         2 RES2    0.0000
    107 H39        6.9949   14.5737    8.5994 H         2 RES2    0.0000
    108 H40        7.0231   13.2369    9.4538 H         2 RES2    0.0000
    109 H41        9.0589   14.2936    7.8220 H         2 RES2    0.0000
    110 H42       10.5281   13.3953    9.4768 H         2 RES2    0.0000
    111 H43        9.3217   12.7234   10.1818 H         2 RES2    0.0000
    112 H44        9.7919   16.1175    9.0698 H         2 RES2    0.0000
    113 H45        9.4858   18.0105   10.3876 H         2 RES2    0.0000
    114 H46        8.8373   17.7676   12.6047 H         2 RES2    0.0000
    115 H47        8.6526   15.6425   13.5213 H         2 RES2    0.0000
    116 H48        8.9217   13.7610   12.2333 H         2 RES2    0.0000
    117 H49       11.1471    9.9255    7.7887 H         2 RES2    0.0000
    118 H50        7.7460    9.6625    8.9743 H         2 RES2    0.0000
    119 H51        7.1607    9.5257   11.2064 H         2 RES2    0.0000
    120 H52        8.7372    9.8381   12.8324 H         2 RES2    0.0000
    121 H53       10.9532   10.2513   12.2609 H         2 RES2    0.0000
    122 H54       11.5356   10.3907   10.0127 H         2 RES2    0.0000
    123 H55        9.8504    9.2287    5.9545 H         2 RES2    0.0000
    124 H56        8.5975    9.0463    6.9676 H         2 RES2    0.0000
@<TRIPOS>BOND
     1    1    2 1
     2    2    3 1
     3    3    4 1
     4    4    5 ar
     5    5    6 ar
     6    6    7 ar
     7    7    8 ar
     8    8    9 ar
     9    9    4 ar
    10   10    3 2
    11   11   10 1
    12   12   11 1
    13   13   12 2
    14   14   12 1
    15   15   14 1
    16   16   11 1
    17   17   16 1
    18   18   17 1
    19   19   18 ar
    20   20   19 ar
    21   21   20 ar
    22   22   21 ar
    23   23   18 ar
    24   24   10 1
    25   25   24 1
    26   26   25 ar
    27   27   26 ar
    28   28   27 ar
    29   29   28 ar
    30   30   25 ar
    31   31   24 1
    32   32   31 1
    33   33   32 2
    34   34   32 2
    35   35    2 1
    36   36    2 1
    37   37   15 1
    38   38   15 1
    39   39   16 1
    40   40   17 1
    41   41   17 1
    42   42   19 1
    43   43   20 1
    44   44   21 1
    45   45   22 1
    46   46   23 1
    47   47   24 1
    48   48   31 1
    49   49   31 1
    50   50    9 1
    51   51    8 1
    52   52    7 1
    53   53    6 1
    54   54    5 1
    55   55   26 1
    56   56   27 1
    57   57   28 1
    58   58   29 1
    59   59   30 1
    60   60    1 1
    61   61    1 1
    62   62    1 1
    63   63   64 1
    64   64   65 1
    65   65   66 1
    66   66   67 ar
    67   67   68 ar
    68   68   69 ar
    69   69   70 ar
    70   70   71 ar
    71   71   66 ar
    72   72   65 2
    73   73   72 1
    74   74   73 1
    75   75   74 2
    76   76   74 1
    77   77   76 1
    78   78   73 1
    79   79   78 1
    80   80   79 1
    81   81   80 ar
    82   82   81 ar
    83   83   82 ar
    84   84   83 ar
    85   85   80 ar
    86   86   72 1
    87   87   86 1
    88   88   87 ar
    89   89   88 ar
    90   90   89 ar
    91   91   90 ar
    92   92   87 ar
    93   93   86 1
    94   94   93 1
    95   95   94 2
    96   96   94 2
    97   97   63 1
    98   98   63 1
    99   99   63 1
   100  100   64 1
   101  101   64 1
   102  102   67 1
   103  103   68 1
   104  104   69 1
   105  105   70 1
   106  106   71 1
   107  107   77 1
   108  108   77 1
   109  109   78 1
   110  110   79 1
   111  111   79 1
   112  112   81 1
   113  113   82 1
   114  114   83 1
   115  115   84 1
   116  116   85 1
   117  117   86 1
   118  118   88 1
   119  119   89 1
   120  120   90 1
   121  121   91 1
   122  122   92 1
   123  123   93 1
   124  124   93 1
   125   15   16 1
   126   22   23 ar
   127   29   30 ar
   128   77   78 1
   129   84   85 ar
   130   91   92 ar
@<TRIPOS>SUBSTRUCTURE
     1 RES1 1
     2 RES2 63

@<TRIPOS>CRYSIN
   9.8976   10.7690   12.3560 108.0220  98.1310  99.5010   1 1

