# MOL2 file generated by ConQuest
# Please check atom types

@<TRIPOS>MOLECULE
JUQGIL
    37    40     1
SMALL
NO_CHARGES
****
Generated from CSD

@<TRIPOS>ATOM
      1 O1         0.5441    1.6697   13.0646 O.3       1 RES1    0.0000
      2 N1         1.8800    1.8538   13.5230 N.2       1 RES1    0.0000
      3 C1         2.2500    0.8063   14.1397 C.2       1 RES1    0.0000
      4 C2         3.6533    0.5334   14.6186 C.3       1 RES1    0.0000
      5 C3         3.9830   -0.8790   14.1721 C.2       1 RES1    0.0000
      6 H1         4.9108   -1.1459   14.3494 H         1 RES1    0.0000
      7 C4         3.1657   -1.7582   13.5630 C.2       1 RES1    0.0000
      8 C5         1.7684   -1.4057   13.3026 C.2       1 RES1    0.0000
      9 C6         0.9908   -1.9064   12.3158 C.2       1 RES1    0.0000
     10 H2         1.3723   -2.6737   11.7701 H         1 RES1    0.0000
     11 C7        -0.3262   -1.3857   12.0474 C.2       1 RES1    0.0000
     12 H3        -0.8544   -1.8451   11.3846 H         1 RES1    0.0000
     13 C8        -0.8078   -0.2981   12.6431 C.2       1 RES1    0.0000
     14 H4        -1.7434    0.1199   12.4339 H         1 RES1    0.0000
     15 C9        -0.0009    0.4419   13.6608 C.3       1 RES1    0.0000
     16 H5        -0.5869    0.7947   14.3706 H         1 RES1    0.0000
     17 C10        1.2299   -0.2967   14.1667 C.3       1 RES1    0.0000
     18 H6         1.0875   -0.6101   15.0797 H         1 RES1    0.0000
     19 C11        3.6810   -3.0870   13.1165 C.ar      1 RES1    0.0000
     20 C12        4.9125   -3.2076   12.4907 C.ar      1 RES1    0.0000
     21 H7         5.4321   -2.4297   12.3265 H         1 RES1    0.0000
     22 C13        5.3967   -4.4456   12.1005 C.ar      1 RES1    0.0000
     23 H8         6.2434   -4.5103   11.6749 H         1 RES1    0.0000
     24 C14        4.6536   -5.5850   12.3274 C.ar      1 RES1    0.0000
     25 H9         4.9911   -6.4328   12.0619 H         1 RES1    0.0000
     26 C15        3.4203   -5.4939   12.9396 C.ar      1 RES1    0.0000
     27 H10        2.9051   -6.2769   13.0946 H         1 RES1    0.0000
     28 C16        2.9353   -4.2471   13.3286 C.ar      1 RES1    0.0000
     29 H11        2.0834   -4.1856   13.7447 H         1 RES1    0.0000
     30 C17        3.6939    0.6046   16.1577 C.3       1 RES1    0.0000
     31 H12        4.5863    0.3491   16.4722 H         1 RES1    0.0000
     32 H13        3.0276   -0.0095   16.5311 H         1 RES1    0.0000
     33 H14        3.4945    1.5194   16.4480 H         1 RES1    0.0000
     34 C18        4.6528    1.5276   14.0397 C.3       1 RES1    0.0000
     35 H15        5.5547    1.3029   14.3510 H         1 RES1    0.0000
     36 H16        4.4206    2.4329   14.3343 H         1 RES1    0.0000
     37 H17        4.6260    1.4854   13.0613 H         1 RES1    0.0000
@<TRIPOS>BOND
     1    1    2 1
     2    2    3 2
     3    3    4 1
     4    4    5 1
     5    5    6 1
     6    7    5 2
     7    8    7 1
     8    9    8 2
     9   10    9 1
    10   11    9 1
    11   12   11 1
    12   13   11 2
    13   14   13 1
    14   15    1 1
    15   16   15 1
    16   17    3 1
    17   18   17 1
    18   19    7 1
    19   20   19 ar
    20   21   20 1
    21   22   20 ar
    22   23   22 1
    23   24   22 ar
    24   25   24 1
    25   26   24 ar
    26   27   26 1
    27   28   19 ar
    28   29   28 1
    29   30    4 1
    30   31   30 1
    31   32   30 1
    32   33   30 1
    33   34    4 1
    34   35   34 1
    35   36   34 1
    36   37   34 1
    37    8   17 1
    38   13   15 1
    39   15   17 1
    40   26   28 ar
@<TRIPOS>SUBSTRUCTURE
     1 RES1 1

@<TRIPOS>CRYSIN
   8.6306   10.6100   15.1190  90.0000  90.0000  90.0000  19 1

