# MOL2 file generated by ConQuest
# Please check atom types

@<TRIPOS>MOLECULE
JUTDIN
    96    84     3
SMALL
NO_CHARGES
****
Generated from CSD

@<TRIPOS>ATOM
      1 O1        -7.0963   -5.1054   -8.7570 O.2       1 RES1    0.0000
      2 O2        -6.6614   -3.1069   -9.4424 O.2       1 RES1    0.0000
      3 N1        -3.2842   -3.3448   -4.0911 N.2       1 RES1    0.0000
      4 N2        -2.8055    0.2254   -4.0496 N.2       1 RES1    0.0000
      5 C1        -3.1966    1.4371   -4.7804 C.3       1 RES1    0.0000
      6 H1        -2.5728    1.5873   -5.5082 H         1 RES1    0.0000
      7 H2        -3.1489    2.2000   -4.1833 H         1 RES1    0.0000
      8 C2        -4.5918    1.3296   -5.3351 C.3       1 RES1    0.0000
      9 H3        -4.7997    2.1269   -5.8474 H         1 RES1    0.0000
     10 H4        -5.2274    1.2638   -4.6073 H         1 RES1    0.0000
     11 C3        -4.7144    0.1158   -6.2237 C.3       1 RES1    0.0000
     12 H5        -5.6486   -0.0438   -6.4269 H         1 RES1    0.0000
     13 H6        -4.2460    0.2755   -7.0575 H         1 RES1    0.0000
     14 N3        -2.1414   -1.9380   -2.6668 N.3       1 RES1    0.0000
     15 H7        -1.8601   -1.1417   -2.5068 H         1 RES1    0.0000
     16 N4        -6.5210   -4.0148   -8.6528 N.pl3     1 RES1    0.0000
     17 C4        -2.9095   -2.1384   -3.7522 C.2       1 RES1    0.0000
     18 C5        -3.2844   -0.8975   -4.4792 C.2       1 RES1    0.0000
     19 N5        -4.1430   -1.0770   -5.5533 N.pl3     1 RES1    0.0000
     20 C6        -4.5026   -2.3544   -5.9905 C.ar      1 RES1    0.0000
     21 C7        -5.2816   -2.5496   -7.1376 C.ar      1 RES1    0.0000
     22 H8        -5.5467   -1.8274   -7.6600 H         1 RES1    0.0000
     23 C8        -5.6496   -3.8395   -7.4762 C.ar      1 RES1    0.0000
     24 C9        -5.2517   -4.9551   -6.7643 C.ar      1 RES1    0.0000
     25 H9        -5.5133   -5.8109   -7.0204 H         1 RES1    0.0000
     26 C10       -4.4536   -4.7526   -5.6584 C.ar      1 RES1    0.0000
     27 H10       -4.1623   -5.4926   -5.1744 H         1 RES1    0.0000
     28 C11       -4.0635   -3.4763   -5.2362 C.ar      1 RES1    0.0000
     29 C12       -1.7620   -3.0056   -1.7489 C.3       1 RES1    0.0000
     30 H11       -0.8944   -2.8000   -1.3673 H         1 RES1    0.0000
     31 H12       -1.6795   -3.8343   -2.2453 H         1 RES1    0.0000
     32 C13       -2.7508   -3.2039   -0.6360 C.2       1 RES1    0.0000
     33 O3        -2.7129   -2.2438    0.3675 O.3       1 RES1    0.0000
     34 C14       -3.6923   -2.5840    1.3161 C.2       1 RES1    0.0000
     35 H13       -3.8945   -2.1019    2.0846 H         1 RES1    0.0000
     36 C15       -4.3026   -3.7445    0.9186 C.2       1 RES1    0.0000
     37 H14       -4.9844   -4.1964    1.3550 H         1 RES1    0.0000
     38 C16       -3.6844   -4.1056   -0.2615 C.2       1 RES1    0.0000
     39 H15       -3.8862   -4.8768   -0.7420 H         1 RES1    0.0000
     40 H16       -0.9774   -2.7238   -1.2525 Du        3 SUP3    0.0000
     41 H17       -1.5173   -3.7873   -2.2665 Du        3 SUP3    0.0000
     42 C17       -2.8065   -3.3813   -0.7950 Du        3 SUP3    0.0000
     43 O4        -3.0952   -2.5569    0.2491 Du        3 SUP3    0.0000
     44 C18       -3.6531   -4.3936   -0.9133 Du        3 SUP3    0.0000
     45 H18       -3.6976   -5.0052   -1.6129 Du        3 SUP3    0.0000
     46 C19       -4.4443   -4.3519    0.2067 Du        3 SUP3    0.0000
     47 H19       -5.1013   -4.9676    0.4346 Du        3 SUP3    0.0000
     48 C20       -4.1172   -3.2457    0.9186 Du        3 SUP3    0.0000
     49 H20       -4.5029   -2.9879    1.7330 Du        3 SUP3    0.0000
     50 O5       -11.1823   -1.1563   -9.4424 O.2       2 RES2    0.0000
     51 O6       -11.0901   -3.3041   -9.3785 O.2       2 RES2    0.0000
     52 O7        -7.5348   -1.0290   -0.2457 O.3       2 RES2    0.0000
     53 N6        -7.4754   -1.7815   -4.4114 N.2       2 RES2    0.0000
     54 N7        -6.4261   -2.7677   -2.6213 N.3       2 RES2    0.0000
     55 H21       -6.2017   -3.4888   -2.2100 H         2 RES2    0.0000
     56 N8       -10.7681   -2.1958   -8.9478 N.pl3     2 RES2    0.0000
     57 C21       -7.1681   -2.8668   -3.7346 C.2       2 RES2    0.0000
     58 C22       -7.5961   -4.2350   -4.1056 C.2       2 RES2    0.0000
     59 N9        -7.1737   -5.1920   -3.3565 N.2       2 RES2    0.0000
     60 C23       -7.3663   -6.5539   -3.8229 C.3       2 RES2    0.0000
     61 H22       -7.2683   -7.1801   -3.0880 H         2 RES2    0.0000
     62 H23       -6.7129   -6.7731   -4.5048 H         2 RES2    0.0000
     63 C24       -8.7877   -6.6249   -4.4006 C.3       2 RES2    0.0000
     64 H24       -9.4309   -6.3598   -3.7240 H         2 RES2    0.0000
     65 H25       -8.9880   -7.5349   -4.6691 H         2 RES2    0.0000
     66 C25       -8.8989   -5.6752   -5.6337 C.3       2 RES2    0.0000
     67 H26       -8.3730   -6.0227   -6.3703 H         2 RES2    0.0000
     68 H27       -9.8230   -5.6084   -5.9216 H         2 RES2    0.0000
     69 N10       -8.3944   -4.3415   -5.2341 N.3       2 RES2    0.0000
     70 C26       -8.7587   -3.1987   -5.9686 C.ar      2 RES2    0.0000
     71 C27       -9.5602   -3.2811   -7.1070 C.ar      2 RES2    0.0000
     72 H28       -9.8588   -4.1046   -7.4197 H         2 RES2    0.0000
     73 C28       -9.9039   -2.1029   -7.7642 C.ar      2 RES2    0.0000
     74 C29       -9.4710   -0.8547   -7.3596 C.ar      2 RES2    0.0000
     75 H29       -9.7182   -0.0866   -7.8225 H         2 RES2    0.0000
     76 C30       -8.6569   -0.7879   -6.2396 C.ar      2 RES2    0.0000
     77 H30       -8.3477    0.0407   -5.9534 H         2 RES2    0.0000
     78 C31       -8.2869   -1.9370   -5.5321 C.ar      2 RES2    0.0000
     79 C32       -5.9846   -1.4872   -2.0775 C.3       2 RES2    0.0000
     80 H31       -5.5631   -0.9747   -2.7859 H         2 RES2    0.0000
     81 H32       -5.3162   -1.6500   -1.3938 H         2 RES2    0.0000
     82 C33       -7.0860   -0.6825   -1.4910 C.2       2 RES2    0.0000
     83 C34       -7.7901    0.3611   -1.9433 C.2       2 RES2    0.0000
     84 H33       -7.6859    0.7817   -2.7665 H         2 RES2    0.0000
     85 C35       -8.7294    0.7076   -0.9275 C.2       2 RES2    0.0000
     86 H34       -9.3476    1.4016   -0.9575 H         2 RES2    0.0000
     87 C36       -8.5513   -0.1451    0.0601 C.2       2 RES2    0.0000
     88 H35       -9.0407   -0.1503    0.8515 H         2 RES2    0.0000
     89 C37       -8.0814   -6.8294   -5.1002 Du        3 SUP3    0.0000
     90 H36       -7.2008   -6.8461   -5.5082 Du        3 SUP3    0.0000
     91 H37       -8.5238   -7.6748   -5.2733 Du        3 SUP3    0.0000
     92 C38       -7.9838   -6.5644   -3.5897 Du        3 SUP3    0.0000
     93 H38       -7.5172   -7.2980   -3.1569 Du        3 SUP3    0.0000
     94 H39       -8.8684   -6.4955   -3.2064 Du        3 SUP3    0.0000
     95 H40       -8.9137   -5.7243   -6.6018 Du        3 SUP3    0.0000
     96 H41       -9.8121   -5.7691   -5.3210 Du        3 SUP3    0.0000
@<TRIPOS>BOND
     1    1   16 2
     2    2   16 2
     3    3   17 2
     4    4    5 1
     5    5    6 1
     6    7    5 1
     7    8    5 1
     8    9    8 1
     9   10    8 1
    10   11    8 1
    11   12   11 1
    12   13   11 1
    13   14   15 1
    14   16   23 1
    15   17   14 1
    16   18    4 2
    17   19   11 1
    18   20   19 1
    19   21   20 ar
    20   22   21 1
    21   23   21 ar
    22   24   23 ar
    23   25   24 1
    24   26   24 ar
    25   27   26 1
    26   28    3 1
    27   29   14 1
    28   30   29 1
    29   31   29 1
    30   32   29 1
    31   33   32 1
    32   34   33 1
    33   35   34 1
    34   36   34 2
    35   37   36 1
    36   38   32 2
    37   39   38 1
    38   50   56 2
    39   51   56 2
    40   52   82 1
    41   53   57 2
    42   54   55 1
    43   56   73 1
    44   57   54 1
    45   58   57 1
    46   59   58 2
    47   60   59 1
    48   61   60 1
    49   62   60 1
    50   63   60 1
    51   64   63 1
    52   65   63 1
    53   66   63 1
    54   67   66 1
    55   68   66 1
    56   69   58 1
    57   70   69 1
    58   71   70 ar
    59   72   71 1
    60   73   71 ar
    61   74   73 ar
    62   75   74 1
    63   76   74 ar
    64   77   76 1
    65   78   53 1
    66   79   54 1
    67   80   79 1
    68   81   79 1
    69   82   79 1
    70   83   82 2
    71   84   83 1
    72   85   83 1
    73   86   85 1
    74   87   52 1
    75   88   87 1
    76   17   18 1
    77   18   19 1
    78   20   28 ar
    79   26   28 ar
    80   36   38 1
    81   66   69 1
    82   70   78 ar
    83   76   78 ar
    84   85   87 2
@<TRIPOS>SUBSTRUCTURE
     1 RES1 1
     2 RES2 50
     3 SUP3 40

@<TRIPOS>CRYSIN
   8.4267   10.4362   17.9490  90.0000 100.1890  90.0000   4 1

