# MOL2 file generated by ConQuest
# Please check atom types

@<TRIPOS>MOLECULE
JUTGEK
    12    11     1
SMALL
NO_CHARGES
****
Generated from CSD

@<TRIPOS>ATOM
      1 N1         4.9428    4.0341    0.7440 N.pl3     1 RES1    0.0000
      2 N2         3.2544    1.4130    0.4871 N.pl3     1 RES1    0.0000
      3 O1         4.8776    3.6283    1.8817 O.2       1 RES1    0.0000
      4 O2         5.8555    4.7126    0.3336 O.2       1 RES1    0.0000
      5 O3         2.4268    0.6094    0.8708 O.2       1 RES1    0.0000
      6 O4         4.4053    1.1176    0.2269 O.2       1 RES1    0.0000
      7 C1         3.8451    3.7214   -0.2224 C.3       1 RES1    0.0000
      8 C2         2.8020    2.8260    0.3459 C.3       1 RES1    0.0000
      9 H1         3.4806    4.6208   -0.4193 H         1 RES1    0.0000
     10 H2         4.2749    3.3582   -1.0142 H         1 RES1    0.0000
     11 H3         2.0077    2.8140   -0.2280 H         1 RES1    0.0000
     12 H4         2.5200    3.1094    1.2122 H         1 RES1    0.0000
@<TRIPOS>BOND
     1    1    3 2
     2    2    5 2
     3    4    1 2
     4    6    2 2
     5    7    1 1
     6    8    2 1
     7    9    7 1
     8   10    7 1
     9   11    8 1
    10   12    8 1
    11    7    8 1
@<TRIPOS>SUBSTRUCTURE
     1 RES1 1

@<TRIPOS>CRYSIN
  13.3050   13.3050   11.1210  90.0000  90.0000  90.0000  88 1

