# MOL2 file generated by ConQuest
# Please check atom types

@<TRIPOS>MOLECULE
JUTXUR
    40    40     2
SMALL
NO_CHARGES
****
Generated from CSD

@<TRIPOS>ATOM
      1 N1         1.6062    6.7814    1.5768 N.am      1 RES1    0.0000
      2 O1         1.6789    8.1508    1.7751 O.3       1 RES1    0.0000
      3 C1         0.5805    6.0680    1.9908 C.2       1 RES1    0.0000
      4 O2        -0.4619    6.5154    2.4705 O.2       1 RES1    0.0000
      5 C2         0.9334    4.6433    1.7714 C.3       1 RES1    0.0000
      6 C3         2.2568    4.6455    1.1206 C.3       1 RES1    0.0000
      7 C4         2.7771    6.0756    1.0537 C.3       1 RES1    0.0000
      8 C5         3.0632    6.5360   -0.3409 C.3       1 RES1    0.0000
      9 C6         3.9479    6.2917    1.9586 C.3       1 RES1    0.0000
     10 H1         1.0492    8.5069    1.0760 H         1 RES1    0.0000
     11 H2         0.2718    4.2176    1.2210 H         1 RES1    0.0000
     12 H3         0.9829    4.1785    2.6094 H         1 RES1    0.0000
     13 H4         2.8723    4.0852    1.5991 H         1 RES1    0.0000
     14 H5         2.1694    4.3045    0.2268 H         1 RES1    0.0000
     15 H6         3.3856    7.4395   -0.3025 H         1 RES1    0.0000
     16 H7         3.7314    5.9746   -0.7413 H         1 RES1    0.0000
     17 H8         2.2615    6.5045   -0.8677 H         1 RES1    0.0000
     18 H9         4.2294    7.2071    1.8916 H         1 RES1    0.0000
     19 H10        3.6851    6.1028    2.8622 H         1 RES1    0.0000
     20 H11        4.6735    5.7151    1.7094 H         1 RES1    0.0000
     21 N2        -1.8175    9.3159    1.2359 N.am      2 RES2    0.0000
     22 O3        -1.2027    9.0662    2.4507 O.3       2 RES2    0.0000
     23 C7        -1.1277    9.4061    0.1116 C.2       2 RES2    0.0000
     24 O4         0.0533    9.0868   -0.0421 O.2       2 RES2    0.0000
     25 C8        -2.0569    9.9349   -0.9359 C.3       2 RES2    0.0000
     26 C9        -3.3964   10.0359   -0.2516 C.3       2 RES2    0.0000
     27 C10       -3.1499    9.9338    1.2520 C.3       2 RES2    0.0000
     28 C11       -4.1328    9.0162    1.9313 C.3       2 RES2    0.0000
     29 C12       -3.0891   11.2684    1.9524 C.3       2 RES2    0.0000
     30 H12       -0.9777    8.1356    2.3825 H         2 RES2    0.0000
     31 H13       -2.0968    9.3387   -1.6871 H         2 RES2    0.0000
     32 H14       -1.7649   10.7982   -1.2384 H         2 RES2    0.0000
     33 H15       -3.8189   10.8731   -0.4562 H         2 RES2    0.0000
     34 H16       -3.9715    9.3225   -0.5405 H         2 RES2    0.0000
     35 H17       -3.9321    8.9706    2.8697 H         2 RES2    0.0000
     36 H18       -5.0270    9.3431    1.8111 H         2 RES2    0.0000
     37 H19       -4.0568    8.1410    1.5458 H         2 RES2    0.0000
     38 H20       -2.9144   11.1370    2.8870 H         2 RES2    0.0000
     39 H21       -2.3857   11.7961    1.5669 H         2 RES2    0.0000
     40 H22       -3.9261   11.7245    1.8445 H         2 RES2    0.0000
@<TRIPOS>BOND
     1    1    2 1
     2    2   10 1
     3    3    1 1
     4    4    3 2
     5    5    3 1
     6    6    5 1
     7    7    1 1
     8    8    7 1
     9    9    7 1
    10   11    5 1
    11   12    5 1
    12   13    6 1
    13   14    6 1
    14   15    8 1
    15   16    8 1
    16   17    8 1
    17   18    9 1
    18   19    9 1
    19   20    9 1
    20   21   22 1
    21   22   30 1
    22   23   21 1
    23   24   23 2
    24   25   23 1
    25   26   25 1
    26   27   21 1
    27   28   27 1
    28   29   27 1
    29   31   25 1
    30   32   25 1
    31   33   26 1
    32   34   26 1
    33   35   28 1
    34   36   28 1
    35   37   28 1
    36   38   29 1
    37   39   29 1
    38   40   29 1
    39    6    7 1
    40   26   27 1
@<TRIPOS>SUBSTRUCTURE
     1 RES1 1
     2 RES2 21

@<TRIPOS>CRYSIN
  10.7080   10.8590   12.6980  90.0000 102.5200  90.0000 231 1

