# MOL2 file generated by ConQuest
# Please check atom types

@<TRIPOS>MOLECULE
JUVMUI
    30    31     1
SMALL
NO_CHARGES
****
Generated from CSD

@<TRIPOS>ATOM
      1 C1         2.1863    3.0659    0.0574 C.3       1 RES1    0.0000
      2 C2         2.0068    4.4586   -0.5309 C.3       1 RES1    0.0000
      3 N1         1.3289    5.3765    0.5176 N.pl3     1 RES1    0.0000
      4 C3         5.7650    2.2862   -0.1035 C.3       1 RES1    0.0000
      5 C4         4.3524    1.7809    0.2388 C.3       1 RES1    0.0000
      6 N2         1.1965    4.5779   -1.6522 N.pl3     1 RES1    0.0000
      7 N3         6.7958    2.2165    1.1315 N.pl3     1 RES1    0.0000
      8 N4         6.4077    1.4632   -1.1571 N.pl3     1 RES1    0.0000
      9 C5         3.3657    4.8712   -0.9194 C.3       1 RES1    0.0000
     10 O1         0.3904    4.8183    1.0741 O.2       1 RES1    0.0000
     11 C6         5.6419    3.7291   -0.5330 C.3       1 RES1    0.0000
     12 C7         3.5210    3.0110    0.4499 C.3       1 RES1    0.0000
     13 C8         4.3013    4.2561   -0.1384 C.3       1 RES1    0.0000
     14 O2         7.4739    1.8175   -1.6327 O.2       1 RES1    0.0000
     15 O3         1.3237    3.8734   -2.5930 O.2       1 RES1    0.0000
     16 O4         6.5048    2.9582    1.9986 O.2       1 RES1    0.0000
     17 O5         0.2905    5.4084   -1.7475 O.2       1 RES1    0.0000
     18 O6         5.9901    0.2906   -1.2524 O.2       1 RES1    0.0000
     19 O7         7.5476    1.3968    1.1233 O.2       1 RES1    0.0000
     20 O8         1.8118    6.3134    0.8404 O.2       1 RES1    0.0000
     21 H1         2.0096    2.3987   -0.6109 H         1 RES1    0.0000
     22 H2         1.5981    2.9243    0.8025 H         1 RES1    0.0000
     23 H3         4.3646    1.2430    1.0341 H         1 RES1    0.0000
     24 H4         3.9996    1.2545   -0.4827 H         1 RES1    0.0000
     25 H5         3.4458    5.8229   -0.8240 H         1 RES1    0.0000
     26 H6         3.5171    4.6510   -1.8418 H         1 RES1    0.0000
     27 H7         5.7361    3.7819   -1.4872 H         1 RES1    0.0000
     28 H8         6.3377    4.2568   -0.1343 H         1 RES1    0.0000
     29 H9         3.5025    3.1465    1.4000 H         1 RES1    0.0000
     30 H10        4.4637    4.8434    0.6037 H         1 RES1    0.0000
@<TRIPOS>BOND
     1    1    2 1
     2    2    3 1
     3    3   10 2
     4    4    5 1
     5    5   12 1
     6    6    2 1
     7    7    4 1
     8    8    4 1
     9    9    2 1
    10   11    4 1
    11   12    1 1
    12   13    9 1
    13   14    8 2
    14   15    6 2
    15   16    7 2
    16   17    6 2
    17   18    8 2
    18   19    7 2
    19   20    3 2
    20   21    1 1
    21   22    1 1
    22   23    5 1
    23   24    5 1
    24   25    9 1
    25   26    9 1
    26   27   11 1
    27   28   11 1
    28   29   12 1
    29   30   13 1
    30   11   13 1
    31   12   13 1
@<TRIPOS>SUBSTRUCTURE
     1 RES1 1

@<TRIPOS>CRYSIN
   8.4790    6.7740   10.2720  90.0000  93.8200  90.0000   7 1

