# MOL2 file generated by ConQuest
# Please check atom types

@<TRIPOS>MOLECULE
JUVMOC
    46    24     2
SMALL
NO_CHARGES
****
Generated from CSD

@<TRIPOS>ATOM
      1 C1         2.4407   14.8679    3.0903 C.3       1 RES1    0.0000
      2 C2         1.5013   13.9053    2.4739 C.3       1 RES1    0.0000
      3 C3         0.5367   14.7936    1.6131 C.3       1 RES1    0.0000
      4 C4         1.0178   16.1645    1.8958 C.3       1 RES1    0.0000
      5 C5         0.6423   16.4917    3.4154 C.3       1 RES1    0.0000
      6 C6         1.6723   15.6832    4.1678 C.3       1 RES1    0.0000
      7 C7         2.4902   15.9671    2.0456 C.3       1 RES1    0.0000
      8 N1         2.2160   12.8954    1.5919 N.pl3     1 RES1    0.0000
      9 N2         0.8364   12.9968    3.5217 N.pl3     1 RES1    0.0000
     10 O1         3.3909   13.0373    1.4080 O.2       1 RES1    0.0000
     11 O2         1.4837   12.0558    1.1116 O.2       1 RES1    0.0000
     12 O3         1.5355   12.2004    4.0913 O.2       1 RES1    0.0000
     13 O4        -0.3516   13.1130    3.7225 O.2       1 RES1    0.0000
     14 C8        -0.5143    8.1079    3.0903 Du        2 SUP2    0.0000
     15 C9        -1.4537    7.1453    2.4739 Du        2 SUP2    0.0000
     16 C10       -2.4183    8.0336    1.6131 Du        2 SUP2    0.0000
     17 C11       -1.9372    9.4045    1.8958 Du        2 SUP2    0.0000
     18 C12       -2.3127    9.7317    3.4154 Du        2 SUP2    0.0000
     19 C13       -1.2827    8.9232    4.1678 Du        2 SUP2    0.0000
     20 C14       -0.4648    9.2071    2.0456 Du        2 SUP2    0.0000
     21 N3        -0.7390    6.1354    1.5919 Du        2 SUP2    0.0000
     22 N4        -2.1186    6.2368    3.5217 Du        2 SUP2    0.0000
     23 O5         0.4359    6.2773    1.4080 Du        2 SUP2    0.0000
     24 O6        -1.4713    5.2958    1.1116 Du        2 SUP2    0.0000
     25 O7        -1.4195    5.4404    4.0913 Du        2 SUP2    0.0000
     26 O8        -3.3066    6.3530    3.7225 Du        2 SUP2    0.0000
     27 H1         3.2886   14.5083    3.3634 H         1 RES1    0.0000
     28 H2        -0.3766   14.6827    1.8873 H         1 RES1    0.0000
     29 H3         0.6135   14.5867    0.6790 H         1 RES1    0.0000
     30 H4         0.7572   16.8324    1.2571 H         1 RES1    0.0000
     31 H5        -0.2488   16.2024    3.6248 H         1 RES1    0.0000
     32 H6         0.7231   17.4300    3.6046 H         1 RES1    0.0000
     33 H7         2.2725   16.2632    4.6418 H         1 RES1    0.0000
     34 H8         1.2483   15.0964    4.7980 H         1 RES1    0.0000
     35 H9         2.9007   15.6710    1.2295 H         1 RES1    0.0000
     36 H10        2.9342   16.7540    2.3666 H         1 RES1    0.0000
     37 H11        0.3336    7.7483    3.3634 Du        2 SUP2    0.0000
     38 H12       -3.3316    7.9227    1.8873 Du        2 SUP2    0.0000
     39 H13       -2.3415    7.8267    0.6790 Du        2 SUP2    0.0000
     40 H14       -2.1978   10.0724    1.2571 Du        2 SUP2    0.0000
     41 H15       -3.2038    9.4424    3.6248 Du        2 SUP2    0.0000
     42 H16       -2.2319   10.6700    3.6046 Du        2 SUP2    0.0000
     43 H17       -0.6825    9.5032    4.6418 Du        2 SUP2    0.0000
     44 H18       -1.7067    8.3364    4.7980 Du        2 SUP2    0.0000
     45 H19       -0.0543    8.9110    1.2295 Du        2 SUP2    0.0000
     46 H20       -0.0208    9.9940    2.3666 Du        2 SUP2    0.0000
@<TRIPOS>BOND
     1    1    2 1
     2    2    3 1
     3    3    4 1
     4    4    5 1
     5    5    6 1
     6    6    1 1
     7    7    1 1
     8    8    2 1
     9    9    2 1
    10   10    8 2
    11   11    8 2
    12   12    9 2
    13   13    9 2
    14   27    1 1
    15   28    3 1
    16   29    3 1
    17   30    4 1
    18   31    5 1
    19   32    5 1
    20   33    6 1
    21   34    6 1
    22   35    7 1
    23   36    7 1
    24    4    7 1
@<TRIPOS>SUBSTRUCTURE
     1 RES1 1
     2 SUP2 14

@<TRIPOS>CRYSIN
   5.9100   13.5200   10.6360  90.0000  92.3900  90.0000  14 1

