# MOL2 file generated by ConQuest
# Please check atom types

@<TRIPOS>MOLECULE
JUVMIW
    27    28     1
SMALL
NO_CHARGES
****
Generated from CSD

@<TRIPOS>ATOM
      1 C1         3.2161    5.4827    5.9653 C.3       1 RES1    0.0000
      2 C2         2.7920    5.2633    4.5283 C.3       1 RES1    0.0000
      3 N1         2.4393    6.5559    3.8104 N.pl3     1 RES1    0.0000
      4 O1         3.2092    6.9882    2.9815 O.2       1 RES1    0.0000
      5 O2         1.4076    7.0930    4.1390 O.2       1 RES1    0.0000
      6 N2         1.4780    4.4929    4.4020 N.pl3     1 RES1    0.0000
      7 O3         1.1149    4.2319    3.2726 O.2       1 RES1    0.0000
      8 O4         0.8978    4.1869    5.4263 O.2       1 RES1    0.0000
      9 C3         3.9250    4.4640    3.9110 C.3       1 RES1    0.0000
     10 C4         4.8889    4.2383    5.0930 C.3       1 RES1    0.0000
     11 C5         5.5584    5.5683    5.4356 C.3       1 RES1    0.0000
     12 N3         6.2870    6.1900    4.2629 N.pl3     1 RES1    0.0000
     13 O5         6.1197    7.3498    3.9928 O.2       1 RES1    0.0000
     14 O6         7.0243    5.4324    3.6467 O.2       1 RES1    0.0000
     15 N4         6.7025    5.3768    6.4329 N.pl3     1 RES1    0.0000
     16 O7         7.3342    6.3890    6.7124 O.2       1 RES1    0.0000
     17 O8         6.9093    4.2821    6.8889 O.2       1 RES1    0.0000
     18 C6         4.4297    6.4179    6.0179 C.3       1 RES1    0.0000
     19 C7         3.9010    4.1570    6.2716 C.3       1 RES1    0.0000
     20 H1         2.4916    5.6196    6.4540 H         1 RES1    0.0000
     21 H2         4.2692    4.8557    3.1966 H         1 RES1    0.0000
     22 H3         3.5250    3.6508    3.7648 H         1 RES1    0.0000
     23 H4         5.5403    3.5053    4.9633 H         1 RES1    0.0000
     24 H5         4.3645    7.1037    5.6963 H         1 RES1    0.0000
     25 H6         4.6048    6.7453    6.9076 H         1 RES1    0.0000
     26 H7         4.3404    4.2650    7.0304 H         1 RES1    0.0000
     27 H8         3.4718    3.4796    6.0693 H         1 RES1    0.0000
@<TRIPOS>BOND
     1    1    2 1
     2    2    3 1
     3    3    4 2
     4    5    3 2
     5    6    2 1
     6    7    6 2
     7    8    6 2
     8    9    2 1
     9   10    9 1
    10   11   10 1
    11   12   11 1
    12   13   12 2
    13   14   12 2
    14   15   11 1
    15   16   15 2
    16   17   15 2
    17   18    1 1
    18   19    1 1
    19   20    1 1
    20   21    9 1
    21   22    9 1
    22   23   10 1
    23   24   18 1
    24   25   18 1
    25   26   19 1
    26   27   19 1
    27   10   19 1
    28   11   18 1
@<TRIPOS>SUBSTRUCTURE
     1 RES1 1

@<TRIPOS>CRYSIN
   8.5830   10.7000   11.6920  90.0000  90.0000  90.0000  19 1

