# MOL2 file generated by ConQuest
# Please check atom types

@<TRIPOS>MOLECULE
JUVPAR
    80    83     3
SMALL
NO_CHARGES
****
Generated from CSD

@<TRIPOS>ATOM
      1 C1        14.4983   14.3590    3.9585 C.2       1 RES1    0.0000
      2 C2        13.6633   14.1533    2.6986 C.3       1 RES1    0.0000
      3 C3        13.5221   12.6973    2.2886 C.3       1 RES1    0.0000
      4 C4        14.1097   15.0697    1.5649 C.3       1 RES1    0.0000
      5 C5        12.4915   14.6694    3.5636 C.3       1 RES1    0.0000
      6 C6        12.4850   16.7496    4.4685 C.2       1 RES1    0.0000
      7 C7        11.9937   18.1492    4.5535 C.3       1 RES1    0.0000
      8 C8        13.2184   16.0127    5.3172 C.2       1 RES1    0.0000
      9 C9        13.7648   16.4139    6.5896 C.2       1 RES1    0.0000
     10 C10       14.9441   15.6795    8.5208 C.3       1 RES1    0.0000
     11 C11       15.9151   14.5971    8.8770 C.ar      1 RES1    0.0000
     12 C12       16.6613   13.9369    7.9158 C.ar      1 RES1    0.0000
     13 C13       17.5715   12.9638    8.2671 C.ar      1 RES1    0.0000
     14 C14       17.7423   12.6780    9.5970 C.ar      1 RES1    0.0000
     15 C15       17.0343   13.3172   10.5694 C.ar      1 RES1    0.0000
     16 C16       16.1124   14.2565   10.1907 C.ar      1 RES1    0.0000
     17 N1        13.3750   14.7049    4.7497 N.am      1 RES1    0.0000
     18 N2        18.7401   11.6623    9.9657 N.pl3     1 RES1    0.0000
     19 O1        15.6526   14.2842    4.2673 O.2       1 RES1    0.0000
     20 O2        12.0964   16.0591    3.3598 O.3       1 RES1    0.0000
     21 O3        13.6927   17.5234    7.0596 O.2       1 RES1    0.0000
     22 O4        14.3763   15.3868    7.2209 O.3       1 RES1    0.0000
     23 O5        19.2587   11.0054    9.0908 O.2       1 RES1    0.0000
     24 O6        18.9991   11.4960   11.1369 O.2       1 RES1    0.0000
     25 C17        8.5078   21.9626    2.2561 C.2       2 RES2    0.0000
     26 C18        9.9657   21.5881    2.0424 C.3       2 RES2    0.0000
     27 C19       10.7046   22.4863    1.0624 C.3       2 RES2    0.0000
     28 C20       10.1665   20.1158    1.7199 C.3       2 RES2    0.0000
     29 C21       10.1391   21.9920    3.5248 C.3       2 RES2    0.0000
     30 C22        8.9952   21.0173    5.2222 C.2       2 RES2    0.0000
     31 C23        8.9226   20.1258    6.4084 C.3       2 RES2    0.0000
     32 C24        8.1468   21.9279    4.7235 C.2       2 RES2    0.0000
     33 C25        6.8553   22.3246    5.2435 C.2       2 RES2    0.0000
     34 C26        5.0000   23.7490    4.8360 C.3       2 RES2    0.0000
     35 C27        4.3823   24.3255    3.5998 C.ar      2 RES2    0.0000
     36 C28        4.8301   23.9719    2.3424 C.ar      2 RES2    0.0000
     37 C29        4.2040   24.4710    1.2187 C.ar      2 RES2    0.0000
     38 C30        3.1581   25.3271    1.3612 C.ar      2 RES2    0.0000
     39 C31        2.7044   25.7010    2.5986 C.ar      2 RES2    0.0000
     40 C32        3.3195   25.1894    3.7111 C.ar      2 RES2    0.0000
     41 N3         8.7561   22.4917    3.5498 N.am      2 RES2    0.0000
     42 N4         2.4907   25.8438    0.1600 N.pl3     2 RES2    0.0000
     43 O7         7.4872   21.8673    1.6399 O.2       2 RES2    0.0000
     44 O8        10.1536   20.9174    4.4998 O.3       2 RES2    0.0000
     45 O9         6.2977   21.8282    6.1947 O.2       2 RES2    0.0000
     46 O10        6.3411   23.3160    4.5123 O.3       2 RES2    0.0000
     47 O11        2.8477   25.4528   -0.9175 O.2       2 RES2    0.0000
     48 O12        1.6175   26.6676    0.3087 O.2       2 RES2    0.0000
     49 H1        14.2830   12.4374    1.7649 H         1 RES1    0.0000
     50 H2        12.7230   12.5900    1.7674 H         1 RES1    0.0000
     51 H3        13.4698   12.1453    3.0723 H         1 RES1    0.0000
     52 H4        13.5649   14.9092    0.7912 H         1 RES1    0.0000
     53 H5        15.0285   14.8907    1.3537 H         1 RES1    0.0000
     54 H6        14.0172   15.9869    1.8374 H         1 RES1    0.0000
     55 H7        11.6698   14.1798    3.4861 H         1 RES1    0.0000
     56 H8        12.3016   18.5463    5.3722 H         1 RES1    0.0000
     57 H9        11.0344   18.1535    4.5373 H         1 RES1    0.0000
     58 H10       12.3292   18.6535    3.8085 H         1 RES1    0.0000
     59 H11       15.3986   16.5245    8.4895 H         1 RES1    0.0000
     60 H12       14.2469   15.7152    9.1795 H         1 RES1    0.0000
     61 H13       16.5434   14.1600    6.9896 H         1 RES1    0.0000
     62 H14       18.0759   12.5000    7.5946 H         1 RES1    0.0000
     63 H15       17.1815   13.1173   11.4969 H         1 RES1    0.0000
     64 H16       15.5889   14.6893   10.8694 H         1 RES1    0.0000
     65 H17       10.5566   23.4050    1.2949 H         2 RES2    0.0000
     66 H18       10.3786   22.3240    0.1725 H         2 RES2    0.0000
     67 H19       11.6435   22.2927    1.0987 H         2 RES2    0.0000
     68 H20       10.6581   19.5785    2.3511 Du        3 SUP3    0.0000
     69 H21       11.1012   19.9035    1.7699 H         2 RES2    0.0000
     70 H22        9.8457   19.9362    0.8337 H         2 RES2    0.0000
     71 H23       10.9306   22.4959    3.7298 H         2 RES2    0.0000
     72 H24        8.0850   20.2581    6.8571 H         2 RES2    0.0000
     73 H25        9.6441   20.3301    7.0084 H         2 RES2    0.0000
     74 H26        8.9922   19.2109    6.1247 H         2 RES2    0.0000
     75 H27        4.4795   23.0018    5.1410 H         2 RES2    0.0000
     76 H28        5.0321   24.4182    5.5222 H         2 RES2    0.0000
     77 H29        5.5801   23.3797    2.2499 H         2 RES2    0.0000
     78 H30        4.5075   24.2207    0.3437 H         2 RES2    0.0000
     79 H31        1.9686   26.3122    2.6849 H         2 RES2    0.0000
     80 H32        3.0021   25.4404    4.5810 H         2 RES2    0.0000
@<TRIPOS>BOND
     1    1    2 1
     2    2    3 1
     3    3   49 1
     4    4    2 1
     5    5    2 1
     6    6    7 1
     7    7   56 1
     8    8    6 2
     9    9    8 1
    10   10   11 1
    11   11   12 ar
    12   12   13 ar
    13   13   14 ar
    14   14   15 ar
    15   15   16 ar
    16   16   11 ar
    17   17    1 1
    18   18   14 1
    19   19    1 2
    20   20    5 1
    21   21    9 2
    22   22    9 1
    23   23   18 2
    24   24   18 2
    25   25   26 1
    26   26   27 1
    27   27   65 1
    28   28   26 1
    29   29   26 1
    30   30   31 1
    31   31   72 1
    32   32   30 2
    33   33   32 1
    34   34   35 1
    35   35   36 ar
    36   36   37 ar
    37   37   38 ar
    38   38   39 ar
    39   39   40 ar
    40   40   35 ar
    41   41   25 1
    42   42   38 1
    43   43   25 2
    44   44   29 1
    45   45   33 2
    46   46   33 1
    47   47   42 2
    48   48   42 2
    49   50    3 1
    50   51    3 1
    51   52    4 1
    52   53    4 1
    53   54    4 1
    54   55    5 1
    55   57    7 1
    56   58    7 1
    57   59   10 1
    58   60   10 1
    59   61   12 1
    60   62   13 1
    61   63   15 1
    62   64   16 1
    63   66   27 1
    64   67   27 1
    65   69   28 1
    66   70   28 1
    67   71   29 1
    68   73   31 1
    69   74   31 1
    70   75   34 1
    71   76   34 1
    72   77   36 1
    73   78   37 1
    74   79   39 1
    75   80   40 1
    76    5   17 1
    77    6   20 1
    78    8   17 1
    79   10   22 1
    80   29   41 1
    81   30   44 1
    82   32   41 1
    83   34   46 1
@<TRIPOS>SUBSTRUCTURE
     1 RES1 1
     2 RES2 25
     3 SUP3 68

@<TRIPOS>CRYSIN
   9.7570   14.1000   14.3710  64.1100  69.3300  72.1000   2 1

