# MOL2 file generated by ConQuest
# Please check atom types

@<TRIPOS>MOLECULE
JUWQUN
    55    58     1
SMALL
NO_CHARGES
****
Generated from CSD

@<TRIPOS>ATOM
      1 O1         3.5321    0.2628    1.6852 O.3       1 RES1    0.0000
      2 O2         5.9081   -2.4999   -0.8934 O.2       1 RES1    0.0000
      3 O3         4.6483    3.5839   -0.7428 O.2       1 RES1    0.0000
      4 O4         8.3226   -0.8192   -7.2713 O.2       1 RES1    0.0000
      5 O5         9.7637   -2.0561   -6.2349 O.2       1 RES1    0.0000
      6 O6        -0.9784    7.1242    2.7744 O.2       1 RES1    0.0000
      7 O7         0.1294    8.3387    1.3282 O.2       1 RES1    0.0000
      8 N1         6.0796   -0.2611   -1.4126 N.am      1 RES1    0.0000
      9 N2         4.9544   -0.9833    0.4817 N.am      1 RES1    0.0000
     10 N3         3.3126    2.9263    0.9980 N.am      1 RES1    0.0000
     11 H1         3.1724    2.2649    1.5614 H         1 RES1    0.0000
     12 N4         8.7811   -1.3127   -6.2454 N.pl3     1 RES1    0.0000
     13 N5        -0.0642    7.2920    1.9635 N.pl3     1 RES1    0.0000
     14 C1         6.0163    1.1461   -0.9289 C.3       1 RES1    0.0000
     15 H2         5.8853    1.7391   -1.7235 H         1 RES1    0.0000
     16 C2         5.6931   -1.3276   -0.6324 C.2       1 RES1    0.0000
     17 C3         4.2834   -1.9939    1.3349 C.3       1 RES1    0.0000
     18 H3         4.9616   -2.5310    1.8368 H         1 RES1    0.0000
     19 C4         3.5270   -1.0467    2.2974 C.3       1 RES1    0.0000
     20 H4         2.5967   -1.3624    2.4298 H         1 RES1    0.0000
     21 H5         3.9790   -1.0181    3.1784 H         1 RES1    0.0000
     22 C5         4.4542    0.2847    0.6890 C.2       1 RES1    0.0000
     23 C6         4.8615    1.3550   -0.0029 C.2       1 RES1    0.0000
     24 C7         4.2859    2.7000    0.0393 C.2       1 RES1    0.0000
     25 C8         3.3350   -2.9051    0.5931 C.3       1 RES1    0.0000
     26 H6         2.8215   -3.4334    1.2533 H         1 RES1    0.0000
     27 H7         3.8663   -3.5403    0.0499 H         1 RES1    0.0000
     28 C9         2.3585   -2.1866   -0.3196 C.3       1 RES1    0.0000
     29 H8         1.7115   -2.8305   -0.6785 H         1 RES1    0.0000
     30 H9         2.8464   -1.7689   -1.0585 H         1 RES1    0.0000
     31 H10        1.8830   -1.4967    0.1891 H         1 RES1    0.0000
     32 C10        7.3451    1.5327   -0.2668 C.3       1 RES1    0.0000
     33 H11        7.2920    2.4564    0.0566 H         1 RES1    0.0000
     34 H12        8.0697    1.4569   -0.9203 H         1 RES1    0.0000
     35 H13        7.5199    0.9311    0.4875 H         1 RES1    0.0000
     36 C11        6.8154   -0.5122   -2.6151 C.ar      1 RES1    0.0000
     37 C12        6.4828    0.1939   -3.7686 C.ar      1 RES1    0.0000
     38 H14        5.7881    0.8416   -3.7379 H         1 RES1    0.0000
     39 C13        7.1505   -0.0360   -4.9557 C.ar      1 RES1    0.0000
     40 H15        6.9482    0.4624   -5.7387 H         1 RES1    0.0000
     41 C14        8.1194   -1.0119   -4.9643 C.ar      1 RES1    0.0000
     42 C15        8.5002   -1.6956   -3.8415 C.ar      1 RES1    0.0000
     43 H16        9.2046   -2.3321   -3.8789 H         1 RES1    0.0000
     44 C16        7.8495   -1.4470   -2.6621 C.ar      1 RES1    0.0000
     45 H17        8.1032   -1.9119   -1.8732 H         1 RES1    0.0000
     46 C17        2.5302    4.0550    1.1909 C.ar      1 RES1    0.0000
     47 C18        2.5604    5.1775    0.3512 C.ar      1 RES1    0.0000
     48 H18        3.1477    5.2073   -0.3935 H         1 RES1    0.0000
     49 C19        1.7152    6.2478    0.6267 C.ar      1 RES1    0.0000
     50 H19        1.7267    7.0198    0.0739 H         1 RES1    0.0000
     51 C20        0.8531    6.1795    1.7187 C.ar      1 RES1    0.0000
     52 C21        0.8043    5.0781    2.5316 C.ar      1 RES1    0.0000
     53 H20        0.1921    5.0358    3.2571 H         1 RES1    0.0000
     54 C22        1.6677    4.0326    2.2705 C.ar      1 RES1    0.0000
     55 H21        1.6678    3.2781    2.8483 H         1 RES1    0.0000
@<TRIPOS>BOND
     1    1   19 1
     2    2   16 2
     3    3   24 2
     4    4   12 2
     5    5   12 2
     6    6   13 2
     7    7   13 2
     8    8   14 1
     9    9   16 1
    10   10   11 1
    11   12   41 1
    12   13   51 1
    13   14   15 1
    14   16    8 1
    15   17    9 1
    16   18   17 1
    17   19   17 1
    18   20   19 1
    19   21   19 1
    20   22    1 1
    21   23   14 1
    22   24   10 1
    23   25   17 1
    24   26   25 1
    25   27   25 1
    26   28   25 1
    27   29   28 1
    28   30   28 1
    29   31   28 1
    30   32   14 1
    31   33   32 1
    32   34   32 1
    33   35   32 1
    34   36    8 1
    35   37   36 ar
    36   38   37 1
    37   39   37 ar
    38   40   39 1
    39   41   39 ar
    40   42   41 ar
    41   43   42 1
    42   44   36 ar
    43   45   44 1
    44   46   10 1
    45   47   46 ar
    46   48   47 1
    47   49   47 ar
    48   50   49 1
    49   51   49 ar
    50   52   51 ar
    51   53   52 1
    52   54   46 ar
    53   55   54 1
    54    9   22 1
    55   22   23 2
    56   23   24 1
    57   42   44 ar
    58   52   54 ar
@<TRIPOS>SUBSTRUCTURE
     1 RES1 1

@<TRIPOS>CRYSIN
  17.9580   12.4310    9.6530  90.0000  96.2000  90.0000  14 1

