# MOL2 file generated by ConQuest
# Please check atom types

@<TRIPOS>MOLECULE
JUWWON
    14    15     1
SMALL
NO_CHARGES
****
Generated from CSD

@<TRIPOS>ATOM
      1 C1        -0.0591    2.7257   10.1045 C.ar      1 RES1    0.0000
      2 C2         0.3841    3.8232   10.7949 C.ar      1 RES1    0.0000
      3 C3         0.9405    4.9159   10.1887 C.ar      1 RES1    0.0000
      4 C4         1.0771    4.9977    8.8067 C.ar      1 RES1    0.0000
      5 C5         0.5847    3.9228    8.1305 C.ar      1 RES1    0.0000
      6 C6         0.0320    2.7888    8.7173 C.ar      1 RES1    0.0000
      7 C7        -0.9342    0.4990   10.1097 C.3       1 RES1    0.0000
      8 C8         0.8847    5.3209   12.3687 C.3       1 RES1    0.0000
      9 N1         0.6787    3.9261    6.6642 N.pl3     1 RES1    0.0000
     10 O1        -0.5429    1.6856   10.8338 O.3       1 RES1    0.0000
     11 O2         0.3686    3.9982   12.1602 O.3       1 RES1    0.0000
     12 O3         1.3429    5.8320   11.1252 O.3       1 RES1    0.0000
     13 O4         1.3783    4.7912    6.1422 O.2       1 RES1    0.0000
     14 O5         0.0693    3.0918    6.0231 O.2       1 RES1    0.0000
@<TRIPOS>BOND
     1    1    2 ar
     2    2    3 ar
     3    3    4 ar
     4    4    5 ar
     5    5    6 ar
     6    6    1 ar
     7    7   10 1
     8    8   11 1
     9    9    5 1
    10   10    1 1
    11   11    2 1
    12   12    3 1
    13   13    9 2
    14   14    9 2
    15    8   12 1
@<TRIPOS>SUBSTRUCTURE
     1 RES1 1

@<TRIPOS>CRYSIN
   3.9160    8.1000   12.9710  90.0000  93.0300  90.0000   4 1

