# MOL2 file generated by ConQuest
# Please check atom types

@<TRIPOS>MOLECULE
JUXMOG
    31    32     1
SMALL
NO_CHARGES
****
Generated from CSD

@<TRIPOS>ATOM
      1 O1         0.5562    1.6800    0.1159 O.3       1 RES1    0.0000
      2 N1         0.0108    1.2802   -1.1495 N.3       1 RES1    0.0000
      3 C1         1.8750    1.2458    0.1872 C.2       1 RES1    0.0000
      4 O2         2.4864    1.3747    1.2327 O.2       1 RES1    0.0000
      5 C2         2.1891    0.6750   -1.0824 C.2       1 RES1    0.0000
      6 H1         3.0109    0.3210   -1.3361 H         1 RES1    0.0000
      7 C3         1.0783    0.7399   -1.8518 C.2       1 RES1    0.0000
      8 C4         0.9609    0.2264   -3.2345 C.ar      1 RES1    0.0000
      9 C5         1.8944    0.6536   -4.1765 C.ar      1 RES1    0.0000
     10 H2         2.5433    1.2755   -3.9387 H         1 RES1    0.0000
     11 C6         1.8568    0.1505   -5.4721 C.ar      1 RES1    0.0000
     12 H3         2.4742    0.4448   -6.1017 H         1 RES1    0.0000
     13 C7         0.9022   -0.7879   -5.8270 C.ar      1 RES1    0.0000
     14 H4         0.8729   -1.1182   -6.6960 H         1 RES1    0.0000
     15 C8        -0.0115   -1.2337   -4.8806 C.ar      1 RES1    0.0000
     16 H5        -0.6430   -1.8746   -5.1172 H         1 RES1    0.0000
     17 C9         0.0080   -0.7335   -3.5864 C.ar      1 RES1    0.0000
     18 H6        -0.6078   -1.0346   -2.9579 H         1 RES1    0.0000
     19 C10       -0.8822    2.3864   -1.6629 C.3       1 RES1    0.0000
     20 C11       -1.7987    2.8100   -0.5127 C.3       1 RES1    0.0000
     21 H7        -1.2719    3.1976    0.1896 H         1 RES1    0.0000
     22 H8        -2.2653    2.0416   -0.1758 H         1 RES1    0.0000
     23 H9        -2.4333    3.4564   -0.8306 H         1 RES1    0.0000
     24 C12       -0.0328    3.5554   -2.1492 C.3       1 RES1    0.0000
     25 H10        0.5733    3.8212   -1.4542 H         1 RES1    0.0000
     26 H11       -0.6032    4.2932   -2.3755 H         1 RES1    0.0000
     27 H12        0.4665    3.2881   -2.9240 H         1 RES1    0.0000
     28 C13       -1.7489    1.8232   -2.7881 C.3       1 RES1    0.0000
     29 H13       -1.1963    1.6174   -3.5458 H         1 RES1    0.0000
     30 H14       -2.4076    2.4743   -3.0403 H         1 RES1    0.0000
     31 H15       -2.1868    1.0248   -2.4854 H         1 RES1    0.0000
@<TRIPOS>BOND
     1    1    2 1
     2    2    7 1
     3    3    1 1
     4    4    3 2
     5    5    3 1
     6    6    5 1
     7    7    5 2
     8    8    7 1
     9    9    8 ar
    10   10    9 1
    11   11    9 ar
    12   12   11 1
    13   13   11 ar
    14   14   13 1
    15   15   13 ar
    16   16   15 1
    17   17    8 ar
    18   18   17 1
    19   19    2 1
    20   20   19 1
    21   21   20 1
    22   22   20 1
    23   23   20 1
    24   24   19 1
    25   25   24 1
    26   26   24 1
    27   27   24 1
    28   28   19 1
    29   29   28 1
    30   30   28 1
    31   31   28 1
    32   15   17 ar
@<TRIPOS>SUBSTRUCTURE
     1 RES1 1

@<TRIPOS>CRYSIN
   7.5526    8.3285   10.4375  67.5411  69.9071  81.5091   2 1

