# MOL2 file generated by ConQuest
# Please check atom types

@<TRIPOS>MOLECULE
JUYGOZ
    18    19     1
SMALL
NO_CHARGES
****
Generated from CSD

@<TRIPOS>ATOM
      1 N1         3.9107   -0.7994    1.7454 N.pl3     1 RES1    0.0000
      2 N2         3.9478   -2.0890    1.2724 N.2       1 RES1    0.0000
      3 N3         3.6135   -2.0655    0.0037 N.2       1 RES1    0.0000
      4 C1         3.3312   -0.7525   -0.3716 C.ar      1 RES1    0.0000
      5 C2         2.9629   -0.2369   -1.6116 C.ar      1 RES1    0.0000
      6 C3         2.7999    1.1231   -1.6874 C.ar      1 RES1    0.0000
      7 C4         3.0228    1.9736   -0.5641 C.ar      1 RES1    0.0000
      8 C5         3.3835    1.4662    0.6686 C.ar      1 RES1    0.0000
      9 C6         3.5466    0.0817    0.7297 C.ar      1 RES1    0.0000
     10 C7         4.2911   -0.5677    3.0765 C.2       1 RES1    0.0000
     11 N4         4.0872    0.5718    3.5825 N.2       1 RES1    0.0000
     12 O1         4.5750    0.5748    4.9087 O.3       1 RES1    0.0000
     13 H1         2.8444   -0.8015   -2.3792 H         1 RES1    0.0000
     14 H2         2.5205    1.5152   -2.5185 H         1 RES1    0.0000
     15 H3         2.9138    2.9221   -0.6619 H         1 RES1    0.0000
     16 H4         3.5185    2.0267    1.4362 H         1 RES1    0.0000
     17 H5         4.7263   -1.2569    3.5825 H         1 RES1    0.0000
     18 H6         4.3739    1.4192    5.2778 H         1 RES1    0.0000
@<TRIPOS>BOND
     1    1    2 1
     2    2    3 2
     3    3    4 1
     4    4    5 ar
     5    5    6 ar
     6    6    7 ar
     7    7    8 ar
     8    8    9 ar
     9    9    1 1
    10   10    1 1
    11   11   10 2
    12   12   11 1
    13   13    5 1
    14   14    6 1
    15   15    7 1
    16   16    8 1
    17   17   10 1
    18   18   12 1
    19    4    9 ar
@<TRIPOS>SUBSTRUCTURE
     1 RES1 1

@<TRIPOS>CRYSIN
  11.8350   10.2100    8.1980  90.0000 131.8000  90.0000   9 1

