# MOL2 file generated by ConQuest
# Please check atom types

@<TRIPOS>MOLECULE
JUZHIX
    56    59     1
SMALL
NO_CHARGES
****
Generated from CSD

@<TRIPOS>ATOM
      1 N1         1.1289   15.3485    4.7241 N.3       1 RES1    0.0000
      2 O1         0.5019   10.2949    4.6188 O.3       1 RES1    0.0000
      3 O2         1.8668    8.1912    3.4133 O.3       1 RES1    0.0000
      4 O3         6.6987   12.9361    0.7007 O.3       1 RES1    0.0000
      5 O4         5.3653   15.0224    1.9775 O.3       1 RES1    0.0000
      6 O5         1.4211   16.5242    4.2878 O.2       1 RES1    0.0000
      7 C1         3.9085   11.0752    2.2793 C.ar      1 RES1    0.0000
      8 C2         3.2291   12.1490    2.9135 C.ar      1 RES1    0.0000
      9 C3         3.6834   13.4877    2.7903 C.ar      1 RES1    0.0000
     10 C4         2.9907   14.5303    3.4126 C.ar      1 RES1    0.0000
     11 C5         1.8414   14.2550    4.1749 C.ar      1 RES1    0.0000
     12 C6         1.4071   12.9333    4.3361 C.ar      1 RES1    0.0000
     13 C7         2.0788   11.8839    3.7101 C.ar      1 RES1    0.0000
     14 C8         1.6285   10.5228    3.8492 C.ar      1 RES1    0.0000
     15 C9         2.2728    9.4929    3.2315 C.ar      1 RES1    0.0000
     16 C10        3.4438    9.7370    2.4146 C.ar      1 RES1    0.0000
     17 C11        4.1322    8.7007    1.7845 C.ar      1 RES1    0.0000
     18 C12        5.2698    8.9722    1.0190 C.ar      1 RES1    0.0000
     19 C13        5.7354   10.2750    0.8831 C.ar      1 RES1    0.0000
     20 C14        5.0780   11.3379    1.5100 C.ar      1 RES1    0.0000
     21 C15        5.5424   12.6991    1.4245 C.ar      1 RES1    0.0000
     22 C16        4.8884   13.7277    2.0240 C.ar      1 RES1    0.0000
     23 C17        0.8312   10.1042    6.0090 C.3       1 RES1    0.0000
     24 C18        0.7292    7.8363    2.6118 C.3       1 RES1    0.0000
     25 C19        7.8630   12.8049    1.5321 C.3       1 RES1    0.0000
     26 C20        5.1200   15.6827    0.7279 C.3       1 RES1    0.0000
     27 C21        0.0603   15.2332    5.7909 C.3       1 RES1    0.0000
     28 C22       -1.2309   14.6982    5.1543 C.3       1 RES1    0.0000
     29 C23        0.5756   14.3628    6.9462 C.3       1 RES1    0.0000
     30 C24       -0.2145   16.6329    6.3178 C.3       1 RES1    0.0000
     31 H1         3.2951   15.4251    3.3195 H         1 RES1    0.0000
     32 H2         0.6489   12.7504    4.8793 H         1 RES1    0.0000
     33 H3         3.8234    7.8078    1.8747 H         1 RES1    0.0000
     34 H4         5.7325    8.2601    0.5919 H         1 RES1    0.0000
     35 H5         6.5058   10.4457    0.3540 H         1 RES1    0.0000
     36 H6         0.0363    9.9545    6.5069 H         1 RES1    0.0000
     37 H7         1.2712   10.8785    6.3390 H         1 RES1    0.0000
     38 H8         1.4059    9.3529    6.0965 H         1 RES1    0.0000
     39 H9         0.4942    6.9314    2.7770 H         1 RES1    0.0000
     40 H10       -0.0029    8.3986    2.8356 H         1 RES1    0.0000
     41 H11        0.9428    7.9463    1.6931 H         1 RES1    0.0000
     42 H12        8.6424   12.9711    1.0161 H         1 RES1    0.0000
     43 H13        7.8144   13.4321    2.2437 H         1 RES1    0.0000
     44 H14        7.9007   11.9259    1.8873 H         1 RES1    0.0000
     45 H15        5.4688   16.5656    0.7655 H         1 RES1    0.0000
     46 H16        4.1848   15.7194    0.5644 H         1 RES1    0.0000
     47 H17        5.5461   15.2022    0.0276 H         1 RES1    0.0000
     48 H18       -1.9025   14.6244    5.8218 H         1 RES1    0.0000
     49 H19       -1.5230   15.2953    4.4758 H         1 RES1    0.0000
     50 H20       -1.0664   13.8432    4.7747 H         1 RES1    0.0000
     51 H21       -0.0974   14.2912    7.6126 H         1 RES1    0.0000
     52 H22        1.3501   14.7651    7.3206 H         1 RES1    0.0000
     53 H23        0.7945   13.4970    6.6218 H         1 RES1    0.0000
     54 H24       -0.8845   16.5937    6.9896 H         1 RES1    0.0000
     55 H25        0.5826   16.9962    6.6850 H         1 RES1    0.0000
     56 H26       -0.5130   17.1845    5.6034 H         1 RES1    0.0000
@<TRIPOS>BOND
     1    1    6 1
     2    2   14 1
     3    3   15 1
     4    4   21 1
     5    5   22 1
     6    7    8 ar
     7    8    9 ar
     8    9   10 ar
     9   10   11 ar
    10   11    1 1
    11   12   11 ar
    12   13    8 ar
    13   14   13 ar
    14   15   14 ar
    15   16    7 ar
    16   17   16 ar
    17   18   17 ar
    18   19   18 ar
    19   20    7 ar
    20   21   20 ar
    21   22    9 ar
    22   23    2 1
    23   24    3 1
    24   25    4 1
    25   26    5 1
    26   27    1 1
    27   28   27 1
    28   29   27 1
    29   30   27 1
    30   31   10 1
    31   32   12 1
    32   33   17 1
    33   34   18 1
    34   35   19 1
    35   36   23 1
    36   37   23 1
    37   38   23 1
    38   39   24 1
    39   40   24 1
    40   41   24 1
    41   42   25 1
    42   43   25 1
    43   44   25 1
    44   45   26 1
    45   46   26 1
    46   47   26 1
    47   48   28 1
    48   49   28 1
    49   50   28 1
    50   51   29 1
    51   52   29 1
    52   53   29 1
    53   54   30 1
    54   55   30 1
    55   56   30 1
    56   12   13 ar
    57   15   16 ar
    58   19   20 ar
    59   21   22 ar
@<TRIPOS>SUBSTRUCTURE
     1 RES1 1

@<TRIPOS>CRYSIN
   8.1986   21.6402   11.6933  90.0000 100.5890  90.0000  14 1

