# MOL2 file generated by ConQuest
# Please check atom types

@<TRIPOS>MOLECULE
JUZHET
    56    59     1
SMALL
NO_CHARGES
****
Generated from CSD

@<TRIPOS>ATOM
      1 N1         8.2900    5.1398    8.2876 N.3       1 RES1    0.0000
      2 O1        10.4517    2.0808    1.4055 O.3       1 RES1    0.0000
      3 O2        10.9482    4.6691    2.5731 O.3       1 RES1    0.0000
      4 O3         7.4314    2.6146    8.5849 O.3       1 RES1    0.0000
      5 O4         7.0511    0.1324    7.5296 O.3       1 RES1    0.0000
      6 O5         9.0946    5.5377    9.2149 O.2       1 RES1    0.0000
      7 C1         9.1933    2.9925    5.3250 C.ar      1 RES1    0.0000
      8 C2         8.9769    1.6911    4.7817 C.ar      1 RES1    0.0000
      9 C3         8.2557    0.7130    5.5240 C.ar      1 RES1    0.0000
     10 C4         8.0563   -0.5624    4.9721 C.ar      1 RES1    0.0000
     11 C5         8.5543   -0.8637    3.7126 C.ar      1 RES1    0.0000
     12 C6         9.2340    0.0903    2.9633 C.ar      1 RES1    0.0000
     13 C7         9.4542    1.3745    3.4814 C.ar      1 RES1    0.0000
     14 C8        10.1122    2.3937    2.7068 C.ar      1 RES1    0.0000
     15 C9        10.3679    3.6223    3.2361 C.ar      1 RES1    0.0000
     16 C10        9.9334    3.9453    4.5741 C.ar      1 RES1    0.0000
     17 C11       10.2216    5.1945    5.1376 C.ar      1 RES1    0.0000
     18 C12        9.7071    5.5339    6.3793 C.ar      1 RES1    0.0000
     19 C13        8.8934    4.6436    7.0833 C.ar      1 RES1    0.0000
     20 C14        8.6672    3.3377    6.6072 C.ar      1 RES1    0.0000
     21 C15        7.9491    2.3200    7.3405 C.ar      1 RES1    0.0000
     22 C16        7.7404    1.0834    6.8125 C.ar      1 RES1    0.0000
     23 C17        9.4497    2.5100    0.4694 C.3       1 RES1    0.0000
     24 C18       12.0343    4.4042    1.6701 C.3       1 RES1    0.0000
     25 C19        8.3212    2.2572    9.6567 C.3       1 RES1    0.0000
     26 C20        5.6390    0.3755    7.6005 C.3       1 RES1    0.0000
     27 C21        6.9208    5.7552    8.2692 C.3       1 RES1    0.0000
     28 C22        7.1001    7.2422    7.9658 C.3       1 RES1    0.0000
     29 C23        6.3021    5.5597    9.6461 C.3       1 RES1    0.0000
     30 C24        6.0525    5.1049    7.1961 C.3       1 RES1    0.0000
     31 H1         7.5857   -1.2221    5.4686 H         1 RES1    0.0000
     32 H2         8.4206   -1.7322    3.3523 H         1 RES1    0.0000
     33 H3         9.5596   -0.1314    2.0984 H         1 RES1    0.0000
     34 H4        10.7686    5.8097    4.6632 H         1 RES1    0.0000
     35 H5         9.9145    6.3794    6.7605 H         1 RES1    0.0000
     36 H6         9.7172    2.2777   -0.4117 H         1 RES1    0.0000
     37 H7         9.3471    3.4527    0.5317 H         1 RES1    0.0000
     38 H8         8.6233    2.0870    0.6707 H         1 RES1    0.0000
     39 H9        12.3364    5.2185    1.2856 H         1 RES1    0.0000
     40 H10       12.7462    3.9966    2.1500 H         1 RES1    0.0000
     41 H11       11.7398    3.8192    0.9823 H         1 RES1    0.0000
     42 H12        7.9200    2.4768   10.4898 H         1 RES1    0.0000
     43 H13        9.1385    2.7332    9.5633 H         1 RES1    0.0000
     44 H14        8.4926    1.3239    9.6243 H         1 RES1    0.0000
     45 H15        5.2227   -0.3126    8.1061 H         1 RES1    0.0000
     46 H16        5.4796    1.2144    8.0155 H         1 RES1    0.0000
     47 H17        5.2801    0.3845    6.7215 H         1 RES1    0.0000
     48 H18        6.2519    7.6699    7.9481 H         1 RES1    0.0000
     49 H19        7.6420    7.6398    8.6378 H         1 RES1    0.0000
     50 H20        7.5217    7.3406    7.1206 H         1 RES1    0.0000
     51 H21        5.4333    5.9430    9.6633 H         1 RES1    0.0000
     52 H22        6.8475    5.9823   10.2982 H         1 RES1    0.0000
     53 H23        6.2419    4.6314    9.8370 H         1 RES1    0.0000
     54 H24        5.1901    5.5041    7.1974 H         1 RES1    0.0000
     55 H25        6.4583    5.2301    6.3457 H         1 RES1    0.0000
     56 H26        5.9716    4.1748    7.3743 H         1 RES1    0.0000
@<TRIPOS>BOND
     1    1    6 1
     2    2   14 1
     3    3   15 1
     4    4   21 1
     5    5   22 1
     6    7    8 ar
     7    8    9 ar
     8    9   10 ar
     9   10   11 ar
    10   11   12 ar
    11   12   13 ar
    12   13    8 ar
    13   14   13 ar
    14   15   14 ar
    15   16    7 ar
    16   17   16 ar
    17   18   17 ar
    18   19    1 1
    19   20    7 ar
    20   21   20 ar
    21   22    9 ar
    22   23    2 1
    23   24    3 1
    24   25    4 1
    25   26    5 1
    26   27    1 1
    27   28   27 1
    28   29   27 1
    29   30   27 1
    30   31   10 1
    31   32   11 1
    32   33   12 1
    33   34   17 1
    34   35   18 1
    35   36   23 1
    36   37   23 1
    37   38   23 1
    38   39   24 1
    39   40   24 1
    40   41   24 1
    41   42   25 1
    42   43   25 1
    43   44   25 1
    44   45   26 1
    45   46   26 1
    46   47   26 1
    47   48   28 1
    48   49   28 1
    49   50   28 1
    50   51   29 1
    51   52   29 1
    52   53   29 1
    53   54   30 1
    54   55   30 1
    55   56   30 1
    56   15   16 ar
    57   18   19 ar
    58   19   20 ar
    59   21   22 ar
@<TRIPOS>SUBSTRUCTURE
     1 RES1 1

@<TRIPOS>CRYSIN
   9.6761   10.5020   10.8995  76.6369  80.4476  76.7350   2 1

