# MOL2 file generated by ConQuest
# Please check atom types

@<TRIPOS>MOLECULE
JUZRAZ
   100   110     2
SMALL
NO_CHARGES
****
Generated from CSD

@<TRIPOS>ATOM
      1 O1         8.9262    8.0162    3.8640 O.2       1 RES1    0.0000
      2 N1         8.8462    6.7582    3.6258 N.3       1 RES1    0.0000
      3 C1         5.9922   -1.4131    1.5911 C.ar      1 RES1    0.0000
      4 H1         5.1937   -1.7835    1.2344 H         1 RES1    0.0000
      5 C2         7.0075   -2.2225    1.9067 C.ar      1 RES1    0.0000
      6 H2         6.9268   -3.1555    1.7507 H         1 RES1    0.0000
      7 C3         8.1753   -1.7245    2.4571 C.ar      1 RES1    0.0000
      8 C4         9.2356   -2.5408    2.8138 C.ar      1 RES1    0.0000
      9 H3         9.1703   -3.4792    2.6671 H         1 RES1    0.0000
     10 C5        10.3813   -2.0222    3.3758 C.ar      1 RES1    0.0000
     11 H4        11.0813   -2.6012    3.6539 H         1 RES1    0.0000
     12 C6        10.5074   -0.6366    3.5331 C.ar      1 RES1    0.0000
     13 H5        11.3209   -0.2881    3.8780 H         1 RES1    0.0000
     14 C7         9.5056    0.2305    3.2092 C.ar      1 RES1    0.0000
     15 C8         8.3011   -0.2876    2.6788 C.ar      1 RES1    0.0000
     16 C9         7.2178    0.5274    2.3562 C.ar      1 RES1    0.0000
     17 C10        6.0832   -0.0384    1.7742 C.ar      1 RES1    0.0000
     18 H6         5.3654    0.5213    1.5008 H         1 RES1    0.0000
     19 C11        7.3295    1.9731    2.5908 C.ar      1 RES1    0.0000
     20 C12        8.5584    2.5422    3.0355 C.ar      1 RES1    0.0000
     21 C13        9.6686    1.7122    3.3195 C.ar      1 RES1    0.0000
     22 C14       10.8436    2.3199    3.6574 C.ar      1 RES1    0.0000
     23 H7        11.5955    1.7780    3.8663 H         1 RES1    0.0000
     24 C15       10.9783    3.7075    3.7102 C.ar      1 RES1    0.0000
     25 H8        11.8281    4.0774    3.9168 H         1 RES1    0.0000
     26 C16        9.9266    4.5576    3.4720 C.ar      1 RES1    0.0000
     27 C17        8.6714    3.9671    3.1587 C.ar      1 RES1    0.0000
     28 C18        7.5328    4.7806    2.9417 C.ar      1 RES1    0.0000
     29 C19        6.3607    4.1860    2.5486 C.ar      1 RES1    0.0000
     30 H9         5.5919    4.7249    2.4078 H         1 RES1    0.0000
     31 C20        6.2711    2.8215    2.3503 C.ar      1 RES1    0.0000
     32 H10        5.4510    2.4558    2.0382 H         1 RES1    0.0000
     33 C21        7.5163    6.2670    3.1787 C.3       1 RES1    0.0000
     34 C22       10.1255    6.0461    3.3864 C.3       1 RES1    0.0000
     35 C23        6.5252    6.6116    4.3134 C.3       1 RES1    0.0000
     36 H11        6.8048    6.1627    5.1394 H         1 RES1    0.0000
     37 H12        5.6269    6.3082    4.0658 H         1 RES1    0.0000
     38 H13        6.5164    7.5813    4.4565 H         1 RES1    0.0000
     39 C24        7.1073    7.0457    1.9220 C.3       1 RES1    0.0000
     40 H14        7.1638    8.0066    2.1015 H         1 RES1    0.0000
     41 H15        6.1878    6.8130    1.6768 H         1 RES1    0.0000
     42 H16        7.7109    6.8158    1.1839 H         1 RES1    0.0000
     43 C25       11.1327    6.5540    4.4319 C.3       1 RES1    0.0000
     44 H17       11.1513    7.5347    4.4190 H         1 RES1    0.0000
     45 H18       12.0254    6.2094    4.2195 H         1 RES1    0.0000
     46 H19       10.8652    6.2423    5.3213 H         1 RES1    0.0000
     47 C26       10.6232    6.4201    1.9795 C.3       1 RES1    0.0000
     48 H20       10.0067    6.0612    1.3083 H         1 RES1    0.0000
     49 H21       11.5163    6.0420    1.8375 H         1 RES1    0.0000
     50 H22       10.6636    7.3947    1.8962 H         1 RES1    0.0000
     51 O2         1.5752   -5.3464    2.4547 O.2       2 RES2    0.0000
     52 N2         1.8615   -4.0903    2.5779 N.3       2 RES2    0.0000
     53 C27        3.1727    3.9814    6.0089 C.ar      2 RES2    0.0000
     54 H23        3.2470    4.3326    6.8889 H         2 RES2    0.0000
     55 C28        3.1070    4.8333    4.9622 C.ar      2 RES2    0.0000
     56 H24        3.1734    5.7704    5.1101 H         2 RES2    0.0000
     57 C29        2.9414    4.3389    3.6422 C.ar      2 RES2    0.0000
     58 C30        2.8785    5.1950    2.5286 C.ar      2 RES2    0.0000
     59 H25        2.9436    6.1353    2.6530 H         2 RES2    0.0000
     60 C31        2.7251    4.6879    1.2649 C.ar      2 RES2    0.0000
     61 H26        2.7151    5.2737    0.5175 H         2 RES2    0.0000
     62 C32        2.5814    3.3077    1.0725 C.ar      2 RES2    0.0000
     63 H27        2.4547    2.9744    0.1924 H         2 RES2    0.0000
     64 C33        2.6184    2.4190    2.1273 C.ar      2 RES2    0.0000
     65 C34        2.8403    2.9266    3.4427 C.ar      2 RES2    0.0000
     66 C35        2.9737    2.0565    4.5480 C.ar      2 RES2    0.0000
     67 C36        3.1331    2.5976    5.8235 C.ar      2 RES2    0.0000
     68 H28        3.2138    2.0195    6.5733 H         2 RES2    0.0000
     69 C37        2.9386    0.5960    4.3274 C.ar      2 RES2    0.0000
     70 C38        2.6057    0.0777    3.0414 C.ar      2 RES2    0.0000
     71 C39        2.4307    0.9645    1.9455 C.ar      2 RES2    0.0000
     72 C40        2.0745    0.4204    0.7216 C.ar      2 RES2    0.0000
     73 H29        1.9216    0.9988   -0.0164 H         2 RES2    0.0000
     74 C41        1.9344   -0.9601    0.5527 C.ar      2 RES2    0.0000
     75 H30        1.7044   -1.2979   -0.3051 H         2 RES2    0.0000
     76 C42        2.1190   -1.8409    1.5841 C.ar      2 RES2    0.0000
     77 C43        2.4791   -1.3368    2.8654 C.ar      2 RES2    0.0000
     78 C44        2.7099   -2.2187    3.9508 C.ar      2 RES2    0.0000
     79 C45        3.1079   -1.6809    5.1512 C.ar      2 RES2    0.0000
     80 H31        3.3063   -2.2637    5.8751 H         2 RES2    0.0000
     81 C46        3.2281   -0.3073    5.3330 C.ar      2 RES2    0.0000
     82 H32        3.5176    0.0192    6.1767 H         2 RES2    0.0000
     83 C47        2.5844   -3.7149    3.8252 C.3       2 RES2    0.0000
     84 C48        1.9681   -3.3327    1.3083 C.3       2 RES2    0.0000
     85 C49        1.7413   -4.3057    4.9705 C.3       2 RES2    0.0000
     86 H33        0.8584   -3.8798    4.9787 H         2 RES2    0.0000
     87 H34        2.1914   -4.1405    5.8258 H         2 RES2    0.0000
     88 H35        1.6386   -5.2710    4.8367 H         2 RES2    0.0000
     89 C50        3.9586   -4.3932    3.8381 C.3       2 RES2    0.0000
     90 H36        3.8565   -5.3423    3.6128 H         2 RES2    0.0000
     91 H37        4.3553   -4.3106    4.7311 H         2 RES2    0.0000
     92 H38        4.5418   -3.9621    3.1799 H         2 RES2    0.0000
     93 C51        0.6787   -3.6142    0.5292 C.3       2 RES2    0.0000
     94 H39        0.5489   -4.5823    0.4494 H         2 RES2    0.0000
     95 H40        0.7443   -3.2186   -0.3661 H         2 RES2    0.0000
     96 H41       -0.0828   -3.2213    1.0044 H         2 RES2    0.0000
     97 C52        3.1655   -3.8727    0.5163 C.3       2 RES2    0.0000
     98 H42        3.9942   -3.6686    0.9974 H         2 RES2    0.0000
     99 H43        3.1882   -3.4518   -0.3684 H         2 RES2    0.0000
    100 H44        3.0775   -4.8429    0.4130 H         2 RES2    0.0000
@<TRIPOS>BOND
     1    1    2 1
     2    2   33 1
     3    3    4 1
     4    5    3 ar
     5    6    5 1
     6    7    5 ar
     7    8    7 ar
     8    9    8 1
     9   10    8 ar
    10   11   10 1
    11   12   10 ar
    12   13   12 1
    13   14   12 ar
    14   15    7 ar
    15   16   15 ar
    16   17    3 ar
    17   18   17 1
    18   19   16 ar
    19   20   19 ar
    20   21   14 ar
    21   22   21 ar
    22   23   22 1
    23   24   22 ar
    24   25   24 1
    25   26   24 ar
    26   27   20 ar
    27   28   27 ar
    28   29   28 ar
    29   30   29 1
    30   31   19 ar
    31   32   31 1
    32   33   28 1
    33   34    2 1
    34   35   33 1
    35   36   35 1
    36   37   35 1
    37   38   35 1
    38   39   33 1
    39   40   39 1
    40   41   39 1
    41   42   39 1
    42   43   34 1
    43   44   43 1
    44   45   43 1
    45   46   43 1
    46   47   34 1
    47   48   47 1
    48   49   47 1
    49   50   47 1
    50   51   52 1
    51   52   83 1
    52   53   54 1
    53   55   53 ar
    54   56   55 1
    55   57   55 ar
    56   58   57 ar
    57   59   58 1
    58   60   58 ar
    59   61   60 1
    60   62   60 ar
    61   63   62 1
    62   64   62 ar
    63   65   57 ar
    64   66   65 ar
    65   67   53 ar
    66   68   67 1
    67   69   66 ar
    68   70   69 ar
    69   71   64 ar
    70   72   71 ar
    71   73   72 1
    72   74   72 ar
    73   75   74 1
    74   76   74 ar
    75   77   70 ar
    76   78   77 ar
    77   79   78 ar
    78   80   79 1
    79   81   69 ar
    80   82   81 1
    81   83   78 1
    82   84   52 1
    83   85   83 1
    84   86   85 1
    85   87   85 1
    86   88   85 1
    87   89   83 1
    88   90   89 1
    89   91   89 1
    90   92   89 1
    91   93   84 1
    92   94   93 1
    93   95   93 1
    94   96   93 1
    95   97   84 1
    96   98   97 1
    97   99   97 1
    98  100   97 1
    99   14   15 ar
   100   16   17 ar
   101   20   21 ar
   102   26   27 ar
   103   26   34 1
   104   29   31 ar
   105   64   65 ar
   106   66   67 ar
   107   70   71 ar
   108   76   77 ar
   109   76   84 1
   110   79   81 ar
@<TRIPOS>SUBSTRUCTURE
     1 RES1 1
     2 RES2 51

@<TRIPOS>CRYSIN
  11.6367   27.4387   11.7856  90.0000  95.3720  90.0000 231 1

