# MOL2 file generated by ConQuest
# Please check atom types

@<TRIPOS>MOLECULE
KABDUN
    31    33     1
SMALL
NO_CHARGES
****
Generated from CSD

@<TRIPOS>ATOM
      1 N1         2.3646    0.5172    3.3025 N.2       1 RES1    0.0000
      2 O1         2.1584    0.3965    1.8466 O.3       1 RES1    0.0000
      3 C1         3.1479    1.2397    1.1898 C.3       1 RES1    0.0000
      4 N2         4.2154    1.1728    2.1844 N.3       1 RES1    0.0000
      5 C2         5.3132    2.1088    2.4363 C.3       1 RES1    0.0000
      6 H1         6.0542    1.9589    1.8297 H         1 RES1    0.0000
      7 H2         4.9734    3.0171    2.3687 H         1 RES1    0.0000
      8 C3         5.6601    1.7298    3.8788 C.3       1 RES1    0.0000
      9 H3         6.0615    2.4683    4.3922 H         1 RES1    0.0000
     10 H4         6.3389    0.9146    3.8967 H         1 RES1    0.0000
     11 N3         4.3453    1.3598    4.4201 N.pl3     1 RES1    0.0000
     12 H5         4.3059    0.8949    5.1527 H         1 RES1    0.0000
     13 C4         3.5755    0.9668    3.3748 C.2       1 RES1    0.0000
     14 C5         3.5375    0.5854   -0.1130 C.3       1 RES1    0.0000
     15 H6         4.3018    1.0916   -0.5064 H         1 RES1    0.0000
     16 H7         3.8932   -0.3196    0.0801 H         1 RES1    0.0000
     17 C6         2.3906    0.5735   -1.1051 C.3       1 RES1    0.0000
     18 H8         2.6952    0.1593   -1.9483 H         1 RES1    0.0000
     19 H9         1.6731   -0.0197   -0.7447 H         1 RES1    0.0000
     20 C7         1.8029    1.9528   -1.3482 C.3       1 RES1    0.0000
     21 H10        2.5058    2.4831   -1.7466 H         1 RES1    0.0000
     22 C8         1.4136    2.5883   -0.0158 C.3       1 RES1    0.0000
     23 H11        0.6402    2.0750    0.4055 H         1 RES1    0.0000
     24 H12        1.0695    3.4419   -0.1573 H         1 RES1    0.0000
     25 C9         2.5771    2.6357    0.9615 C.3       1 RES1    0.0000
     26 H13        3.2892    3.1764    0.6102 H         1 RES1    0.0000
     27 H14        2.3095    3.0407    1.8593 H         1 RES1    0.0000
     28 C10        0.6304    1.8734   -2.3172 C.3       1 RES1    0.0000
     29 H15        0.2809    2.7339   -2.5121 H         1 RES1    0.0000
     30 H16       -0.0455    1.3473   -1.9187 H         1 RES1    0.0000
     31 H17        0.9491    1.4259   -3.1945 H         1 RES1    0.0000
@<TRIPOS>BOND
     1    1    2 1
     2    2    3 1
     3    3    4 1
     4    4    5 1
     5    5    6 1
     6    7    5 1
     7    8    5 1
     8    9    8 1
     9   10    8 1
    10   11    8 1
    11   12   11 1
    12   13    1 2
    13   14    3 1
    14   15   14 1
    15   16   14 1
    16   17   14 1
    17   18   17 1
    18   19   17 1
    19   20   17 1
    20   21   20 1
    21   22   20 1
    22   23   22 1
    23   24   22 1
    24   25    3 1
    25   26   25 1
    26   27   25 1
    27   28   20 1
    28   29   28 1
    29   30   28 1
    30   31   28 1
    31    4   13 1
    32   11   13 1
    33   22   25 1
@<TRIPOS>SUBSTRUCTURE
     1 RES1 1

@<TRIPOS>CRYSIN
  10.6922    9.8340   10.9612  90.0000 115.5410  90.0000  14 1

