# MOL2 file generated by ConQuest
# Please check atom types

@<TRIPOS>MOLECULE
KABHED
    37    40     1
SMALL
NO_CHARGES
****
Generated from CSD

@<TRIPOS>ATOM
      1 O1         1.7528   -2.7955    6.6659 O.3       1 RES1    0.0000
      2 O2         1.5903   -4.3361    5.0867 O.2       1 RES1    0.0000
      3 O3         1.7568   -3.0419    2.5604 O.2       1 RES1    0.0000
      4 O4        -0.2974   -2.3412    2.5811 O.2       1 RES1    0.0000
      5 N1         0.7967   -2.5321    3.1170 N.pl3     1 RES1    0.0000
      6 N2         2.3791    0.0828    2.8263 N.ar      1 RES1    0.0000
      7 C1         1.6244   -1.4863    7.0934 C.ar      1 RES1    0.0000
      8 C2         2.0478   -1.2314    8.3858 C.ar      1 RES1    0.0000
      9 H1         2.4048   -1.9278    8.9244 H         1 RES1    0.0000
     10 C3         1.9412    0.0564    8.8789 C.ar      1 RES1    0.0000
     11 H2         2.2404    0.2512    9.7595 H         1 RES1    0.0000
     12 C4         1.4000    1.0668    8.0944 C.ar      1 RES1    0.0000
     13 H3         1.3131    1.9443    8.4494 H         1 RES1    0.0000
     14 C5         0.9877    0.8072    6.8071 C.ar      1 RES1    0.0000
     15 H4         0.6249    1.5085    6.2795 H         1 RES1    0.0000
     16 C6         1.0982   -0.4905    6.2623 C.ar      1 RES1    0.0000
     17 C7         0.7458   -0.8318    4.8981 C.2       1 RES1    0.0000
     18 C8         0.9737   -2.1066    4.5164 C.2       1 RES1    0.0000
     19 C9         1.4577   -3.1752    5.3875 C.2       1 RES1    0.0000
     20 C10        0.2393    0.2359    3.9592 C.3       1 RES1    0.0000
     21 H5        -0.1985    0.9497    4.4875 H         1 RES1    0.0000
     22 H6        -0.4419   -0.1583    3.3581 H         1 RES1    0.0000
     23 C11        1.3497    0.8484    3.1183 C.ar      1 RES1    0.0000
     24 C12        1.2031    2.1752    2.6461 C.ar      1 RES1    0.0000
     25 H7         0.4307    2.6827    2.8639 H         1 RES1    0.0000
     26 C13        2.1851    2.7100    1.8761 C.ar      1 RES1    0.0000
     27 H8         2.1104    3.6045    1.5661 H         1 RES1    0.0000
     28 C14        3.3191    1.9393    1.5337 C.ar      1 RES1    0.0000
     29 C15        3.3631    0.6020    2.0247 C.ar      1 RES1    0.0000
     30 C16        4.4456   -0.2236    1.6614 C.ar      1 RES1    0.0000
     31 H9         4.4786   -1.1207    1.9727 H         1 RES1    0.0000
     32 C17        5.4467    0.2520    0.8679 C.ar      1 RES1    0.0000
     33 H10        6.1671   -0.3170    0.6270 H         1 RES1    0.0000
     34 C18        5.4199    1.5833    0.4021 C.ar      1 RES1    0.0000
     35 H11        6.1294    1.9087   -0.1396 H         1 RES1    0.0000
     36 C19        4.3793    2.4060    0.7260 C.ar      1 RES1    0.0000
     37 H12        4.3684    3.3002    0.4052 H         1 RES1    0.0000
@<TRIPOS>BOND
     1    1    7 1
     2    2   19 2
     3    3    5 2
     4    4    5 2
     5    5   18 1
     6    6   23 ar
     7    7    8 ar
     8    8    9 1
     9   10    8 ar
    10   11   10 1
    11   12   10 ar
    12   13   12 1
    13   14   12 ar
    14   15   14 1
    15   16    7 ar
    16   17   16 1
    17   18   17 2
    18   19    1 1
    19   20   17 1
    20   21   20 1
    21   22   20 1
    22   23   20 1
    23   24   23 ar
    24   25   24 1
    25   26   24 ar
    26   27   26 1
    27   28   26 ar
    28   29    6 ar
    29   30   29 ar
    30   31   30 1
    31   32   30 ar
    32   33   32 1
    33   34   32 ar
    34   35   34 1
    35   36   28 ar
    36   37   36 1
    37   14   16 ar
    38   18   19 1
    39   28   29 ar
    40   34   36 ar
@<TRIPOS>SUBSTRUCTURE
     1 RES1 1

@<TRIPOS>CRYSIN
   7.1803    8.0598   13.9214  98.6590  92.7330 108.7980   2 1

