# MOL2 file generated by ConQuest
# Please check atom types

@<TRIPOS>MOLECULE
KABMAB
    18    19     1
SMALL
USER_CHARGES
****
Generated from CSD

@<TRIPOS>ATOM
      1 O1         2.0195    0.5766    6.0102 O.2       1 RES1   -1.0000
      2 O2         3.3144    4.8668    3.0443 O.2       1 RES1   -1.0000
      3 O3         4.1344    2.2012    1.3945 O.3       1 RES1    0.0000
      4 O4         2.0181    2.7676    0.9485 O.2       1 RES1    0.0000
      5 N1         2.2999    1.6233    5.2857 N.pl3     1 RES1    1.0000
      6 N2         2.9727    3.8490    3.7625 N.pl3     1 RES1    1.0000
      7 C1         2.8071    3.9820    5.1517 C.ar      1 RES1    0.0000
      8 C2         2.9660    5.2390    5.7547 C.ar      1 RES1    0.0000
      9 C3         2.7842    5.3438    7.1094 C.ar      1 RES1    0.0000
     10 C4         2.4567    4.2185    7.8820 C.ar      1 RES1    0.0000
     11 C5         2.3006    2.9868    7.2916 C.ar      1 RES1    0.0000
     12 C6         2.4764    2.8629    5.9065 C.ar      1 RES1    0.0000
     13 C7         2.4146    1.5289    3.9478 C.ar      1 RES1    0.0000
     14 C8         2.7635    2.6471    3.2139 C.ar      1 RES1    0.0000
     15 C9         2.1583    0.2051    3.3291 C.3       1 RES1    0.0000
     16 C10        2.9048    2.5717    1.7200 C.2       1 RES1    0.0000
     17 C11        4.4038    2.0210   -0.0345 C.3       1 RES1    0.0000
     18 C12        5.8150    1.5405   -0.1298 C.3       1 RES1    0.0000
@<TRIPOS>BOND
     1    1    5 1
     2    2    6 1
     3    3   16 1
     4    4   16 2
     5    5   12 ar
     6    6    7 ar
     7    7    8 ar
     8    8    9 ar
     9    9   10 ar
    10   10   11 ar
    11   11   12 ar
    12   12    7 ar
    13   13    5 ar
    14   14    6 ar
    15   15   13 1
    16   16   14 1
    17   17    3 1
    18   18   17 1
    19   13   14 ar
@<TRIPOS>SUBSTRUCTURE
     1 RES1 1

@<TRIPOS>CRYSIN
   6.9280    8.1090   10.5520  83.4450  85.8610  79.1680   2 1

