# MOL2 file generated by ConQuest
# Please check atom types

@<TRIPOS>MOLECULE
KABNEI
    33    34     1
SMALL
NO_CHARGES
****
Generated from CSD

@<TRIPOS>ATOM
      1 H1        13.3715   -0.1619    7.0853 H         1 RES1    0.0000
      2 H2        10.1665   -1.0991    4.0507 H         1 RES1    0.0000
      3 H3        11.5945   -0.8946    5.7870 H         1 RES1    0.0000
      4 H4         8.5725    0.8690    5.2288 H         1 RES1    0.0000
      5 H5         5.8136   -0.0426    1.5851 H         1 RES1    0.0000
      6 H6         9.8648    2.7179    6.2357 H         1 RES1    0.0000
      7 H7         6.3742   -3.7829    3.0361 H         1 RES1    0.0000
      8 H8        11.6867    3.4762    7.5001 H         1 RES1    0.0000
      9 C1        11.6142   -0.0136    6.1349 C.ar      1 RES1    0.0000
     10 C2        10.5486    0.8316    5.8578 C.ar      1 RES1    0.0000
     11 C3        12.6972    1.6963    7.3936 C.ar      1 RES1    0.0000
     12 C4        12.6767    0.4013    6.8935 C.ar      1 RES1    0.0000
     13 C5         7.4054   -0.3059    2.7652 C.ar      1 RES1    0.0000
     14 C6         7.7500   -2.4597    3.6134 C.ar      1 RES1    0.0000
     15 C7         9.4044   -0.6347    4.2452 C.2       1 RES1    0.0000
     16 C8        10.5774    2.1206    6.3894 C.ar      1 RES1    0.0000
     17 C9         6.6285   -2.9053    2.9670 C.ar      1 RES1    0.0000
     18 N1         8.4771   -3.4710    4.4210 N.pl3     1 RES1    0.0000
     19 C10       13.8234    2.1496    8.1621 C.1       1 RES1    0.0000
     20 C11        9.3985    0.3877    5.0674 C.2       1 RES1    0.0000
     21 N2         7.8303    1.0786    2.5023 N.pl3     1 RES1    0.0000
     22 C12        6.2566   -0.6935    2.1262 C.ar      1 RES1    0.0000
     23 C13        8.2117   -1.1391    3.5450 C.ar      1 RES1    0.0000
     24 O1         9.5271   -3.1890    4.9306 O.2       1 RES1    0.0000
     25 C14       11.6409    2.5492    7.1396 C.ar      1 RES1    0.0000
     26 C15        5.9055   -2.0175    2.2275 C.ar      1 RES1    0.0000
     27 O2         7.9393   -4.5488    4.5448 O.2       1 RES1    0.0000
     28 N3         4.7336   -2.4870    1.4855 N.pl3     1 RES1    0.0000
     29 O3         8.9084    1.2439    1.9857 O.2       1 RES1    0.0000
     30 O4         7.0371    1.9553    2.7894 O.2       1 RES1    0.0000
     31 O5         4.1408   -1.7142    0.7807 O.2       1 RES1    0.0000
     32 N4        14.7258    2.5296    8.7456 N.1       1 RES1    0.0000
     33 O6         4.4199   -3.6517    1.6211 O.2       1 RES1    0.0000
@<TRIPOS>BOND
     1    1   12 1
     2    2   15 1
     3    3    9 1
     4    4   20 1
     5    5   22 1
     6    6   16 1
     7    7   17 1
     8    8   25 1
     9    9   10 ar
    10   10   16 ar
    11   11   12 ar
    12   12    9 ar
    13   13   21 1
    14   14   17 ar
    15   15   20 2
    16   16   25 ar
    17   17   26 ar
    18   18   14 1
    19   19   11 1
    20   20   10 1
    21   21   29 2
    22   22   13 ar
    23   23   13 ar
    24   24   18 2
    25   25   11 ar
    26   26   22 ar
    27   27   18 2
    28   28   26 1
    29   30   21 2
    30   31   28 2
    31   32   19 3
    32   33   28 2
    33   14   23 ar
    34   15   23 1
@<TRIPOS>SUBSTRUCTURE
     1 RES1 1

@<TRIPOS>CRYSIN
  11.1830    8.5200   15.4590  90.0000  94.0900  90.0000  14 1

