# MOL2 file generated by ConQuest
# Please check atom types

@<TRIPOS>MOLECULE
KABTEP
    96   104     2
SMALL
NO_CHARGES
****
Generated from CSD

@<TRIPOS>ATOM
      1 O1         1.6320    4.3473    0.5265 O.2       1 RES1    0.0000
      2 O2         1.5853    2.2810    1.0465 O.2       1 RES1    0.0000
      3 O3        -0.5924    5.4884    4.6980 O.2       1 RES1    0.0000
      4 O4        -1.1975    3.4977    5.4272 O.3       1 RES1    0.0000
      5 O5         2.2015    1.7711    3.8621 O.3       1 RES1    0.0000
      6 N1         1.9011    3.4195    1.2610 N.pl3     1 RES1    0.0000
      7 C1         2.6827    3.7609    2.5392 C.3       1 RES1    0.0000
      8 H1         3.4661    4.2905    2.2838 H         1 RES1    0.0000
      9 C2         1.7966    4.6301    3.4435 C.3       1 RES1    0.0000
     10 H2         1.2490    5.2021    2.8657 H         1 RES1    0.0000
     11 C3         2.6564    5.5345    4.3070 C.ar      1 RES1    0.0000
     12 C4         2.9069    6.8160    3.8911 C.ar      1 RES1    0.0000
     13 H3         2.5219    7.1261    3.1026 H         1 RES1    0.0000
     14 C5         3.7169    7.6453    4.6203 C.ar      1 RES1    0.0000
     15 H4         3.8721    8.5147    4.3268 H         1 RES1    0.0000
     16 C6         4.2960    7.2076    5.7774 C.ar      1 RES1    0.0000
     17 H5         4.8364    7.7755    6.2776 H         1 RES1    0.0000
     18 C7         4.0757    5.9248    6.1933 C.ar      1 RES1    0.0000
     19 H6         4.4854    5.6126    6.9673 H         1 RES1    0.0000
     20 C8         3.2525    5.0931    5.4720 C.ar      1 RES1    0.0000
     21 H7         3.0968    4.2260    5.7708 H         1 RES1    0.0000
     22 C9         3.1666    2.5161    3.2053 C.2       1 RES1    0.0000
     23 C10        4.4315    2.1321    3.1645 C.2       1 RES1    0.0000
     24 H8         4.9899    2.7003    2.6853 H         1 RES1    0.0000
     25 C11        5.1089    0.9584    3.7463 C.ar      1 RES1    0.0000
     26 C12        6.4688    0.8263    3.5120 C.ar      1 RES1    0.0000
     27 H9         6.9165    1.4816    3.0276 H         1 RES1    0.0000
     28 C13        7.1664   -0.2628    3.9898 C.ar      1 RES1    0.0000
     29 H10        8.0784   -0.3297    3.8239 H         1 RES1    0.0000
     30 C14        6.5415   -1.2449    4.7006 C.ar      1 RES1    0.0000
     31 H11        7.0172   -1.9823    5.0100 H         1 RES1    0.0000
     32 C15        5.1990   -1.1251    4.9507 C.ar      1 RES1    0.0000
     33 H12        4.7621   -1.7908    5.4312 H         1 RES1    0.0000
     34 C16        4.4834   -0.0337    4.4992 C.ar      1 RES1    0.0000
     35 H13        3.5790    0.0409    4.6993 H         1 RES1    0.0000
     36 C17        1.0865    2.3962    4.3202 C.2       1 RES1    0.0000
     37 C18        0.8727    3.7209    4.1925 C.2       1 RES1    0.0000
     38 C19       -0.3237    4.3166    4.7625 C.2       1 RES1    0.0000
     39 C20       -1.0062    2.1458    5.4917 C.ar      1 RES1    0.0000
     40 C21        0.1149    1.5325    4.9639 C.ar      1 RES1    0.0000
     41 C22        0.2139    0.1365    5.0179 C.ar      1 RES1    0.0000
     42 H14        0.9554   -0.2920    4.6545 H         1 RES1    0.0000
     43 C23       -0.7843   -0.5997    5.6063 C.ar      1 RES1    0.0000
     44 H15       -0.7227   -1.5279    5.6339 H         1 RES1    0.0000
     45 C24       -1.8826    0.0391    6.1604 C.ar      1 RES1    0.0000
     46 H16       -2.5504   -0.4650    6.5659 H         1 RES1    0.0000
     47 C25       -1.9970    1.4043    6.1196 C.ar      1 RES1    0.0000
     48 H17       -2.7292    1.8283    6.5066 H         1 RES1    0.0000
     49 O6         2.9663    0.0576    7.6861 O.2       2 RES2    0.0000
     50 O7         3.0104    2.0410    6.9384 O.2       2 RES2    0.0000
     51 O8         5.1582    3.6055   10.9835 O.2       2 RES2    0.0000
     52 O9         5.7490    1.6742   11.8654 O.3       2 RES2    0.0000
     53 O10        2.2864   -0.1120   10.5346 O.3       2 RES2    0.0000
     54 N2         2.6846    1.2213    7.7729 N.pl3     2 RES2    0.0000
     55 C26        1.8759    1.7278    8.9603 C.3       2 RES2    0.0000
     56 H18        1.1126    2.2390    8.6207 H         2 RES2    0.0000
     57 C27        2.7571    2.6668    9.7975 C.3       2 RES2    0.0000
     58 H19        3.3048    3.1990    9.1814 H         2 RES2    0.0000
     59 C28        1.9117    3.6230   10.6202 C.ar      2 RES2    0.0000
     60 C29        1.7803    4.9461   10.2358 C.ar      2 RES2    0.0000
     61 H20        2.2245    5.2511    9.4776 H         2 RES2    0.0000
     62 C30        1.0025    5.8150   10.9611 C.ar      2 RES2    0.0000
     63 H21        0.9328    6.7048   10.6978 H         2 RES2    0.0000
     64 C31        0.3265    5.3791   12.0734 C.ar      2 RES2    0.0000
     65 H22       -0.2064    5.9657   12.5578 H         2 RES2    0.0000
     66 C32        0.4439    4.0882   12.4564 C.ar      2 RES2    0.0000
     67 H23       -0.0121    3.7943   13.2120 H         2 RES2    0.0000
     68 C33        1.2265    3.2007   11.7509 C.ar      2 RES2    0.0000
     69 H24        1.2962    2.3170   12.0326 H         2 RES2    0.0000
     70 C34        1.3598    0.5731    9.7356 C.2       2 RES2    0.0000
     71 C35        0.1049    0.1785    9.6790 C.2       2 RES2    0.0000
     72 H25       -0.4317    0.6948    9.1209 H         2 RES2    0.0000
     73 C36       -0.6004   -0.9263   10.3385 C.ar      2 RES2    0.0000
     74 C37       -1.9905   -0.9622   10.2529 C.ar      2 RES2    0.0000
     75 H26       -2.4351   -0.2879    9.7909 H         2 RES2    0.0000
     76 C38       -2.7196   -1.9718   10.8374 C.ar      2 RES2    0.0000
     77 H27       -3.6485   -1.9506   10.8005 H         2 RES2    0.0000
     78 C39       -2.0933   -3.0032   11.4692 C.ar      2 RES2    0.0000
     79 H28       -2.5882   -3.6981   11.8417 H         2 RES2    0.0000
     80 C40       -0.7277   -3.0080   11.5495 C.ar      2 RES2    0.0000
     81 H29       -0.2966   -3.7129   11.9773 H         2 RES2    0.0000
     82 C41        0.0256   -1.9785   11.0058 C.ar      2 RES2    0.0000
     83 H30        0.9520   -1.9905   11.0848 H         2 RES2    0.0000
     84 C42        4.8745    2.4436   11.1480 C.2       2 RES2    0.0000
     85 C43        3.6755    1.8271   10.6307 C.2       2 RES2    0.0000
     86 C44        3.4133    0.5387   10.9242 C.2       2 RES2    0.0000
     87 C45        4.3386   -0.2631   11.6903 C.ar      2 RES2    0.0000
     88 C46        5.5106    0.3462   12.1116 C.ar      2 RES2    0.0000
     89 C47        4.1308   -1.5976   12.0352 C.ar      2 RES2    0.0000
     90 H31        3.3442   -2.0257   11.7864 H         2 RES2    0.0000
     91 C48        5.0955   -2.2841   12.7447 C.ar      2 RES2    0.0000
     92 H32        4.9544   -3.1752   12.9738 H         2 RES2    0.0000
     93 C49        6.2599   -1.6651   13.1159 C.ar      2 RES2    0.0000
     94 H33        6.9114   -2.1452   13.5740 H         2 RES2    0.0000
     95 C50        6.4707   -0.3545   12.8211 C.ar      2 RES2    0.0000
     96 H34        7.2522    0.0675   13.0949 H         2 RES2    0.0000
@<TRIPOS>BOND
     1    1    6 2
     2    2    6 2
     3    3   38 2
     4    4   38 1
     5    5   22 1
     6    6    7 1
     7    7    8 1
     8    9    7 1
     9   10    9 1
    10   11    9 1
    11   12   11 ar
    12   13   12 1
    13   14   12 ar
    14   15   14 1
    15   16   14 ar
    16   17   16 1
    17   18   16 ar
    18   19   18 1
    19   20   11 ar
    20   21   20 1
    21   22    7 1
    22   23   22 2
    23   24   23 1
    24   25   23 1
    25   26   25 ar
    26   27   26 1
    27   28   26 ar
    28   29   28 1
    29   30   28 ar
    30   31   30 1
    31   32   30 ar
    32   33   32 1
    33   34   25 ar
    34   35   34 1
    35   36    5 1
    36   37    9 1
    37   38   37 1
    38   39    4 1
    39   40   36 1
    40   41   40 ar
    41   42   41 1
    42   43   41 ar
    43   44   43 1
    44   45   43 ar
    45   46   45 1
    46   47   39 ar
    47   48   47 1
    48   49   54 2
    49   50   54 2
    50   51   84 2
    51   52   84 1
    52   53   70 1
    53   54   55 1
    54   55   56 1
    55   57   55 1
    56   58   57 1
    57   59   57 1
    58   60   59 ar
    59   61   60 1
    60   62   60 ar
    61   63   62 1
    62   64   62 ar
    63   65   64 1
    64   66   64 ar
    65   67   66 1
    66   68   59 ar
    67   69   68 1
    68   70   55 1
    69   71   70 2
    70   72   71 1
    71   73   71 1
    72   74   73 ar
    73   75   74 1
    74   76   74 ar
    75   77   76 1
    76   78   76 ar
    77   79   78 1
    78   80   78 ar
    79   81   80 1
    80   82   73 ar
    81   83   82 1
    82   84   85 1
    83   85   57 1
    84   86   53 1
    85   87   86 1
    86   88   52 1
    87   89   87 ar
    88   90   89 1
    89   91   89 ar
    90   92   91 1
    91   93   91 ar
    92   94   93 1
    93   95   88 ar
    94   96   95 1
    95   18   20 ar
    96   32   34 ar
    97   36   37 2
    98   39   40 ar
    99   45   47 ar
   100   66   68 ar
   101   80   82 ar
   102   85   86 2
   103   87   88 ar
   104   93   95 ar
@<TRIPOS>SUBSTRUCTURE
     1 RES1 1
     2 RES2 49

@<TRIPOS>CRYSIN
  11.9899   12.8443   13.7345 106.4610  90.2800  95.8460   2 1

