# MOL2 file generated by ConQuest
# Please check atom types

@<TRIPOS>MOLECULE
KABTIT
    96   104     2
SMALL
NO_CHARGES
****
Generated from CSD

@<TRIPOS>ATOM
      1 O1        -3.5919   11.9279    8.5004 O.2       1 RES1    0.0000
      2 O2        -0.4239   12.0192    4.2961 O.2       1 RES1    0.0000
      3 O3        -2.5688   12.1772    4.1025 O.2       1 RES1    0.0000
      4 O4         0.2394   10.0230    6.5216 O.3       1 RES1    0.0000
      5 O5        -1.6519   12.2221    9.4497 O.3       1 RES1    0.0000
      6 N1        -1.5483   11.5686    4.4223 N.pl3     1 RES1    0.0000
      7 C1        -1.7456   10.1949    5.0790 C.3       1 RES1    0.0000
      8 H1        -2.2168    9.6172    4.4424 H         1 RES1    0.0000
      9 C2        -2.6281   10.3591    6.3194 C.3       1 RES1    0.0000
     10 H2        -3.3315   11.0079    6.1086 H         1 RES1    0.0000
     11 C3        -1.7730   10.9352    7.4207 C.2       1 RES1    0.0000
     12 C4        -2.4220   11.7203    8.4503 C.2       1 RES1    0.0000
     13 C5        -0.2711   12.0564    9.5114 C.ar      1 RES1    0.0000
     14 C6         0.3891   12.6077   10.5166 C.ar      1 RES1    0.0000
     15 H3        -0.0807   13.0801   11.1662 H         1 RES1    0.0000
     16 C7         1.7608   12.4978   10.6213 C.ar      1 RES1    0.0000
     17 H4         2.2253   12.9298   11.3024 H         1 RES1    0.0000
     18 C8         2.4310   11.7141    9.6720 C.ar      1 RES1    0.0000
     19 H5         3.3493   11.5871    9.7508 H         1 RES1    0.0000
     20 C9         1.7574   11.1365    8.6338 C.ar      1 RES1    0.0000
     21 H6         2.2227   10.6487    7.9928 H         1 RES1    0.0000
     22 C10        0.3642   11.2821    8.5334 C.ar      1 RES1    0.0000
     23 C11       -0.4459   10.7447    7.4694 C.2       1 RES1    0.0000
     24 C12       -0.4192    9.5553    5.4017 C.2       1 RES1    0.0000
     25 C13        0.1306    8.5920    4.7077 C.2       1 RES1    0.0000
     26 H7         0.9304    8.2358    5.0217 H         1 RES1    0.0000
     27 C14       -0.4225    8.0345    3.4716 C.ar      1 RES1    0.0000
     28 C15       -0.7331    6.6903    3.3856 C.ar      1 RES1    0.0000
     29 H8        -0.5548    6.1358    4.1111 H         1 RES1    0.0000
     30 C16       -1.2970    6.1544    2.2585 C.ar      1 RES1    0.0000
     31 H9        -1.5150    5.2515    2.2269 H         1 RES1    0.0000
     32 C17       -1.5356    6.9551    1.1887 C.ar      1 RES1    0.0000
     33 H10       -1.9370    6.5896    0.4331 H         1 RES1    0.0000
     34 C18       -1.2050    8.2761    1.1859 C.ar      1 RES1    0.0000
     35 H11       -1.3696    8.8057    0.4402 H         1 RES1    0.0000
     36 C19       -0.6187    8.8150    2.3230 C.ar      1 RES1    0.0000
     37 H12       -0.3508    9.7055    2.3216 H         1 RES1    0.0000
     38 C20       -3.2889    9.0644    6.7137 C.ar      1 RES1    0.0000
     39 C21       -4.6295    8.8878    6.4184 C.ar      1 RES1    0.0000
     40 H13       -5.0989    9.5476    5.9609 H         1 RES1    0.0000
     41 C22       -5.2706    7.7170    6.8113 C.ar      1 RES1    0.0000
     42 H14       -6.1732    7.6009    6.6162 H         1 RES1    0.0000
     43 C23       -4.5965    6.7352    7.4809 C.ar      1 RES1    0.0000
     44 H15       -5.0319    5.9562    7.7448 H         1 RES1    0.0000
     45 C24       -3.2409    6.9210    7.7634 C.ar      1 RES1    0.0000
     46 H16       -2.7632    6.2644    8.2151 H         1 RES1    0.0000
     47 C25       -2.6258    8.0655    7.3748 C.ar      1 RES1    0.0000
     48 H17       -1.7224    8.1754    7.5641 H         1 RES1    0.0000
     49 O6         4.8350    9.1666    3.0744 O.2       2 RES2    0.0000
     50 O7         2.7355    9.3555    2.8908 O.2       2 RES2    0.0000
     51 O8         2.0323   11.2790    0.6381 O.3       2 RES2    0.0000
     52 O9         5.9254    9.3741   -1.3221 O.2       2 RES2    0.0000
     53 O10        3.9414    9.1015   -2.2943 O.3       2 RES2    0.0000
     54 N2         3.8543    9.7675    2.7274 N.pl3     2 RES2    0.0000
     55 C26        4.0361   11.1349    2.0964 C.3       2 RES2    0.0000
     56 H18        4.5124   11.7095    2.7317 H         2 RES2    0.0000
     57 C27        4.9250   10.9414    0.8389 C.3       2 RES2    0.0000
     58 H19        5.6142   10.2785    1.0540 H         2 RES2    0.0000
     59 C28        4.0631   10.3776   -0.2409 C.2       2 RES2    0.0000
     60 C29        4.7276    9.6234   -1.2762 C.2       2 RES2    0.0000
     61 C30        2.5951    9.3137   -2.3001 C.ar      2 RES2    0.0000
     62 C31        1.8757    8.6695   -3.3583 C.ar      2 RES2    0.0000
     63 H20        2.3066    8.1290   -3.9806 H         2 RES2    0.0000
     64 C32        0.5375    8.8816   -3.4099 C.ar      2 RES2    0.0000
     65 H21        0.0716    8.5316   -4.1355 H         2 RES2    0.0000
     66 C33       -0.1661    9.5692   -2.4764 C.ar      2 RES2    0.0000
     67 H22       -1.0935    9.6250   -2.5209 H         2 RES2    0.0000
     68 C34        0.5413   10.1872   -1.4526 C.ar      2 RES2    0.0000
     69 H23        0.0875   10.7122   -0.8331 H         2 RES2    0.0000
     70 C35        1.9112   10.0307   -1.3422 C.ar      2 RES2    0.0000
     71 C36        2.7323   10.5743   -0.2811 C.2       2 RES2    0.0000
     72 C37        2.7349   11.7498    1.7924 C.2       2 RES2    0.0000
     73 C38        2.1526   12.7440    2.4678 C.2       2 RES2    0.0000
     74 H24        1.3660   13.1064    2.1294 H         2 RES2    0.0000
     75 C39        2.7012   13.3000    3.7383 C.ar      2 RES2    0.0000
     76 C40        3.0567   14.6241    3.8100 C.ar      2 RES2    0.0000
     77 H25        2.9054   15.1956    3.0916 H         2 RES2    0.0000
     78 C41        3.6536   15.0964    4.9916 C.ar      2 RES2    0.0000
     79 H26        3.9015   15.9916    5.0446 H         2 RES2    0.0000
     80 C42        3.8803   14.2834    6.0584 C.ar      2 RES2    0.0000
     81 H27        4.2849   14.6102    6.8299 H         2 RES2    0.0000
     82 C43        3.4959   12.9701    5.9652 C.ar      2 RES2    0.0000
     83 H28        3.6216   12.4048    6.6922 H         2 RES2    0.0000
     84 C44        2.9283   12.4776    4.8152 C.ar      2 RES2    0.0000
     85 H29        2.6951   11.5794    4.7650 H         2 RES2    0.0000
     86 C45        5.6270   12.2453    0.4474 C.ar      2 RES2    0.0000
     87 C46        4.9304   13.2535   -0.2294 C.ar      2 RES2    0.0000
     88 H30        4.0311   13.1451   -0.4402 H         2 RES2    0.0000
     89 C47        5.6088   14.4305   -0.5865 C.ar      2 RES2    0.0000
     90 H31        5.1440   15.1088   -1.0210 H         2 RES2    0.0000
     91 C48        6.9030   14.5978   -0.3155 C.ar      2 RES2    0.0000
     92 H32        7.3383   15.3721   -0.5937 H         2 RES2    0.0000
     93 C49        7.5877   13.6422    0.3671 C.ar      2 RES2    0.0000
     94 H33        8.4820   13.7739    0.5851 H         2 RES2    0.0000
     95 C50        6.9511   12.4714    0.7342 C.ar      2 RES2    0.0000
     96 H34        7.4324   11.8194    1.1887 H         2 RES2    0.0000
@<TRIPOS>BOND
     1    1   12 2
     2    2    6 2
     3    3    6 2
     4    4   23 1
     5    5   12 1
     6    6    7 1
     7    7    8 1
     8    9    7 1
     9   10    9 1
    10   11    9 1
    11   12   11 1
    12   13    5 1
    13   14   13 ar
    14   15   14 1
    15   16   14 ar
    16   17   16 1
    17   18   16 ar
    18   19   18 1
    19   20   18 ar
    20   21   20 1
    21   22   13 ar
    22   23   11 2
    23   24    4 1
    24   25   24 2
    25   26   25 1
    26   27   25 1
    27   28   27 ar
    28   29   28 1
    29   30   28 ar
    30   31   30 1
    31   32   30 ar
    32   33   32 1
    33   34   32 ar
    34   35   34 1
    35   36   27 ar
    36   37   36 1
    37   38    9 1
    38   39   38 ar
    39   40   39 1
    40   41   39 ar
    41   42   41 1
    42   43   41 ar
    43   44   43 1
    44   45   43 ar
    45   46   45 1
    46   47   38 ar
    47   48   47 1
    48   49   54 2
    49   50   54 2
    50   51   71 1
    51   52   60 2
    52   53   60 1
    53   54   55 1
    54   55   56 1
    55   57   55 1
    56   58   57 1
    57   59   57 1
    58   60   59 1
    59   61   53 1
    60   62   61 ar
    61   63   62 1
    62   64   62 ar
    63   65   64 1
    64   66   64 ar
    65   67   66 1
    66   68   66 ar
    67   69   68 1
    68   70   61 ar
    69   71   59 2
    70   72   51 1
    71   73   72 2
    72   74   73 1
    73   75   73 1
    74   76   75 ar
    75   77   76 1
    76   78   76 ar
    77   79   78 1
    78   80   78 ar
    79   81   80 1
    80   82   80 ar
    81   83   82 1
    82   84   75 ar
    83   85   84 1
    84   86   57 1
    85   87   86 ar
    86   88   87 1
    87   89   87 ar
    88   90   89 1
    89   91   89 ar
    90   92   91 1
    91   93   91 ar
    92   94   93 1
    93   95   86 ar
    94   96   95 1
    95    7   24 1
    96   20   22 ar
    97   22   23 1
    98   34   36 ar
    99   45   47 ar
   100   55   72 1
   101   68   70 ar
   102   70   71 1
   103   82   84 ar
   104   93   95 ar
@<TRIPOS>SUBSTRUCTURE
     1 RES1 1
     2 RES2 49

@<TRIPOS>CRYSIN
   9.1585   15.4867   15.0435  90.0000 107.5980  90.0000   4 1

