# MOL2 file generated by ConQuest
# Please check atom types

@<TRIPOS>MOLECULE
KABXAM
    57    56     3
SMALL
NO_CHARGES
****
Generated from CSD

@<TRIPOS>ATOM
      1 O1        10.8149   -0.0898    7.5877 O.3       1 RES1    0.0000
      2 C1        11.4314    0.9848    8.1092 C.2       1 RES1    0.0000
      3 N1        10.8442   -1.2374    8.4777 N.2       1 RES1    0.0000
      4 C2        12.2254    1.8169    7.1190 C.3       1 RES1    0.0000
      5 C3        12.4234    3.2508    7.4810 C.3       1 RES1    0.0000
      6 N2        11.4291    1.7203    5.7743 N.pl3     1 RES1    0.0000
      7 O2        11.8565    1.0027    4.9047 O.2       1 RES1    0.0000
      8 O3        10.4135    2.3502    5.7624 O.2       1 RES1    0.0000
      9 N3        13.5514    1.1083    6.8550 N.pl3     1 RES1    0.0000
     10 O4        14.3394    1.6900    6.1535 O.2       1 RES1    0.0000
     11 O5        13.7295    0.0528    7.3894 O.2       1 RES1    0.0000
     12 O6        10.6562    0.4065   10.1176 O.3       1 RES1    0.0000
     13 C4        10.7518   -0.8523    9.6834 C.2       1 RES1    0.0000
     14 N4        11.4275    1.3520    9.3181 N.2       1 RES1    0.0000
     15 C5        10.7985   -1.9190   10.7523 C.3       1 RES1    0.0000
     16 C6        10.5597   -3.3328   10.2889 C.3       1 RES1    0.0000
     17 N5        12.1626   -1.8270   11.4354 N.pl3     1 RES1    0.0000
     18 O7        12.3168   -2.5467   12.4051 O.2       1 RES1    0.0000
     19 O8        12.9951   -1.1285   10.9473 O.2       1 RES1    0.0000
     20 N6         9.7879   -1.5193   11.8437 N.pl3     1 RES1    0.0000
     21 O9         8.7039   -1.9875   11.7532 O.2       1 RES1    0.0000
     22 O10       10.1613   -0.7344   12.6842 O.2       1 RES1    0.0000
     23 H1        11.4400    3.7078    7.5338 H         1 RES1    0.0000
     24 H2        12.9138    3.6438    6.9649 H         1 RES1    0.0000
     25 H3        13.0512    3.1980    8.2245 H         1 RES1    0.0000
     26 H4         9.6177   -3.3339    9.9118 H         1 RES1    0.0000
     27 H5        10.7002   -4.0660   11.0227 H         1 RES1    0.0000
     28 H6        11.3793   -3.5091    9.7523 H         1 RES1    0.0000
     29 O11        7.8148   -0.4682    6.3669 O.3       2 RES2    0.0000
     30 C7         6.4686   -0.6569    6.3960 C.2       2 RES2    0.0000
     31 N7         8.2283   -0.0090    5.0254 N.2       2 RES2    0.0000
     32 C8         5.9599   -1.4923    7.5133 C.3       2 RES2    0.0000
     33 C9         4.8418   -0.8433    8.2633 C.3       2 RES2    0.0000
     34 N8         5.5437   -2.8701    7.0155 N.pl3     2 RES2    0.0000
     35 O12        6.0757   -3.2328    5.9930 O.2       2 RES2    0.0000
     36 O13        4.7267   -3.4664    7.6739 O.2       2 RES2    0.0000
     37 N9         7.1380   -1.7787    8.4691 N.pl3     2 RES2    0.0000
     38 O14        7.5116   -2.8836    8.5994 O.2       2 RES2    0.0000
     39 O15        7.5437   -0.8242    9.0832 O.2       2 RES2    0.0000
     40 H7         5.2562    0.0831    8.4723 H         2 RES2    0.0000
     41 H8         4.6239   -1.4935    8.8559 H         2 RES2    0.0000
     42 H9         4.0770   -0.5412    7.7073 H         2 RES2    0.0000
     43 O16        7.5544   -1.1712    5.7656 Du        3 SUP3    0.0000
     44 N7B        5.5543    0.0090    5.7495 N.2       2 RES2    0.0000
     45 C7B        7.3141    0.6569    4.3789 C.2       2 RES2    0.0000
     46 O11B       5.9679    0.4682    4.4080 O.3       2 RES2    0.0000
     47 C8B        7.8228    1.4923    3.2616 C.3       2 RES2    0.0000
     48 C9B        8.9409    0.8433    2.5116 C.3       2 RES2    0.0000
     49 N8B        8.2389    2.8701    3.7594 N.pl3     2 RES2    0.0000
     50 N9B        6.6447    1.7787    2.3058 N.pl3     2 RES2    0.0000
     51 H7B        8.5264   -0.0831    2.3026 H         2 RES2    0.0000
     52 H8B        9.1587    1.4935    1.9190 H         2 RES2    0.0000
     53 H9B        9.7057    0.5412    3.0676 H         2 RES2    0.0000
     54 O12B       7.7070    3.2328    4.7819 O.2       2 RES2    0.0000
     55 O13B       9.0560    3.4664    3.1010 O.2       2 RES2    0.0000
     56 O14B       6.2711    2.8836    2.1754 O.2       2 RES2    0.0000
     57 O15B       6.2390    0.8242    1.6917 O.2       2 RES2    0.0000
@<TRIPOS>BOND
     1    1    2 1
     2    2    4 1
     3    3    1 1
     4    4    5 1
     5    5   23 1
     6    6    4 1
     7    7    6 2
     8    8    6 2
     9    9    4 1
    10   10    9 2
    11   11    9 2
    12   12   13 1
    13   13    3 2
    14   14    2 2
    15   15   13 1
    16   16   15 1
    17   17   15 1
    18   18   17 2
    19   19   17 2
    20   20   15 1
    21   21   20 2
    22   22   20 2
    23   24    5 1
    24   25    5 1
    25   26   16 1
    26   27   16 1
    27   28   16 1
    28   29   30 1
    29   30   32 1
    30   31   29 1
    31   32   33 1
    32   33   40 1
    33   34   32 1
    34   35   34 2
    35   36   34 2
    36   37   32 1
    37   38   37 2
    38   39   37 2
    39   41   33 1
    40   42   33 1
    41   44   30 2
    42   45   31 2
    43   46   44 1
    44   47   45 1
    45   48   47 1
    46   49   47 1
    47   50   47 1
    48   51   48 1
    49   52   48 1
    50   53   48 1
    51   54   49 2
    52   55   49 2
    53   56   50 2
    54   57   50 2
    55   12   14 1
    56   45   46 1
@<TRIPOS>SUBSTRUCTURE
     1 RES1 1
     2 RES2 29
     3 SUP3 43

@<TRIPOS>CRYSIN
  15.3200   11.2290   10.8840  90.0000  98.1200  90.0000  14 1

