# MOL2 file generated by ConQuest
# Please check atom types

@<TRIPOS>MOLECULE
KACNEJ
    31    33     1
SMALL
NO_CHARGES
****
Generated from CSD

@<TRIPOS>ATOM
      1 O1         3.3910   10.1253   17.0900 O.2       1 RES1    0.0000
      2 O2         4.3958    8.2627   17.4802 O.2       1 RES1    0.0000
      3 O3         8.2525    8.9823   11.8161 O.3       1 RES1    0.0000
      4 O4        11.2740    8.5084    8.1753 O.3       1 RES1    0.0000
      5 N1         4.2089    9.2614   16.8048 N.pl3     1 RES1    0.0000
      6 C1         4.9947    9.4257   15.5788 C.ar      1 RES1    0.0000
      7 C2         5.8787    8.4374   15.2255 C.ar      1 RES1    0.0000
      8 H1         5.9700    7.6752   15.7508 H         1 RES1    0.0000
      9 C3         6.6319    8.5914   14.0766 C.ar      1 RES1    0.0000
     10 H2         7.2413    7.9329   13.8309 H         1 RES1    0.0000
     11 C4         6.4821    9.7280   13.2849 C.ar      1 RES1    0.0000
     12 C5         5.5675   10.7048   13.6749 C.ar      1 RES1    0.0000
     13 H3         5.4606   11.4670   13.1527 H         1 RES1    0.0000
     14 C6         4.8192   10.5579   14.8231 C.ar      1 RES1    0.0000
     15 H4         4.2090   11.2115   15.0805 H         1 RES1    0.0000
     16 C7         7.2566    9.9183   12.0671 C.2       1 RES1    0.0000
     17 C8         7.1936   10.8313   11.0877 C.2       1 RES1    0.0000
     18 H5         6.6063   11.5510   11.0431 H         1 RES1    0.0000
     19 C9         8.1978   10.4946   10.1235 C.ar      1 RES1    0.0000
     20 C10        8.8158    9.3515   10.6185 C.ar      1 RES1    0.0000
     21 C11        9.8465    8.6950    9.9945 C.ar      1 RES1    0.0000
     22 H6        10.2432    7.9416   10.3689 H         1 RES1    0.0000
     23 C12       10.2664    9.2103    8.7815 C.ar      1 RES1    0.0000
     24 C13        9.6761   10.3555    8.2424 C.ar      1 RES1    0.0000
     25 H7         9.9771   10.6885    7.4283 H         1 RES1    0.0000
     26 C14        8.6537   10.9959    8.9048 C.ar      1 RES1    0.0000
     27 H8         8.2677   11.7596    8.5411 H         1 RES1    0.0000
     28 C15       11.7947    9.0019    6.9489 C.3       1 RES1    0.0000
     29 H9        12.4883    8.4154    6.6369 H         1 RES1    0.0000
     30 H10       12.1565    9.8806    7.0860 H         1 RES1    0.0000
     31 H11       11.0921    9.0421    6.2958 H         1 RES1    0.0000
@<TRIPOS>BOND
     1    1    5 2
     2    2    5 2
     3    3   16 1
     4    4   23 1
     5    5    6 1
     6    6    7 ar
     7    7    8 1
     8    9    7 ar
     9   10    9 1
    10   11    9 ar
    11   12   11 ar
    12   13   12 1
    13   14    6 ar
    14   15   14 1
    15   16   11 1
    16   17   16 2
    17   18   17 1
    18   19   17 1
    19   20    3 1
    20   21   20 ar
    21   22   21 1
    22   23   21 ar
    23   24   23 ar
    24   25   24 1
    25   26   19 ar
    26   27   26 1
    27   28    4 1
    28   29   28 1
    29   30   28 1
    30   31   28 1
    31   12   14 ar
    32   19   20 ar
    33   24   26 ar
@<TRIPOS>SUBSTRUCTURE
     1 RES1 1

@<TRIPOS>CRYSIN
   8.7018   10.9178   13.1787  90.0000  92.2570  90.0000  14 1

