# MOL2 file generated by ConQuest
# Please check atom types

@<TRIPOS>MOLECULE
KACNAF
    31    33     1
SMALL
NO_CHARGES
****
Generated from CSD

@<TRIPOS>ATOM
      1 O1         5.2303   10.7042   -2.6002 O.2       1 RES1    0.0000
      2 O2         3.1768   10.3651   -3.2060 O.2       1 RES1    0.0000
      3 O3         2.8596    4.6763    0.6669 O.3       1 RES1    0.0000
      4 O4         0.9571    2.6741    1.1246 O.3       1 RES1    0.0000
      5 N1         4.1903   10.0503   -2.5844 N.pl3     1 RES1    0.0000
      6 C1         4.1462    8.8394   -1.7573 C.ar      1 RES1    0.0000
      7 C2         2.9947    8.0772   -1.7412 C.ar      1 RES1    0.0000
      8 H1         2.2777    8.3309   -2.2722 H         1 RES1    0.0000
      9 C3         2.9546    6.9480   -0.9407 C.ar      1 RES1    0.0000
     10 H2         2.1420    6.3813   -0.9290 H         1 RES1    0.0000
     11 C4         4.0555    6.6023   -0.1405 C.ar      1 RES1    0.0000
     12 C5         5.2054    7.3942   -0.1873 C.ar      1 RES1    0.0000
     13 H3         5.9448    7.1321    0.3654 H         1 RES1    0.0000
     14 C6         5.2606    8.5107   -1.0016 C.ar      1 RES1    0.0000
     15 H4         6.0591    9.0332   -1.0651 H         1 RES1    0.0000
     16 C7         4.0150    5.4405    0.7283 C.2       1 RES1    0.0000
     17 C8         4.8940    4.9253    1.6278 C.2       1 RES1    0.0000
     18 H5         5.7774    5.3097    1.8506 H         1 RES1    0.0000
     19 C9         4.2922    3.7459    2.1761 C.ar      1 RES1    0.0000
     20 C10        3.0461    3.6502    1.5564 C.ar      1 RES1    0.0000
     21 C11        2.1316    2.6343    1.8141 C.ar      1 RES1    0.0000
     22 C12        2.5089    1.6855    2.7505 C.ar      1 RES1    0.0000
     23 H6         1.9240    0.9445    2.9794 H         1 RES1    0.0000
     24 C13        3.7691    1.7612    3.3792 C.ar      1 RES1    0.0000
     25 H7         3.9981    1.1092    4.0016 H         1 RES1    0.0000
     26 C14        4.6719    2.7620    3.1070 C.ar      1 RES1    0.0000
     27 H8         5.5139    2.8153    3.5045 H         1 RES1    0.0000
     28 C15        0.0416    1.6008    1.3635 C.3       1 RES1    0.0000
     29 H9         0.4927    0.7447    1.1613 H         1 RES1    0.0000
     30 H10       -0.2548    1.6407    2.3403 H         1 RES1    0.0000
     31 H11       -0.6927    1.7679    0.7796 H         1 RES1    0.0000
@<TRIPOS>BOND
     1    1    5 2
     2    2    5 2
     3    3   16 1
     4    4   21 1
     5    5    6 1
     6    6    7 ar
     7    7    8 1
     8    9    7 ar
     9   10    9 1
    10   11    9 ar
    11   12   11 ar
    12   13   12 1
    13   14    6 ar
    14   15   14 1
    15   16   11 1
    16   17   16 2
    17   18   17 1
    18   19   17 1
    19   20    3 1
    20   21   20 ar
    21   22   21 ar
    22   23   22 1
    23   24   22 ar
    24   25   24 1
    25   26   19 ar
    26   27   26 1
    27   28    4 1
    28   29   28 1
    29   30   28 1
    30   31   28 1
    31   12   14 ar
    32   19   20 ar
    33   24   26 ar
@<TRIPOS>SUBSTRUCTURE
     1 RES1 1

@<TRIPOS>CRYSIN
  13.3227    6.0544   15.7423  90.0000 109.9970  90.0000 231 1

