# MOL2 file generated by ConQuest
# Please check atom types

@<TRIPOS>MOLECULE
KADDUQ
    29    30     1
SMALL
NO_CHARGES
****
Generated from CSD

@<TRIPOS>ATOM
      1 O1         4.8479    5.1104   13.3328 O.2       1 RES1    0.0000
      2 O2         1.4580    8.5110    8.6579 O.2       1 RES1    0.0000
      3 O3         0.9800    7.7502    6.6860 O.2       1 RES1    0.0000
      4 N1         7.1942    7.7887   15.5157 N.ar      1 RES1    0.0000
      5 N2         5.8341    8.5173   13.1622 N.ar      1 RES1    0.0000
      6 N3         4.0425    6.8263   12.0612 N.am      1 RES1    0.0000
      7 H1         4.0806    7.6877   11.8879 H         1 RES1    0.0000
      8 N4         3.1888    6.0165   11.3505 N.2       1 RES1    0.0000
      9 N5         1.1531    7.5918    7.8888 N.pl3     1 RES1    0.0000
     10 C1         5.7044    7.3021   13.7152 C.ar      1 RES1    0.0000
     11 C2         6.3790    6.9419   14.8761 C.ar      1 RES1    0.0000
     12 H2         6.2581    6.0666   15.2253 H         1 RES1    0.0000
     13 C3         7.3309    8.9929   14.9584 C.ar      1 RES1    0.0000
     14 H3         7.9033    9.6275   15.3720 H         1 RES1    0.0000
     15 C4         6.6637    9.3523   13.7906 C.ar      1 RES1    0.0000
     16 H4         6.8033   10.2200   13.4293 H         1 RES1    0.0000
     17 C5         4.8248    6.2938   13.0304 C.2       1 RES1    0.0000
     18 C6         2.5405    6.5988   10.4144 C.2       1 RES1    0.0000
     19 H5         2.6730    7.5217   10.2344 H         1 RES1    0.0000
     20 C7         1.5816    5.8057    9.6184 C.ar      1 RES1    0.0000
     21 C8         0.9491    6.2412    8.4408 C.ar      1 RES1    0.0000
     22 C9         0.0876    5.4282    7.7090 C.ar      1 RES1    0.0000
     23 H6        -0.3172    5.7552    6.9132 H         1 RES1    0.0000
     24 C10       -0.1755    4.1420    8.1454 C.ar      1 RES1    0.0000
     25 H7        -0.7709    3.5840    7.6585 H         1 RES1    0.0000
     26 C11        0.4386    3.6742    9.3008 C.ar      1 RES1    0.0000
     27 H8         0.2722    2.7867    9.5970 H         1 RES1    0.0000
     28 C12        1.2913    4.4926   10.0234 C.ar      1 RES1    0.0000
     29 H9         1.6916    4.1559   10.8168 H         1 RES1    0.0000
@<TRIPOS>BOND
     1    1   17 2
     2    2    9 2
     3    3    9 2
     4    4   11 ar
     5    5   10 ar
     6    6    7 1
     7    8    6 1
     8    9   21 1
     9   10   11 ar
    10   11   12 1
    11   13    4 ar
    12   14   13 1
    13   15    5 ar
    14   16   15 1
    15   17    6 1
    16   18    8 2
    17   19   18 1
    18   20   18 1
    19   21   20 ar
    20   22   21 ar
    21   23   22 1
    22   24   22 ar
    23   25   24 1
    24   26   24 ar
    25   27   26 1
    26   28   20 ar
    27   29   28 1
    28   10   17 1
    29   13   15 ar
    30   26   28 ar
@<TRIPOS>SUBSTRUCTURE
     1 RES1 1

@<TRIPOS>CRYSIN
   9.3190   12.1162   20.3639  90.0000  90.5667  90.0000  15 1

