# MOL2 file generated by ConQuest
# Please check atom types

@<TRIPOS>MOLECULE
KADZIY
    58    60     2
SMALL
NO_CHARGES
****
Generated from CSD

@<TRIPOS>ATOM
      1 C1        20.5435    1.8403    4.2238 C.ar      1 RES1    0.0000
      2 C2        20.2623    0.6658    3.5208 C.ar      1 RES1    0.0000
      3 C3        18.9661    0.4400    3.0556 C.ar      1 RES1    0.0000
      4 C4        17.9655    1.3211    3.3443 C.ar      1 RES1    0.0000
      5 C5        18.2077    2.4537    4.0845 C.ar      1 RES1    0.0000
      6 C6        19.4865    2.7098    4.5097 C.ar      1 RES1    0.0000
      7 C7        21.9033    2.2582    4.6847 C.2       1 RES1    0.0000
      8 C8        24.2645    1.5085    4.9035 C.ar      1 RES1    0.0000
      9 C9        24.7574    2.5387    5.6918 C.ar      1 RES1    0.0000
     10 C10       26.1019    2.5701    6.0039 C.ar      1 RES1    0.0000
     11 C11       26.9207    1.5970    5.5452 C.ar      1 RES1    0.0000
     12 C12       26.4642    0.5564    4.7729 C.ar      1 RES1    0.0000
     13 C13       25.1301    0.5273    4.4455 C.ar      1 RES1    0.0000
     14 N1        22.9061    1.3607    4.5615 N.am      1 RES1    0.0000
     15 N2        28.3612    1.6401    5.8763 N.pl3     1 RES1    0.0000
     16 O1        22.1001    3.3814    5.1572 O.2       1 RES1    0.0000
     17 O2        21.2522   -0.2351    3.2882 O.3       1 RES1    0.0000
     18 O3        28.7492    2.5294    6.6136 O.2       1 RES1    0.0000
     19 O4        29.0756    0.7904    5.4169 O.2       1 RES1    0.0000
     20 C14       20.4865    4.4535    7.8766 C.ar      2 RES2    0.0000
     21 C15       20.2128    5.6384    7.1641 C.ar      2 RES2    0.0000
     22 C16       18.9251    5.8701    6.6960 C.ar      2 RES2    0.0000
     23 C17       17.9070    4.9889    6.9629 C.ar      2 RES2    0.0000
     24 C18       18.1551    3.8552    7.7023 C.ar      2 RES2    0.0000
     25 C19       19.4290    3.5921    8.1384 C.ar      2 RES2    0.0000
     26 C20       21.8415    4.0251    8.3331 C.2       2 RES2    0.0000
     27 C21       24.2023    4.7631    8.5636 C.ar      2 RES2    0.0000
     28 C22       25.0837    5.7374    8.1340 C.ar      2 RES2    0.0000
     29 C23       26.4147    5.6943    8.4666 C.ar      2 RES2    0.0000
     30 C24       26.8550    4.6537    9.2425 C.ar      2 RES2    0.0000
     31 C25       26.0192    3.6678    9.6706 C.ar      2 RES2    0.0000
     32 C26       24.6831    3.7167    9.3446 C.ar      2 RES2    0.0000
     33 N3        22.8494    4.9179    8.2164 N.am      2 RES2    0.0000
     34 N4        28.2892    4.5827    9.5962 N.pl3     2 RES2    0.0000
     35 O5        22.0233    2.9053    8.8101 O.2       2 RES2    0.0000
     36 O6        21.2054    6.5370    6.9519 O.3       2 RES2    0.0000
     37 O7        29.0086    5.4696    9.2250 O.2       2 RES2    0.0000
     38 O8        28.6621    3.6259   10.2656 O.2       2 RES2    0.0000
     39 H1        20.8550    7.3565    6.5341 H         2 RES2    0.0000
     40 H2        20.9142   -1.0476    2.9753 H         1 RES1    0.0000
     41 H3        22.6460    5.6803    7.8394 H         2 RES2    0.0000
     42 H4        22.6518    0.5704    4.2442 H         1 RES1    0.0000
     43 H5        18.8288   -0.3143    2.5742 H         1 RES1    0.0000
     44 H6        17.1334    1.1407    3.0118 H         1 RES1    0.0000
     45 H7        17.5775    3.0497    4.3026 H         1 RES1    0.0000
     46 H8        19.7051    3.5386    4.9735 H         1 RES1    0.0000
     47 H9        24.2108    3.2243    5.9871 H         1 RES1    0.0000
     48 H10       26.3823    3.2592    6.5341 H         1 RES1    0.0000
     49 H11       26.9929   -0.2095    4.5505 H         1 RES1    0.0000
     50 H12       24.7333   -0.2212    4.0182 H         1 RES1    0.0000
     51 H13       18.7633    6.7279    6.1840 H         2 RES2    0.0000
     52 H14       17.0849    5.2962    6.6216 H         2 RES2    0.0000
     53 H15       17.5271    3.2941    7.8321 H         2 RES2    0.0000
     54 H16       19.5374    2.7354    8.5833 H         2 RES2    0.0000
     55 H17       24.7160    6.4369    7.6206 H         2 RES2    0.0000
     56 H18       26.9643    6.3787    8.1530 H         2 RES2    0.0000
     57 H19       26.2595    2.9682   10.1949 H         2 RES2    0.0000
     58 H20       24.0620    3.0846    9.6771 H         2 RES2    0.0000
@<TRIPOS>BOND
     1    1    2 ar
     2    2    3 ar
     3    3    4 ar
     4    4    5 ar
     5    5    6 ar
     6    6    1 ar
     7    7    1 1
     8    8    9 ar
     9    9   10 ar
    10   10   11 ar
    11   11   12 ar
    12   12   13 ar
    13   13    8 ar
    14   14    7 1
    15   15   11 1
    16   16    7 2
    17   17    2 1
    18   18   15 2
    19   19   15 2
    20   20   21 ar
    21   21   22 ar
    22   22   23 ar
    23   23   24 ar
    24   24   25 ar
    25   25   20 ar
    26   26   20 1
    27   27   28 ar
    28   28   29 ar
    29   29   30 ar
    30   30   31 ar
    31   31   32 ar
    32   32   27 ar
    33   33   26 1
    34   34   30 1
    35   35   26 2
    36   36   21 1
    37   37   34 2
    38   38   34 2
    39   39   36 1
    40   40   17 1
    41   41   33 1
    42   42   14 1
    43   43    3 1
    44   44    4 1
    45   45    5 1
    46   46    6 1
    47   47    9 1
    48   48   10 1
    49   49   12 1
    50   50   13 1
    51   51   22 1
    52   52   23 1
    53   53   24 1
    54   54   25 1
    55   55   28 1
    56   56   29 1
    57   57   31 1
    58   58   32 1
    59    8   14 1
    60   27   33 1
@<TRIPOS>SUBSTRUCTURE
     1 RES1 1
     2 RES2 20

@<TRIPOS>CRYSIN
  28.3600   11.6400    7.2930  90.0000  90.6800  90.0000  14 2

