# MOL2 file generated by ConQuest
# Please check atom types

@<TRIPOS>MOLECULE
KAFQOX
    36    36     3
SMALL
NO_CHARGES
****
Generated from CSD

@<TRIPOS>ATOM
      1 N1         7.0482    0.3107   24.1949 N.pl3     1 RES1    0.0000
      2 N2         6.0254    0.5038   20.1653 N.pl3     1 RES1    0.0000
      3 O1         7.3687    0.2553   25.4332 O.2       1 RES1    0.0000
      4 O2         5.0377    1.1264   19.8506 O.2       1 RES1    0.0000
      5 O3         6.7399   -0.0692   19.3421 O.2       1 RES1    0.0000
      6 C1         7.8861   -0.2379   23.2576 C.ar      1 RES1    0.0000
      7 C2         7.5563   -0.1793   21.9467 C.ar      1 RES1    0.0000
      8 C3         6.3652    0.4385   21.5731 C.ar      1 RES1    0.0000
      9 C4         5.5277    0.9911   22.5001 C.ar      1 RES1    0.0000
     10 C5         5.8631    0.9246   23.8456 C.ar      1 RES1    0.0000
     11 C6         5.0535    1.4989   24.9490 C.3       1 RES1    0.0000
     12 C7         9.1249   -0.8680   23.7660 C.3       1 RES1    0.0000
     13 N3         8.0133    1.8945   30.2584 N.pl3     2 RES2    0.0000
     14 N4         4.5870   -0.2336   29.1377 N.pl3     2 RES2    0.0000
     15 O4         9.0682    2.5588   30.5939 O.2       2 RES2    0.0000
     16 O5         4.4158   -0.4680   27.9651 O.2       2 RES2    0.0000
     17 O6         3.8323   -0.6171   30.0163 O.2       2 RES2    0.0000
     18 C8         7.8205    1.5799   28.9302 C.ar      2 RES2    0.0000
     19 C9         6.6912    0.8830   28.5774 C.ar      2 RES2    0.0000
     20 C10        5.7824    0.5357   29.5355 C.ar      2 RES2    0.0000
     21 C11        5.9705    0.8499   30.8498 C.ar      2 RES2    0.0000
     22 C12        7.1059    1.5445   31.2269 C.ar      2 RES2    0.0000
     23 C13        7.4416    1.9240   32.6070 C.3       2 RES2    0.0000
     24 C14        8.8758    1.9818   27.9824 C.3       2 RES2    0.0000
     25 N5         1.4253   -1.2350   37.3353 N.pl3     3 RES3    0.0000
     26 N6         4.2454   -0.4432   34.3710 N.pl3     3 RES3    0.0000
     27 O7         0.5422   -1.4497   38.2415 O.2       3 RES3    0.0000
     28 O8         4.0777   -0.8963   33.2814 O.2       3 RES3    0.0000
     29 O9         5.2261    0.2356   34.6823 O.2       3 RES3    0.0000
     30 C15        2.5978   -0.6041   37.6846 C.ar      3 RES3    0.0000
     31 C16        3.5444   -0.3500   36.7230 C.ar      3 RES3    0.0000
     32 C17        3.2915   -0.7280   35.4156 C.ar      3 RES3    0.0000
     33 C18        2.1005   -1.3679   35.0801 C.ar      3 RES3    0.0000
     34 C19        1.1715   -1.6117   36.0486 C.ar      3 RES3    0.0000
     35 C20       -0.1320   -2.2556   35.7822 C.3       3 RES3    0.0000
     36 C21        2.7612   -0.2372   39.1097 C.3       3 RES3    0.0000
@<TRIPOS>BOND
     1    1    3 1
     2    2    4 2
     3    5    2 2
     4    6    1 ar
     5    7    6 ar
     6    8    2 1
     7    9    8 ar
     8   10    1 ar
     9   11   10 1
    10   12    6 1
    11   13   15 1
    12   14   16 2
    13   17   14 2
    14   18   13 ar
    15   19   18 ar
    16   20   14 1
    17   21   20 ar
    18   22   13 ar
    19   23   22 1
    20   24   18 1
    21   25   27 1
    22   26   28 2
    23   29   26 2
    24   30   25 ar
    25   31   30 ar
    26   32   26 1
    27   33   32 ar
    28   34   25 ar
    29   35   34 1
    30   36   30 1
    31    7    8 ar
    32    9   10 ar
    33   19   20 ar
    34   21   22 ar
    35   31   32 ar
    36   33   34 ar
@<TRIPOS>SUBSTRUCTURE
     1 RES1 1
     2 RES2 13
     3 RES3 25

