# MOL2 file generated by ConQuest
# Please check atom types

@<TRIPOS>MOLECULE
KAFXEU
    19    19     1
SMALL
NO_CHARGES
****
Generated from CSD

@<TRIPOS>ATOM
      1 O1        13.2434    0.7954    1.3416 O.3       1 RES1    0.0000
      2 O2         8.3978   -3.1337   -2.9820 O.3       1 RES1    0.0000
      3 N1        12.4742   -0.0154    0.4628 N.2       1 RES1    0.0000
      4 C1        11.2202    0.0009    0.7175 C.2       1 RES1    0.0000
      5 C2        10.5853    0.8125    1.7938 C.3       1 RES1    0.0000
      6 C3        10.4234   -0.8827   -0.1694 C.ar      1 RES1    0.0000
      7 C4         9.2078   -0.4623   -0.6868 C.ar      1 RES1    0.0000
      8 C5         8.5179   -1.2149   -1.6324 C.ar      1 RES1    0.0000
      9 C6         9.0838   -2.4376   -2.0218 C.ar      1 RES1    0.0000
     10 C7        10.2749   -2.9393   -1.4510 C.ar      1 RES1    0.0000
     11 C8        10.9197   -2.1140   -0.5308 C.ar      1 RES1    0.0000
     12 C9         7.1763   -0.7286   -2.2125 C.3       1 RES1    0.0000
     13 C10        6.7466    0.6113   -1.5830 C.3       1 RES1    0.0000
     14 C11        7.3018   -0.4778   -3.7142 C.3       1 RES1    0.0000
     15 C12        6.0734   -1.7381   -1.9111 C.3       1 RES1    0.0000
     16 C13       10.8710   -4.3093   -1.8164 C.3       1 RES1    0.0000
     17 C14       11.3796   -4.2870   -3.2728 C.3       1 RES1    0.0000
     18 C15       12.0802   -4.6663   -0.9469 C.3       1 RES1    0.0000
     19 C16        9.8332   -5.4275   -1.6390 C.3       1 RES1    0.0000
@<TRIPOS>BOND
     1    1    3 1
     2    2    9 1
     3    3    4 2
     4    4    5 1
     5    6    4 1
     6    7    6 ar
     7    8    7 ar
     8    9    8 ar
     9   10    9 ar
    10   11    6 ar
    11   12    8 1
    12   13   12 1
    13   14   12 1
    14   15   12 1
    15   16   10 1
    16   17   16 1
    17   18   16 1
    18   19   16 1
    19   10   11 ar
@<TRIPOS>SUBSTRUCTURE
     1 RES1 1

@<TRIPOS>CRYSIN
  27.7270    8.5620   22.9050  90.0000 144.3910  90.0000  15 1

