# MOL2 file generated by ConQuest
# Please check atom types

@<TRIPOS>MOLECULE
KAGYEZ01
    40    40     2
SMALL
NO_CHARGES
****
Generated from CSD

@<TRIPOS>ATOM
      1 O1         0.8749    1.0523   24.9104 O.3       1 RES1    0.0000
      2 C1         1.2836    2.6831   20.1277 C.ar      1 RES1    0.0000
      3 N1         1.6078    2.2324   25.0322 N.2       1 RES1    0.0000
      4 C2         1.6089    3.0482   21.4955 C.2       1 RES1    0.0000
      5 C3         1.2188    2.4612   22.6171 C.2       1 RES1    0.0000
      6 C4         0.2615    1.7987   19.8052 C.ar      1 RES1    0.0000
      7 C5         2.0278    3.2038   19.0866 C.ar      1 RES1    0.0000
      8 C6         1.7005    2.8502   23.9172 C.2       1 RES1    0.0000
      9 C7         0.0268    1.4513   18.5006 C.ar      1 RES1    0.0000
     10 C8         1.7890    2.8456   17.7883 C.ar      1 RES1    0.0000
     11 C9         0.7823    1.9720   17.4951 C.ar      1 RES1    0.0000
     12 H1         2.6866    3.8054   19.3105 H         1 RES1    0.0000
     13 H2         2.1925    3.7746   21.5901 H         1 RES1    0.0000
     14 H3        -0.6794    0.8011   18.3648 H         1 RES1    0.0000
     15 H4         0.6588    1.7409   22.5936 H         1 RES1    0.0000
     16 H5         0.6176    1.7101   16.5890 H         1 RES1    0.0000
     17 H6        -0.2985    1.4482   20.4792 H         1 RES1    0.0000
     18 H7         2.2955    3.1969   17.1176 H         1 RES1    0.0000
     19 H8         1.0499    0.6009   25.8726 H         1 RES1    0.0000
     20 H9         2.1925    3.6514   23.9316 H         1 RES1    0.0000
     21 O2         2.2584   -1.1231   27.5001 O.3       2 RES2    0.0000
     22 C10        0.9264   -0.0516   32.2629 C.ar      2 RES2    0.0000
     23 N2         1.2990   -0.1387   27.3357 N.2       2 RES2    0.0000
     24 C11        0.8410    0.2658   28.4648 C.2       2 RES2    0.0000
     25 C12        1.2321   -0.1417   29.7751 C.2       2 RES2    0.0000
     26 C13        0.0474    0.3305   33.2676 C.ar      2 RES2    0.0000
     27 C14        0.6300    0.2881   30.8815 C.2       2 RES2    0.0000
     28 C15        2.0505   -0.7734   32.6193 C.ar      2 RES2    0.0000
     29 C16        0.2862    0.0108   34.5858 C.ar      2 RES2    0.0000
     30 C17        2.2965   -1.0885   33.9309 C.ar      2 RES2    0.0000
     31 C18        1.4071   -0.7064   34.9261 C.ar      2 RES2    0.0000
     32 H10       -0.7411    0.8859   32.9839 H         2 RES2    0.0000
     33 H11        1.9764   -0.7472   29.7710 H         2 RES2    0.0000
     34 H12        2.6763   -0.9706   31.9928 H         2 RES2    0.0000
     35 H13        1.5543   -0.9475   35.8788 H         2 RES2    0.0000
     36 H14        0.1853    0.8936   28.4247 H         2 RES2    0.0000
     37 H15       -0.3706    0.3004   35.3585 H         2 RES2    0.0000
     38 H16       -0.1029    0.8243   30.7291 H         2 RES2    0.0000
     39 H17        2.6969   -1.2094   26.6035 H         2 RES2    0.0000
     40 H18        3.0160   -1.6023   34.1567 H         2 RES2    0.0000
@<TRIPOS>BOND
     1    1    3 1
     2    2    4 1
     3    3    8 2
     4    4    5 2
     5    5    8 1
     6    6    2 ar
     7    7    2 ar
     8    8   20 1
     9    9    6 ar
    10   10    7 ar
    11   11    9 ar
    12   12    7 1
    13   13    4 1
    14   14    9 1
    15   15    5 1
    16   16   11 1
    17   17    6 1
    18   18   10 1
    19   19    1 1
    20   21   23 1
    21   22   26 ar
    22   23   24 2
    23   24   25 1
    24   25   27 2
    25   26   29 ar
    26   27   22 1
    27   28   22 ar
    28   29   31 ar
    29   30   28 ar
    30   31   30 ar
    31   32   26 1
    32   33   25 1
    33   34   28 1
    34   35   31 1
    35   36   24 1
    36   37   29 1
    37   38   27 1
    38   39   21 1
    39   40   30 1
    40   10   11 ar
@<TRIPOS>SUBSTRUCTURE
     1 RES1 1
     2 RES2 21

@<TRIPOS>CRYSIN
  10.2935    7.7033   41.2970  90.0000  90.0000  90.0000  61 1

