# MOL2 file generated by ConQuest
# Please check atom types

@<TRIPOS>MOLECULE
KAGYEZ
    40    40     2
SMALL
NO_CHARGES
****
Generated from CSD

@<TRIPOS>ATOM
      1 O1         2.8584    1.1314   34.8532 O.3       1 RES1    0.0000
      2 N1         3.8598    0.1549   35.0230 N.2       1 RES1    0.0000
      3 C1         5.1167   -0.3621   29.0178 C.ar      1 RES1    0.0000
      4 H1         5.9033   -0.8449   29.2419 H         1 RES1    0.0000
      5 C2         4.5432   -0.3194   31.4423 C.2       1 RES1    0.0000
      6 H2         5.2731   -0.9116   31.5794 H         1 RES1    0.0000
      7 C3         4.2170    0.0246   30.0394 C.ar      1 RES1    0.0000
      8 C4         4.8632   -0.0416   27.6768 C.ar      1 RES1    0.0000
      9 H3         5.4756   -0.3094   27.0006 H         1 RES1    0.0000
     10 C5         2.7948    1.0555   28.3345 C.ar      1 RES1    0.0000
     11 H4         2.0083    1.5342   28.1004 H         1 RES1    0.0000
     12 C6         3.0447    0.7314   29.6751 C.ar      1 RES1    0.0000
     13 H5         2.4227    0.9882   30.3459 H         1 RES1    0.0000
     14 C7         3.7079    0.6736   27.3301 C.ar      1 RES1    0.0000
     15 H6         3.5409    0.8995   26.4235 H         1 RES1    0.0000
     16 C8         3.9019    0.1283   32.5554 C.2       1 RES1    0.0000
     17 H7         3.1593    0.7144   32.4618 H         1 RES1    0.0000
     18 C9         4.3360   -0.2770   33.8948 C.2       1 RES1    0.0000
     19 H8         5.0347   -0.9192   33.9420 H         1 RES1    0.0000
     20 H9         2.5373    1.2362   35.7067 H         1 RES1    0.0000
     21 O2         5.9234    2.7774   25.2468 O.3       2 RES2    0.0000
     22 N2         6.6929    1.5969   25.3647 N.2       2 RES2    0.0000
     23 C10        6.7960    0.9550   24.2420 C.2       2 RES2    0.0000
     24 H10        7.2599    0.1267   24.2700 H         2 RES2    0.0000
     25 C11        6.7165    0.7598   21.8041 C.2       2 RES2    0.0000
     26 H11        7.2998    0.0182   21.9199 H         2 RES2    0.0000
     27 C12        6.3824    1.1340   20.4083 C.ar      2 RES2    0.0000
     28 C13        5.3240    2.0187   20.0842 C.ar      2 RES2    0.0000
     29 H12        4.7728    2.3692   20.7742 H         2 RES2    0.0000
     30 C14        5.0879    2.3789   18.7495 C.ar      2 RES2    0.0000
     31 H13        4.3768    2.9729   18.5412 H         2 RES2    0.0000
     32 C15        7.1698    0.6076   19.3596 C.ar      2 RES2    0.0000
     33 H14        7.8666   -0.0061   19.5615 H         2 RES2    0.0000
     34 C16        6.2763    1.3661   22.9331 C.2       2 RES2    0.0000
     35 H15        5.6291    2.0598   22.8775 H         2 RES2    0.0000
     36 C17        5.8956    1.8674   17.7183 C.ar      2 RES2    0.0000
     37 H16        5.7365    2.1228   16.8184 H         2 RES2    0.0000
     38 C18        6.9363    0.9785   18.0252 C.ar      2 RES2    0.0000
     39 H17        7.4830    0.6280   17.3327 H         2 RES2    0.0000
     40 H18        6.0158    3.1474   26.0723 H         2 RES2    0.0000
@<TRIPOS>BOND
     1    1    2 1
     2    2   18 2
     3    3    4 1
     4    5    6 1
     5    7    3 ar
     6    8    3 ar
     7    9    8 1
     8   10   11 1
     9   12    7 ar
    10   13   12 1
    11   14    8 ar
    12   15   14 1
    13   16    5 2
    14   17   16 1
    15   18   16 1
    16   19   18 1
    17   20    1 1
    18   21   22 1
    19   22   23 2
    20   23   24 1
    21   25   26 1
    22   27   25 1
    23   28   27 ar
    24   29   28 1
    25   30   28 ar
    26   31   30 1
    27   32   27 ar
    28   33   32 1
    29   34   23 1
    30   35   34 1
    31   36   30 ar
    32   37   36 1
    33   38   32 ar
    34   39   38 1
    35   40   21 1
    36    5    7 1
    37   10   12 ar
    38   10   14 ar
    39   25   34 2
    40   36   38 ar
@<TRIPOS>SUBSTRUCTURE
     1 RES1 1
     2 RES2 21

@<TRIPOS>CRYSIN
  10.2310    7.5840   41.8160  90.0000  90.0000  90.0000  61 1

