# MOL2 file generated by ConQuest
# Please check atom types

@<TRIPOS>MOLECULE
KAHCIF
    34    38     1
SMALL
NO_CHARGES
****
Generated from CSD

@<TRIPOS>ATOM
      1 C1         2.9416    4.4358    3.4948 C.3       1 RES1    0.0000
      2 C2         3.3166    5.2301    2.2251 C.3       1 RES1    0.0000
      3 C3         2.3970    4.6241    1.1367 C.3       1 RES1    0.0000
      4 C4         2.1039    3.1965    1.5640 C.3       1 RES1    0.0000
      5 C5         2.7040    3.0071    2.9708 C.3       1 RES1    0.0000
      6 C6         1.8424    2.1044    3.8374 C.3       1 RES1    0.0000
      7 C7         2.2514    1.8955    5.3006 C.3       1 RES1    0.0000
      8 C8         2.3082    3.2102    6.1229 C.3       1 RES1    0.0000
      9 C9         3.5996    4.0319    5.9657 C.3       1 RES1    0.0000
     10 C10        4.0686    4.2578    4.5106 C.3       1 RES1    0.0000
     11 C11        3.5076    5.3169    6.8042 C.3       1 RES1    0.0000
     12 C12        3.2114    5.0578    8.2916 C.3       1 RES1    0.0000
     13 C13        1.9602    4.1882    8.4891 C.3       1 RES1    0.0000
     14 C14        2.1266    2.9317    7.6103 C.3       1 RES1    0.0000
     15 C15        0.9587    2.0325    8.0578 C.3       1 RES1    0.0000
     16 C16        0.8150    2.3212    9.5653 C.3       1 RES1    0.0000
     17 C17        1.7806    3.5058    9.8717 C.3       1 RES1    0.0000
     18 C18        0.7047    5.0190    8.1142 C.3       1 RES1    0.0000
     19 C19        5.1710    5.2917    4.4138 C.3       1 RES1    0.0000
     20 C20        1.2593    4.3628   11.0527 C.3       1 RES1    0.0000
     21 C21        2.1392    5.5691   11.3833 C.3       1 RES1    0.0000
     22 C22        1.0740    3.4727   12.2983 C.3       1 RES1    0.0000
     23 C23        0.2055    4.0707   13.3947 C.3       1 RES1    0.0000
     24 C24       -0.0586    3.1509   14.5153 C.3       1 RES1    0.0000
     25 C25       -0.8982    3.7032   15.6238 C.3       1 RES1    0.0000
     26 C26       -2.1764    3.6153   15.4263 C.3       1 RES1    0.0000
     27 C27       -0.6026    2.9466   16.8774 C.3       1 RES1    0.0000
     28 C28        4.3926    1.2222    2.6443 C.3       1 RES1    0.0000
     29 O1         1.1396    5.2803    0.9795 O.3       1 RES1    0.0000
     30 C29        1.1717    6.4307    0.2459 C.2       1 RES1    0.0000
     31 O2         2.1645    6.8849   -0.1935 O.2       1 RES1    0.0000
     32 C30       -0.2364    7.0458    0.1290 C.3       1 RES1    0.0000
     33 N1         4.1266    2.6316    2.8257 N.3       1 RES1    0.0000
     34 O3         4.6674    2.9660    4.1438 O.3       1 RES1    0.0000
@<TRIPOS>BOND
     1    1    2 1
     2    2    3 1
     3    3    4 1
     4    4    5 1
     5    5    1 1
     6    6    5 1
     7    7    6 1
     8    8    7 1
     9    9    8 1
    10   10    1 1
    11   11    9 1
    12   12   11 1
    13   13   12 1
    14   14    8 1
    15   15   14 1
    16   16   15 1
    17   17   13 1
    18   18   13 1
    19   19   10 1
    20   20   17 1
    21   21   20 1
    22   22   20 1
    23   23   22 1
    24   24   23 1
    25   25   24 1
    26   26   25 1
    27   27   25 1
    28   28   33 1
    29   29    3 1
    30   30   29 1
    31   31   30 2
    32   32   30 1
    33   33    5 1
    34   34   10 1
    35    9   10 1
    36   13   14 1
    37   16   17 1
    38   33   34 1
@<TRIPOS>SUBSTRUCTURE
     1 RES1 1

@<TRIPOS>CRYSIN
   6.3030   11.4120   40.3090  90.0000  90.0000  90.0000  19 1

