# MOL2 file generated by ConQuest
# Please check atom types

@<TRIPOS>MOLECULE
KAHHIM02
    45    45     3
SMALL
NO_CHARGES
****
Generated from CSD

@<TRIPOS>ATOM
      1 N1         3.1994    3.5496    9.1805 N.3       1 RES1    0.0000
      2 N2         3.7555    3.6210    7.9746 N.2       1 RES1    0.0000
      3 C1         3.9006    2.3601    7.6097 C.2       1 RES1    0.0000
      4 C2         3.4362    1.4661    8.5656 C.2       1 RES1    0.0000
      5 C3         2.9909    2.2872    9.5583 C.2       1 RES1    0.0000
      6 N3         4.4944    2.0397    6.3308 N.pl3     1 RES1    0.0000
      7 O1         4.8420    2.9578    5.6282 O.2       1 RES1    0.0000
      8 O2         4.5829    0.8630    6.0529 O.2       1 RES1    0.0000
      9 N4         3.4181    0.0132    8.5315 N.pl3     1 RES1    0.0000
     10 O3         4.4409   -0.5602    8.8060 O.2       1 RES1    0.0000
     11 O4         2.3788   -0.5128    8.2209 O.2       1 RES1    0.0000
     12 N5         2.3916    1.9752   10.8289 N.pl3     1 RES1    0.0000
     13 O5         2.2341    0.7991   11.0714 O.2       1 RES1    0.0000
     14 O6         2.1060    2.8940   11.5525 O.2       1 RES1    0.0000
     15 N6         2.3583    6.1502    3.4128 N.3       2 RES2    0.0000
     16 N7         2.2142    6.6002    2.1645 N.2       2 RES2    0.0000
     17 C4         1.0020    6.2127    1.8243 C.2       2 RES2    0.0000
     18 C5         0.3591    5.5082    2.8274 C.2       2 RES2    0.0000
     19 C6         1.2760    5.4958    3.8356 C.2       2 RES2    0.0000
     20 N8         0.5023    6.5256    0.5022 N.pl3     2 RES2    0.0000
     21 O7         1.1179    7.3236   -0.1600 O.2       2 RES2    0.0000
     22 O8        -0.5086    5.9395    0.1562 O.2       2 RES2    0.0000
     23 N9        -0.9769    4.9246    2.8334 N.pl3     2 RES2    0.0000
     24 O9        -1.9044    5.6995    2.7623 O.2       2 RES2    0.0000
     25 O10       -1.0498    3.7251    2.8946 O.2       2 RES2    0.0000
     26 N10        1.2135    4.8998    5.1417 N.pl3     2 RES2    0.0000
     27 O11        0.1435    4.4331    5.4759 O.2       2 RES2    0.0000
     28 O12        2.2279    4.9106    5.8019 O.2       2 RES2    0.0000
     29 N11        5.1681    5.8178    6.3848 N.3       3 RES3    0.0000
     30 N12        4.9068    6.2361    5.1474 N.2       3 RES3    0.0000
     31 C7         5.9496    6.9743    4.8270 C.2       3 RES3    0.0000
     32 C8         6.8943    7.0364    5.8372 C.2       3 RES3    0.0000
     33 C9         6.3445    6.2731    6.8248 C.2       3 RES3    0.0000
     34 N13        5.9770    7.6269    3.5388 N.pl3     3 RES3    0.0000
     35 O13        4.9683    7.5924    2.8714 O.2       3 RES3    0.0000
     36 O14        7.0181    8.1669    3.2282 O.2       3 RES3    0.0000
     37 N14        8.1654    7.7417    5.8628 N.pl3     3 RES3    0.0000
     38 O15        8.1091    8.9536    5.8863 O.2       3 RES3    0.0000
     39 O16        9.1658    7.0662    5.8635 O.2       3 RES3    0.0000
     40 N15        6.8275    5.9602    8.1439 N.pl3     3 RES3    0.0000
     41 O17        7.8337    6.5438    8.4960 O.2       3 RES3    0.0000
     42 O18        6.1925    5.1639    8.8003 O.2       3 RES3    0.0000
     43 H1         3.0018    4.2549    9.6063 H         1 RES1    0.0000
     44 H2         3.1117    6.2914    3.8621 H         2 RES2    0.0000
     45 H3         4.6203    5.2980    6.7548 H         3 RES3    0.0000
@<TRIPOS>BOND
     1    1    2 1
     2    2    3 2
     3    3    4 1
     4    4    5 2
     5    5    1 1
     6    6    3 1
     7    7    6 2
     8    8    6 2
     9    9    4 1
    10   10    9 2
    11   11    9 2
    12   12    5 1
    13   13   12 2
    14   14   12 2
    15   15   16 1
    16   16   17 2
    17   17   18 1
    18   18   19 2
    19   19   15 1
    20   20   17 1
    21   21   20 2
    22   22   20 2
    23   23   18 1
    24   24   23 2
    25   25   23 2
    26   26   19 1
    27   27   26 2
    28   28   26 2
    29   29   30 1
    30   30   31 2
    31   31   32 1
    32   32   33 2
    33   33   29 1
    34   34   31 1
    35   35   34 2
    36   36   34 2
    37   37   32 1
    38   38   37 2
    39   39   37 2
    40   40   33 1
    41   41   40 2
    42   42   40 2
    43   43    1 1
    44   44   15 1
    45   45   29 1
@<TRIPOS>SUBSTRUCTURE
     1 RES1 1
     2 RES2 15
     3 RES3 29

@<TRIPOS>CRYSIN
  15.1586    8.2781   17.2014  90.0000  92.2750  90.0000  14 1

