# MOL2 file generated by ConQuest
# Please check atom types

@<TRIPOS>MOLECULE
KAHHIM01
    45    45     3
SMALL
NO_CHARGES
****
Generated from CSD

@<TRIPOS>ATOM
      1 N1         3.2142    3.5520    9.1548 N.3       1 RES1    0.0000
      2 N2         3.7674    3.5937    7.9470 N.2       1 RES1    0.0000
      3 C1         3.8757    2.3249    7.5668 C.2       1 RES1    0.0000
      4 C2         3.3799    1.4445    8.5275 C.2       1 RES1    0.0000
      5 C3         2.9595    2.2868    9.5324 C.2       1 RES1    0.0000
      6 N3         4.4520    1.9949    6.2887 N.pl3     1 RES1    0.0000
      7 O1         4.8173    2.9101    5.5728 O.2       1 RES1    0.0000
      8 O2         4.5237    0.8007    6.0263 O.2       1 RES1    0.0000
      9 N4         3.3131   -0.0081    8.4881 N.pl3     1 RES1    0.0000
     10 O3         4.3245   -0.6194    8.7934 O.2       1 RES1    0.0000
     11 O4         2.2501   -0.5003    8.1481 O.2       1 RES1    0.0000
     12 N5         2.3545    1.9827   10.7965 N.pl3     1 RES1    0.0000
     13 O5         2.1302    0.8011   11.0154 O.2       1 RES1    0.0000
     14 O6         2.1227    2.9177   11.5440 O.2       1 RES1    0.0000
     15 H1         3.0189    4.3065    9.6015 H         1 RES1    0.0000
     16 N6         2.0501    6.2147   11.9608 N.3       2 RES2    0.0000
     17 N7         1.9049    5.7745   10.7087 N.2       2 RES2    0.0000
     18 C4         0.6697    6.1185   10.3581 C.2       2 RES2    0.0000
     19 C5         0.0023    6.7976   11.3800 C.2       2 RES2    0.0000
     20 C6         0.9356    6.8295   12.3932 C.2       2 RES2    0.0000
     21 N8         0.1761    5.7925    9.0405 N.pl3     2 RES2    0.0000
     22 O7         0.8017    4.9718    8.3937 O.2       2 RES2    0.0000
     23 O8        -0.8412    6.3766    8.6829 O.2       2 RES2    0.0000
     24 N9        -1.3487    7.3234   11.3884 N.pl3     2 RES2    0.0000
     25 O9        -2.2499    6.5078   11.2766 O.2       2 RES2    0.0000
     26 O10       -1.4764    8.5299   11.4979 O.2       2 RES2    0.0000
     27 N10        0.8559    7.4111   13.7034 N.pl3     2 RES2    0.0000
     28 O11       -0.2404    7.8362   14.0426 O.2       2 RES2    0.0000
     29 O12        1.8863    7.4397   14.3585 O.2       2 RES2    0.0000
     30 H2         2.8710    6.1789   12.4474 H         2 RES2    0.0000
     31 N11        5.1410    5.7298    6.4069 N.3       3 RES3    0.0000
     32 N12        4.8979    6.1352    5.1604 N.2       3 RES3    0.0000
     33 C7         5.9389    6.8911    4.8286 C.2       3 RES3    0.0000
     34 C8         6.8746    6.9809    5.8589 C.2       3 RES3    0.0000
     35 C9         6.3110    6.2147    6.8579 C.2       3 RES3    0.0000
     36 N13        5.9649    7.5462    3.5466 N.pl3     3 RES3    0.0000
     37 O13        4.9478    7.5014    2.8729 O.2       3 RES3    0.0000
     38 O14        7.0090    8.1082    3.2451 O.2       3 RES3    0.0000
     39 N14        8.1368    7.6966    5.8868 N.pl3     3 RES3    0.0000
     40 O15        8.0754    8.9172    5.9025 O.2       3 RES3    0.0000
     41 O16        9.1493    7.0173    5.8892 O.2       3 RES3    0.0000
     42 N15        6.7935    5.9340    8.1821 N.pl3     3 RES3    0.0000
     43 O17        7.7929    6.5551    8.5341 O.2       3 RES3    0.0000
     44 O18        6.1782    5.1154    8.8427 O.2       3 RES3    0.0000
     45 H3         4.6526    5.1262    6.8685 H         3 RES3    0.0000
@<TRIPOS>BOND
     1    1    2 1
     2    2    3 2
     3    3    4 1
     4    4    5 2
     5    5    1 1
     6    6    3 1
     7    7    6 2
     8    8    6 2
     9    9    4 1
    10   10    9 2
    11   11    9 2
    12   12    5 1
    13   13   12 2
    14   14   12 2
    15   15    1 1
    16   16   17 1
    17   17   18 2
    18   18   19 1
    19   19   20 2
    20   20   16 1
    21   21   18 1
    22   22   21 2
    23   23   21 2
    24   24   19 1
    25   25   24 2
    26   26   24 2
    27   27   20 1
    28   28   27 2
    29   29   27 2
    30   30   16 1
    31   31   32 1
    32   32   33 2
    33   33   34 1
    34   34   35 2
    35   35   31 1
    36   36   33 1
    37   37   36 2
    38   38   36 2
    39   39   34 1
    40   40   39 2
    41   41   39 2
    42   42   35 1
    43   43   42 2
    44   44   42 2
    45   45   31 1
@<TRIPOS>SUBSTRUCTURE
     1 RES1 1
     2 RES2 16
     3 RES3 31

@<TRIPOS>CRYSIN
  15.0080    8.1732   17.1160  90.0000  92.2510  90.0000  14 1

