# MOL2 file generated by ConQuest
# Please check atom types

@<TRIPOS>MOLECULE
KAHHIM
    31    29     3
SMALL
NO_CHARGES
****
Generated from CSD

@<TRIPOS>ATOM
      1 C1         2.6189    1.3284    4.3358 C.2       1 RES1    0.0000
      2 C2         3.9986    1.3038    4.2733 C.2       1 RES1    0.0000
      3 C3         4.3760    2.0425    5.3745 C.2       1 RES1    0.0000
      4 N1         3.3014    2.4647    6.0381 N.2       1 RES1    0.0000
      5 N2         2.2153    2.0285    5.3932 N.3       1 RES1    0.0000
      6 N3         1.6556    0.7016    3.4652 N.pl3     1 RES1    0.0000
      7 N4         4.8479    0.6568    3.2866 N.pl3     1 RES1    0.0000
      8 N5         5.7023    2.3551    5.8512 N.pl3     1 RES1    0.0000
      9 O1         0.4943    0.7252    3.8154 O.2       1 RES1    0.0000
     10 O2         2.0924    0.1938    2.4483 O.2       1 RES1    0.0000
     11 O3         4.8389   -0.5505    3.2692 O.2       1 RES1    0.0000
     12 O4         5.4970    1.3908    2.5668 O.2       1 RES1    0.0000
     13 O5         6.6228    1.7760    5.3022 O.2       1 RES1    0.0000
     14 O6         5.8009    3.1543    6.7552 O.2       1 RES1    0.0000
     15 H1         3.2878    2.9921    6.6887 Du        3 SUP3    0.0000
     16 H2         1.4031    2.1053    5.6900 H         1 RES1    0.0000
     17 C4        -1.9979    6.4699    3.8835 C.2       2 RES2    0.0000
     18 C5        -2.4498    5.6107    2.9031 C.2       2 RES2    0.0000
     19 N6        -2.1688    7.7357    3.5055 N.pl3     2 RES2    0.0000
     20 N7        -1.4063    6.1585    5.1600 N.pl3     2 RES2    0.0000
     21 N8        -2.4498    4.1563    2.9031 N.pl3     2 RES2    0.0000
     22 O7        -1.0667    7.0785    5.8647 O.2       2 RES2    0.0000
     23 O8        -1.2846    4.9773    5.4207 O.2       2 RES2    0.0000
     24 O9        -3.3419    3.6102    3.5054 O.2       2 RES2    0.0000
     25 H3        -1.9840    8.3631    3.9017 Du        3 SUP3    0.0000
     26 C4B       -2.9017    6.4699    1.9226 C.2       2 RES2    0.0000
     27 N6B       -2.7308    7.7357    2.3006 N.2       2 RES2    0.0000
     28 N7B       -3.4933    6.1585    0.6461 N.pl3     2 RES2    0.0000
     29 O7B       -3.8329    7.0785   -0.0585 O.2       2 RES2    0.0000
     30 O8B       -3.6150    4.9773    0.3854 O.2       2 RES2    0.0000
     31 O9B       -1.5578    3.6102    2.3007 O.2       2 RES2    0.0000
@<TRIPOS>BOND
     1    1    2 2
     2    2    3 1
     3    3    4 2
     4    4    5 1
     5    5    1 1
     6    6    1 1
     7    7    2 1
     8    8    3 1
     9    9    6 2
    10   10    6 2
    11   11    7 2
    12   12    7 2
    13   13    8 2
    14   14    8 2
    15   16    5 1
    16   17   18 2
    17   18   21 1
    18   19   17 1
    19   20   17 1
    20   21   24 2
    21   22   20 2
    22   23   20 2
    23   26   18 1
    24   27   19 1
    25   28   26 1
    26   29   28 2
    27   30   28 2
    28   31   21 2
    29   26   27 2
@<TRIPOS>SUBSTRUCTURE
     1 RES1 1
     2 RES2 17
     3 SUP3 15

@<TRIPOS>CRYSIN
  22.5218    8.2885   15.1944  90.0000 130.1600  90.0000  15 1

