# MOL2 file generated by ConQuest
# Please check atom types

@<TRIPOS>MOLECULE
KAHJAE
    22    21     1
SMALL
USER_CHARGES
****
Generated from CSD

@<TRIPOS>ATOM
      1 O1         2.9305    1.2168    3.4598 O.3       1 RES1    0.0000
      2 O2         5.0793    2.3686    3.8236 O.2       1 RES1   -1.0000
      3 N1         3.1539    2.2798    2.6327 N.2       1 RES1    0.0000
      4 N2         4.2969    2.7684    2.9313 N.pl3     1 RES1    1.0000
      5 C1         1.6692    0.5997    3.0758 C.3       1 RES1    0.0000
      6 C2         4.6462    3.9663    2.1095 C.3       1 RES1    0.0000
      7 C3         6.1140    3.9663    1.7642 C.3       1 RES1    0.0000
      8 H1         1.5892    0.4236    2.0250 H         1 RES1    0.0000
      9 H2         1.6635   -0.1349    3.6747 H         1 RES1    0.0000
     10 H3         1.0114    1.2597    3.4131 H         1 RES1    0.0000
     11 H4         4.0609    3.9663    1.3397 H         1 RES1    0.0000
     12 H5         6.3475    3.1714    1.2005 H         1 RES1    0.0000
     13 H6         6.6332    3.9663    2.7296 H         1 RES1    0.0000
     14 N2G        4.2969    5.1641    2.9313 N.pl3     1 RES1    1.0000
     15 H5G        6.3475    4.7611    1.2005 H         1 RES1    0.0000
     16 O2G        5.0793    5.5639    3.8236 O.2       1 RES1   -1.0000
     17 N1G        3.1539    5.6527    2.6327 N.2       1 RES1    0.0000
     18 O1G        2.9305    6.7157    3.4598 O.3       1 RES1    0.0000
     19 C1G        1.6692    7.3328    3.0758 C.3       1 RES1    0.0000
     20 H1G        1.5892    7.5089    2.0250 H         1 RES1    0.0000
     21 H2G        1.6635    8.0674    3.6747 H         1 RES1    0.0000
     22 H3G        1.0114    6.6728    3.4131 H         1 RES1    0.0000
@<TRIPOS>BOND
     1    1    3 1
     2    2    4 1
     3    3    4 2
     4    4    6 1
     5    5    1 1
     6    6    7 1
     7    7   12 1
     8    8    5 1
     9    9    5 1
    10   10    5 1
    11   11    6 1
    12   13    7 1
    13   14    6 1
    14   15    7 1
    15   16   14 1
    16   17   14 2
    17   18   17 1
    18   19   18 1
    19   20   19 1
    20   21   19 1
    21   22   19 1
@<TRIPOS>SUBSTRUCTURE
     1 RES1 1

@<TRIPOS>CRYSIN
   6.2940   15.8650    8.8080  90.0000  90.0000  90.0000  62 6

