# MOL2 file generated by ConQuest
# Please check atom types

@<TRIPOS>MOLECULE
KAHNAJ
    56    57     1
SMALL
NO_CHARGES
****
Generated from CSD

@<TRIPOS>ATOM
      1 C1        -0.4006    0.4461    2.6919 C.3       1 RES1    0.0000
      2 H1        -1.1181    0.9675    3.1110 H         1 RES1    0.0000
      3 O1        -0.7709    0.0132    1.4320 O.3       1 RES1    0.0000
      4 C2        -0.0903   -0.8268    3.5090 C.3       1 RES1    0.0000
      5 H2         0.6020   -1.3473    3.0499 H         1 RES1    0.0000
      6 O2        -1.2910   -1.6014    3.5938 O.3       1 RES1    0.0000
      7 C3         0.4054   -0.4361    4.8961 C.3       1 RES1    0.0000
      8 H3        -0.3236   -0.0381    5.4175 H         1 RES1    0.0000
      9 O3         0.8772   -1.6304    5.5348 O.3       1 RES1    0.0000
     10 C4         1.5718    0.5338    4.7926 C.3       1 RES1    0.0000
     11 H4         2.3695    0.0654    4.4682 H         1 RES1    0.0000
     12 O4         1.8216    1.0842    6.0973 O.3       1 RES1    0.0000
     13 C5         1.2288    1.7214    3.8458 C.3       1 RES1    0.0000
     14 H5         0.5196    2.2660    4.2474 H         1 RES1    0.0000
     15 O5         0.7770    1.2000    2.5909 O.3       1 RES1    0.0000
     16 C6         2.4286    2.5813    3.5813 C.3       1 RES1    0.0000
     17 H6         2.1889    3.3228    3.0050 H         1 RES1    0.0000
     18 H7         2.7737    2.9388    4.4146 H         1 RES1    0.0000
     19 O6         3.4273    1.7562    2.9426 O.3       1 RES1    0.0000
     20 C7        -1.5402    0.8268    0.6599 C.ar      1 RES1    0.0000
     21 C8        -2.6316    0.2623   -0.0100 C.ar      1 RES1    0.0000
     22 N1        -2.9293   -1.1396    0.1834 N.pl3     1 RES1    0.0000
     23 O7        -2.0345   -1.9482    0.1435 O.2       1 RES1    0.0000
     24 O8        -4.0796   -1.4483    0.3430 O.2       1 RES1    0.0000
     25 C9        -3.4440    1.0113   -0.7996 C.ar      1 RES1    0.0000
     26 H8        -4.1686    0.6141   -1.2262 H         1 RES1    0.0000
     27 C10       -3.2057    2.3347   -0.9667 C.ar      1 RES1    0.0000
     28 H9        -3.7523    2.8428   -1.5218 H         1 RES1    0.0000
     29 C11       -2.1432    2.9231   -0.3069 C.ar      1 RES1    0.0000
     30 H10       -1.9802    3.8318   -0.4254 H         1 RES1    0.0000
     31 C12       -1.3221    2.1956    0.5202 C.ar      1 RES1    0.0000
     32 H11       -0.6301    2.6119    0.9817 H         1 RES1    0.0000
     33 C13       -1.2247   -2.9165    3.2171 C.2       1 RES1    0.0000
     34 O9        -0.2131   -3.4461    2.9227 O.2       1 RES1    0.0000
     35 C14       -2.5682   -3.5322    3.2707 C.3       1 RES1    0.0000
     36 H12       -2.9545   -3.3832    4.1364 H         1 RES1    0.0000
     37 H13       -2.4953   -4.4757    3.1098 H         1 RES1    0.0000
     38 H14       -3.1288   -3.1358    2.5984 H         1 RES1    0.0000
     39 C15        0.0616   -2.2685    6.4329 C.2       1 RES1    0.0000
     40 O10       -0.9522   -1.7909    6.8171 O.2       1 RES1    0.0000
     41 C16        0.6371   -3.5893    6.8084 C.3       1 RES1    0.0000
     42 H15        0.3282   -3.8351    7.6828 H         1 RES1    0.0000
     43 H16        1.5952   -3.5322    6.8109 H         1 RES1    0.0000
     44 H17        0.3575   -4.2522    6.1722 H         1 RES1    0.0000
     45 C17        3.0971    1.0279    6.5788 C.2       1 RES1    0.0000
     46 O11        3.9482    0.4808    6.0150 O.2       1 RES1    0.0000
     47 C18        3.2195    1.7529    7.8362 C.3       1 RES1    0.0000
     48 H18        4.0837    1.5865    8.2192 H         1 RES1    0.0000
     49 H19        2.5374    1.4574    8.4437 H         1 RES1    0.0000
     50 H20        3.1171    2.6938    7.6741 H         1 RES1    0.0000
     51 C19        4.6996    2.1236    3.0474 C.2       1 RES1    0.0000
     52 O12        5.0322    3.0770    3.6387 O.2       1 RES1    0.0000
     53 C20        5.6048    1.1860    2.3726 C.3       1 RES1    0.0000
     54 H21        5.7456    0.4179    2.9314 H         1 RES1    0.0000
     55 H22        6.4461    1.6180    2.2054 H         1 RES1    0.0000
     56 H23        5.2168    0.9087    1.5393 H         1 RES1    0.0000
@<TRIPOS>BOND
     1    1    2 1
     2    3    1 1
     3    4    1 1
     4    5    4 1
     5    6    4 1
     6    7    4 1
     7    8    7 1
     8    9    7 1
     9   10    7 1
    10   11   10 1
    11   12   10 1
    12   13   10 1
    13   14   13 1
    14   15    1 1
    15   16   13 1
    16   17   16 1
    17   18   16 1
    18   19   16 1
    19   20    3 1
    20   21   20 ar
    21   22   21 1
    22   23   22 2
    23   24   22 2
    24   25   21 ar
    25   26   25 1
    26   27   25 ar
    27   28   27 1
    28   29   27 ar
    29   30   29 1
    30   31   20 ar
    31   32   31 1
    32   33    6 1
    33   34   33 2
    34   35   33 1
    35   36   35 1
    36   37   35 1
    37   38   35 1
    38   39    9 1
    39   40   39 2
    40   41   39 1
    41   42   41 1
    42   43   41 1
    43   44   41 1
    44   45   12 1
    45   46   45 2
    46   47   45 1
    47   48   47 1
    48   49   47 1
    49   50   47 1
    50   51   19 1
    51   52   51 2
    52   53   51 1
    53   54   53 1
    54   55   53 1
    55   56   53 1
    56   13   15 1
    57   29   31 ar
@<TRIPOS>SUBSTRUCTURE
     1 RES1 1

@<TRIPOS>CRYSIN
  10.7110    8.2760   12.7920  90.0000 102.8000  90.0000   4 1

