# MOL2 file generated by ConQuest
# Please check atom types

@<TRIPOS>MOLECULE
KAJFAD01
    44    44     2
SMALL
USER_CHARGES
****
Generated from CSD

@<TRIPOS>ATOM
      1 O1         4.5693    7.0219    1.6164 O.2       1 RES1   -1.0000
      2 O2        10.0590    4.1918    1.8690 O.2       1 RES1    0.0000
      3 O3        10.6794    6.2100    1.3612 O.2       1 RES1    0.0000
      4 O4         3.2891    7.4258    5.1016 O.2       2 RES2   -1.0000
      5 O5        -2.7841    7.8139    6.1876 O.2       2 RES2    0.0000
      6 O6        -2.7858    6.7661    4.2877 O.2       2 RES2    0.0000
      7 N1         5.8169    6.6131    1.5961 N.pl3     1 RES1    1.0000
      8 N2         9.8137    5.3683    1.6052 N.pl3     1 RES1    0.0000
      9 N3         6.3796    8.8127    1.1705 N.3       1 RES1    0.0000
     10 H1         5.5623    8.8825    0.9469 H         1 RES1    0.0000
     11 N4         1.9787    7.4088    5.1468 N.pl3     2 RES2    1.0000
     12 N5        -2.2069    7.3065    5.2270 N.pl3     2 RES2    0.0000
     13 N6         2.0776    6.5798    3.0022 N.pl3     2 RES2    0.0000
     14 H2         2.9552    6.7175    2.8340 H         2 RES2    0.0000
     15 C1         6.8059    7.5531    1.3542 C.ar      1 RES1    0.0000
     16 C2         8.1401    7.1216    1.3573 C.ar      1 RES1    0.0000
     17 H3         8.8322    7.7242    1.2051 H         1 RES1    0.0000
     18 C3         8.4103    5.7928    1.5888 C.ar      1 RES1    0.0000
     19 C4         7.4143    4.8460    1.8028 C.ar      1 RES1    0.0000
     20 H4         7.6143    3.9476    1.9374 H         1 RES1    0.0000
     21 C5         6.1190    5.3058    1.8050 C.ar      1 RES1    0.0000
     22 H5         5.4280    4.7018    1.9541 H         1 RES1    0.0000
     23 C6         7.2615    9.8768    0.6928 C.3       1 RES1    0.0000
     24 H6         8.0949    9.8651    1.2230 H         1 RES1    0.0000
     25 H7         6.8026   10.7179    0.9022 H         1 RES1    0.0000
     26 C7         7.5760    9.7824   -0.7887 C.3       1 RES1    0.0000
     27 H8         8.1073   10.5412   -1.0721 H         1 RES1    0.0000
     28 H9         8.1128    8.9628   -0.9760 H         1 RES1    0.0000
     29 H10        6.7507    9.7434   -1.3225 H         1 RES1    0.0000
     30 C8         1.5558    6.0460    1.7546 C.3       2 RES2    0.0000
     31 H11        2.2177    6.2262    1.0933 H         2 RES2    0.0000
     32 H12        0.7391    6.5384    1.4913 H         2 RES2    0.0000
     33 C9         1.2559    4.5585    1.8012 C.3       2 RES2    0.0000
     34 H13        0.9121    4.2748    0.9033 H         2 RES2    0.0000
     35 H14        2.0993    4.0682    1.9687 H         2 RES2    0.0000
     36 H15        0.6137    4.3437    2.5187 H         2 RES2    0.0000
     37 C10        1.3047    6.9377    4.0344 C.ar      2 RES2    0.0000
     38 C11       -0.0939    6.8939    4.0710 C.ar      2 RES2    0.0000
     39 H16       -0.5776    6.5614    3.3493 H         2 RES2    0.0000
     40 C12       -0.7409    7.3539    5.1982 C.ar      2 RES2    0.0000
     41 C13        1.3127    7.8601    6.2375 C.ar      2 RES2    0.0000
     42 H17        1.7972    8.1857    6.9614 H         2 RES2    0.0000
     43 C14       -0.0613    7.8484    6.3008 C.ar      2 RES2    0.0000
     44 H18       -0.5143    8.1593    7.0508 H         2 RES2    0.0000
@<TRIPOS>BOND
     1    1    7 1
     2    2    8 2
     3    3    8 2
     4    4   11 1
     5    5   12 2
     6    6   12 2
     7    7   15 ar
     8    8   18 1
     9    9   10 1
    10   11   37 ar
    11   12   40 1
    12   13   14 1
    13   15    9 1
    14   16   15 ar
    15   17   16 1
    16   18   16 ar
    17   19   18 ar
    18   20   19 1
    19   21    7 ar
    20   22   21 1
    21   23    9 1
    22   24   23 1
    23   25   23 1
    24   26   23 1
    25   27   26 1
    26   28   26 1
    27   29   26 1
    28   30   13 1
    29   31   30 1
    30   32   30 1
    31   33   30 1
    32   34   33 1
    33   35   33 1
    34   36   33 1
    35   37   13 1
    36   38   37 ar
    37   39   38 1
    38   40   38 ar
    39   41   11 ar
    40   42   41 1
    41   43   40 ar
    42   44   43 1
    43   19   21 ar
    44   41   43 ar
@<TRIPOS>SUBSTRUCTURE
     1 RES1 1
     2 RES2 4

@<TRIPOS>CRYSIN
  12.6130   11.4790   11.3560  90.0000 100.1200  90.0000  14 1

