# MOL2 file generated by ConQuest
# Please check atom types

@<TRIPOS>MOLECULE
KAJFAD
    44    44     2
SMALL
USER_CHARGES
****
Generated from CSD

@<TRIPOS>ATOM
      1 O1         4.6150    7.1039    1.6017 O.2       1 RES1   -1.0000
      2 O2        10.0868    4.2803    1.9481 O.2       1 RES1    0.0000
      3 O3        10.7126    6.2711    1.3809 O.2       1 RES1    0.0000
      4 O4         3.3185    7.5061    5.1235 O.2       2 RES2   -1.0000
      5 O5        -2.7317    7.8694    6.2702 O.2       2 RES2    0.0000
      6 O6        -2.7603    6.8848    4.3562 O.2       2 RES2    0.0000
      7 N1         5.8654    6.6960    1.5988 N.pl3     1 RES1    1.0000
      8 N2         9.8487    5.4456    1.6479 N.pl3     1 RES1    0.0000
      9 N3         6.4295    8.8677    1.1190 N.3       1 RES1    0.0000
     10 H1         5.6274    8.9343    0.8830 H         1 RES1    0.0000
     11 N4         2.0063    7.4894    5.1837 N.pl3     2 RES2    1.0000
     12 N5        -2.1749    7.3891    5.2950 N.pl3     2 RES2    0.0000
     13 N6         2.0902    6.6669    3.0471 N.pl3     2 RES2    0.0000
     14 H2         2.9771    6.7831    2.8808 H         2 RES2    0.0000
     15 C1         6.8546    7.6198    1.3341 C.ar      1 RES1    0.0000
     16 C2         8.1742    7.1867    1.3572 C.ar      1 RES1    0.0000
     17 H3         8.8671    7.7845    1.1932 H         1 RES1    0.0000
     18 C3         8.4425    5.8756    1.6235 C.ar      1 RES1    0.0000
     19 C4         7.4487    4.9553    1.8600 C.ar      1 RES1    0.0000
     20 H4         7.6469    4.0615    2.0262 H         1 RES1    0.0000
     21 C5         6.1650    5.4022    1.8419 C.ar      1 RES1    0.0000
     22 H5         5.4745    4.7998    2.0012 H         1 RES1    0.0000
     23 C6         7.3094    9.9348    0.6418 C.3       1 RES1    0.0000
     24 H6         8.1488    9.8686    1.1682 H         1 RES1    0.0000
     25 H7         6.8555   10.7692    0.8341 H         1 RES1    0.0000
     26 C7         7.6234    9.8447   -0.8230 C.3       1 RES1    0.0000
     27 H8         8.1577   10.6510   -1.0523 H         1 RES1    0.0000
     28 H9         8.1121    9.0085   -1.0375 H         1 RES1    0.0000
     29 H10        6.8498    9.8141   -1.3023 H         1 RES1    0.0000
     30 C8         1.5726    6.1095    1.8115 C.3       2 RES2    0.0000
     31 H11        2.2155    6.3229    1.1171 H         2 RES2    0.0000
     32 H12        0.7274    6.5733    1.5671 H         2 RES2    0.0000
     33 C9         1.3477    4.6351    1.8621 C.3       2 RES2    0.0000
     34 H13        0.9758    4.2956    1.0284 H         2 RES2    0.0000
     35 H14        2.2622    4.2666    1.9626 H         2 RES2    0.0000
     36 H15        0.6616    4.4567    2.5705 H         2 RES2    0.0000
     37 C10        1.3251    7.0252    4.0746 C.ar      2 RES2    0.0000
     38 C11       -0.0677    6.9874    4.1311 C.ar      2 RES2    0.0000
     39 H16       -0.5599    6.6625    3.4115 H         2 RES2    0.0000
     40 C12       -0.7003    7.4342    5.2555 C.ar      2 RES2    0.0000
     41 C13        1.3481    7.9293    6.2722 C.ar      2 RES2    0.0000
     42 H17        1.8357    8.2505    6.9956 H         2 RES2    0.0000
     43 C14       -0.0215    7.9163    6.3433 C.ar      2 RES2    0.0000
     44 H18       -0.4705    8.2215    7.0979 H         2 RES2    0.0000
@<TRIPOS>BOND
     1    1    7 1
     2    2    8 2
     3    3    8 2
     4    4   11 1
     5    5   12 2
     6    6   12 2
     7    7   15 ar
     8    8   18 1
     9    9   10 1
    10   11   37 ar
    11   12   40 1
    12   13   14 1
    13   15    9 1
    14   16   15 ar
    15   17   16 1
    16   18   16 ar
    17   19   18 ar
    18   20   19 1
    19   21    7 ar
    20   22   21 1
    21   23    9 1
    22   24   23 1
    23   25   23 1
    24   26   23 1
    25   27   26 1
    26   28   26 1
    27   29   26 1
    28   30   13 1
    29   31   30 1
    30   32   30 1
    31   33   30 1
    32   34   33 1
    33   35   33 1
    34   36   33 1
    35   37   13 1
    36   38   37 ar
    37   39   38 1
    38   40   38 ar
    39   41   11 ar
    40   42   41 1
    41   43   40 ar
    42   44   43 1
    43   19   21 ar
    44   41   43 ar
@<TRIPOS>SUBSTRUCTURE
     1 RES1 1
     2 RES2 4

@<TRIPOS>CRYSIN
  12.6780   11.5910   11.5350  90.0000  99.8800  90.0000  14 1

