# MOL2 file generated by ConQuest
# Please check atom types

@<TRIPOS>MOLECULE
KAJGAG
    57    59     1
SMALL
NO_CHARGES
****
Generated from CSD

@<TRIPOS>ATOM
      1 O1         1.8467    9.7339    2.9031 O.3       1 RES1    0.0000
      2 O2         1.0474    8.8119    1.0173 O.2       1 RES1    0.0000
      3 O3        -2.8345    6.3416    6.5429 O.2       1 RES1    0.0000
      4 O4        -4.1589    6.3299    4.8400 O.2       1 RES1    0.0000
      5 N1        -3.0942    6.6028    5.3749 N.pl3     1 RES1    0.0000
      6 C1         3.0165   10.2271    2.1781 C.3       1 RES1    0.0000
      7 H1         2.7550   10.5285    1.2723 H         1 RES1    0.0000
      8 H2         3.6898    9.5071    2.0857 H         1 RES1    0.0000
      9 C2         3.5844   11.3693    2.9601 C.2       1 RES1    0.0000
     10 C3         4.7558   11.2862    3.5874 C.2       1 RES1    0.0000
     11 C4         5.3658   12.4323    4.3399 C.3       1 RES1    0.0000
     12 H3         4.8731   13.2549    4.1373 H         1 RES1    0.0000
     13 H4         6.3024   12.5376    4.0705 H         1 RES1    0.0000
     14 H5         5.3210   12.2530    5.3021 H         1 RES1    0.0000
     15 C5         5.5670   10.0178    3.5985 C.2       1 RES1    0.0000
     16 C6         5.2630    9.0081    4.4349 C.2       1 RES1    0.0000
     17 C7         5.9616    7.6696    4.4611 C.3       1 RES1    0.0000
     18 H6         6.6312    7.6645    5.1762 H         1 RES1    0.0000
     19 H7         6.4033    7.5150    3.5992 H         1 RES1    0.0000
     20 H8         5.3055    6.9614    4.6237 H         1 RES1    0.0000
     21 C8         4.1556    9.0926    5.4378 C.3       1 RES1    0.0000
     22 H9         3.4231    8.5026    5.1651 H         1 RES1    0.0000
     23 H10        3.8296   10.0152    5.4889 H         1 RES1    0.0000
     24 H11        4.4898    8.8145    6.3168 H         1 RES1    0.0000
     25 C9         6.7019    9.9750    2.6225 C.ar      1 RES1    0.0000
     26 C10        6.5481   10.4818    1.3358 C.ar      1 RES1    0.0000
     27 H12        5.7249   10.8924    1.0946 H         1 RES1    0.0000
     28 C11        7.5649   10.4025    0.4005 C.ar      1 RES1    0.0000
     29 H13        7.4313   10.7482   -0.4752 H         1 RES1    0.0000
     30 C12        8.7718    9.8216    0.7374 C.ar      1 RES1    0.0000
     31 H14        9.4665    9.7488    0.0944 H         1 RES1    0.0000
     32 C13        8.9546    9.3499    2.0234 C.ar      1 RES1    0.0000
     33 H15        9.7876    8.9614    2.2646 H         1 RES1    0.0000
     34 C14        7.9455    9.4331    2.9647 C.ar      1 RES1    0.0000
     35 H16        8.0967    9.1199    3.8489 H         1 RES1    0.0000
     36 C15        2.6887   12.5740    2.9771 C.ar      1 RES1    0.0000
     37 C16        1.8780   12.8196    4.0724 C.ar      1 RES1    0.0000
     38 H17        1.9368   12.2595    4.8367 H         1 RES1    0.0000
     39 C17        0.9712   13.8865    4.0619 C.ar      1 RES1    0.0000
     40 H18        0.4143   14.0398    4.8157 H         1 RES1    0.0000
     41 C18        0.8855   14.7090    2.9680 C.ar      1 RES1    0.0000
     42 H19        0.2771   15.4394    2.9660 H         1 RES1    0.0000
     43 C19        1.6885   14.4699    1.8687 C.ar      1 RES1    0.0000
     44 H20        1.6287   15.0339    1.1071 H         1 RES1    0.0000
     45 C20        2.5826   13.4069    1.8720 C.ar      1 RES1    0.0000
     46 H21        3.1279   13.2484    1.1104 H         1 RES1    0.0000
     47 C21        0.9692    9.0172    2.2017 C.2       1 RES1    0.0000
     48 C22       -0.1077    8.4675    3.0702 C.ar      1 RES1    0.0000
     49 C23        0.1036    8.2414    4.4297 C.ar      1 RES1    0.0000
     50 H22        0.9192    8.5065    4.8361 H         1 RES1    0.0000
     51 C24       -0.8793    7.6333    5.1821 C.ar      1 RES1    0.0000
     52 H23       -0.7380    7.4591    6.1050 H         1 RES1    0.0000
     53 C25       -2.0689    7.2785    4.5804 C.ar      1 RES1    0.0000
     54 C26       -2.3169    7.5111    3.2374 C.ar      1 RES1    0.0000
     55 H24       -3.1460    7.2694    2.8428 H         1 RES1    0.0000
     56 C27       -1.3154    8.1050    2.4895 C.ar      1 RES1    0.0000
     57 H25       -1.4578    8.2674    1.5646 H         1 RES1    0.0000
@<TRIPOS>BOND
     1    1    6 1
     2    2   47 2
     3    3    5 2
     4    4    5 2
     5    5   53 1
     6    6    7 1
     7    8    6 1
     8    9    6 1
     9   10    9 2
    10   11   10 1
    11   12   11 1
    12   13   11 1
    13   14   11 1
    14   15   10 1
    15   16   15 2
    16   17   16 1
    17   18   17 1
    18   19   17 1
    19   20   17 1
    20   21   16 1
    21   22   21 1
    22   23   21 1
    23   24   21 1
    24   25   15 1
    25   26   25 ar
    26   27   26 1
    27   28   26 ar
    28   29   28 1
    29   30   28 ar
    30   31   30 1
    31   32   30 ar
    32   33   32 1
    33   34   25 ar
    34   35   34 1
    35   36    9 1
    36   37   36 ar
    37   38   37 1
    38   39   37 ar
    39   40   39 1
    40   41   39 ar
    41   42   41 1
    42   43   41 ar
    43   44   43 1
    44   45   36 ar
    45   46   45 1
    46   47    1 1
    47   48   47 1
    48   49   48 ar
    49   50   49 1
    50   51   49 ar
    51   52   51 1
    52   53   51 ar
    53   54   53 ar
    54   55   54 1
    55   56   48 ar
    56   57   56 1
    57   32   34 ar
    58   43   45 ar
    59   54   56 ar
@<TRIPOS>SUBSTRUCTURE
     1 RES1 1

@<TRIPOS>CRYSIN
  25.8930   12.9950    6.5547  90.0000  90.0000  90.0000  33 1

