# MOL2 file generated by ConQuest
# Please check atom types

@<TRIPOS>MOLECULE
KAJPOD
    29    31     1
SMALL
NO_CHARGES
****
Generated from CSD

@<TRIPOS>ATOM
      1 C1         7.1518    3.2705    7.6247 C.2       1 RES1    0.0000
      2 C2         8.1281    2.5892    6.6604 C.3       1 RES1    0.0000
      3 C3         7.6137    2.4520    5.2544 C.ar      1 RES1    0.0000
      4 C4         8.3555    2.4781    4.0666 C.ar      1 RES1    0.0000
      5 C5         7.6887    2.4658    2.8426 C.ar      1 RES1    0.0000
      6 C6         6.2921    2.4760    2.7351 C.ar      1 RES1    0.0000
      7 C7         5.5887    2.4455    3.9241 C.ar      1 RES1    0.0000
      8 C8         6.2499    2.3715    5.1290 C.ar      1 RES1    0.0000
      9 C9         5.2715    2.3998    6.2610 C.3       1 RES1    0.0000
     10 C10        4.0313    2.9338    5.5062 C.3       1 RES1    0.0000
     11 C11        4.7494    5.1333    8.2189 C.3       1 RES1    0.0000
     12 C12        5.0278    1.0319    6.8889 C.3       1 RES1    0.0000
     13 N1         5.8319    3.3540    7.2228 N.am      1 RES1    0.0000
     14 O1         4.9158    3.7054    8.2377 O.3       1 RES1    0.0000
     15 O2         7.5325    3.7538    8.6746 O.2       1 RES1    0.0000
     16 O3         4.2218    2.5528    4.1043 O.3       1 RES1    0.0000
     17 H1         8.2828    1.6835    7.0524 H         1 RES1    0.0000
     18 H2         8.9464    3.1276    6.6975 H         1 RES1    0.0000
     19 H3         9.3566    2.5398    4.0806 H         1 RES1    0.0000
     20 H4         8.1698    2.5180    2.0314 H         1 RES1    0.0000
     21 H5         5.8388    2.5398    1.8895 H         1 RES1    0.0000
     22 H6         3.1669    2.5108    5.8104 H         1 RES1    0.0000
     23 H7         3.9871    3.9186    5.5621 H         1 RES1    0.0000
     24 H8         4.3751    5.4279    7.3451 H         1 RES1    0.0000
     25 H9         4.1450    5.3191    8.9774 H         1 RES1    0.0000
     26 H10        5.6106    5.5876    8.3919 H         1 RES1    0.0000
     27 H11        4.3753    1.0957    7.6201 H         1 RES1    0.0000
     28 H12        5.8582    0.6531    7.2120 H         1 RES1    0.0000
     29 H13        4.6095    0.4064    6.2185 H         1 RES1    0.0000
@<TRIPOS>BOND
     1    1    2 1
     2    2    3 1
     3    3    4 ar
     4    4    5 ar
     5    5    6 ar
     6    6    7 ar
     7    7    8 ar
     8    8    3 ar
     9    9    8 1
    10   10    9 1
    11   11   14 1
    12   12    9 1
    13   13    1 1
    14   14   13 1
    15   15    1 2
    16   16    7 1
    17   17    2 1
    18   18    2 1
    19   19    4 1
    20   20    5 1
    21   21    6 1
    22   22   10 1
    23   23   10 1
    24   24   11 1
    25   25   11 1
    26   26   11 1
    27   27   12 1
    28   28   12 1
    29   29   12 1
    30    9   13 1
    31   10   16 1
@<TRIPOS>SUBSTRUCTURE
     1 RES1 1

@<TRIPOS>CRYSIN
   8.3112    7.2566    8.9068  90.0000  95.1460  90.0000   4 1

