# MOL2 file generated by ConQuest
# Please check atom types

@<TRIPOS>MOLECULE
KAJQAQ
    36    39     1
SMALL
NO_CHARGES
****
Generated from CSD

@<TRIPOS>ATOM
      1 C1         3.7682    5.3600    2.4733 C.ar      1 RES1    0.0000
      2 C2         4.4091    6.4643    1.9579 C.ar      1 RES1    0.0000
      3 C3         5.7816    6.4778    1.8079 C.ar      1 RES1    0.0000
      4 H1         6.2448    7.2469    1.4983 H         1 RES1    0.0000
      5 C4         6.4526    5.2912    2.1393 C.ar      1 RES1    0.0000
      6 H2         7.3997    5.2702    2.0730 H         1 RES1    0.0000
      7 C5         5.7872    4.1420    2.5614 C.ar      1 RES1    0.0000
      8 H3         6.2756    3.3444    2.7262 H         1 RES1    0.0000
      9 C6         4.4011    4.1644    2.7428 C.ar      1 RES1    0.0000
     10 C7         3.5074    3.0242    3.1448 C.3       1 RES1    0.0000
     11 H4         3.4891    2.9703    4.1337 H         1 RES1    0.0000
     12 H5         3.9016    2.1802    2.8082 H         1 RES1    0.0000
     13 C8         2.0744    3.1274    2.6372 C.2       1 RES1    0.0000
     14 C9         2.2978    5.6039    2.5204 C.3       1 RES1    0.0000
     15 C10        2.2153    6.7292    1.4477 C.3       1 RES1    0.0000
     16 H6         2.1820    6.3087    0.5416 H         1 RES1    0.0000
     17 C11        1.0814    7.7183    1.5654 C.3       1 RES1    0.0000
     18 H7         0.2650    7.3113    1.1826 H         1 RES1    0.0000
     19 H8         1.3005    8.5173    1.0247 H         1 RES1    0.0000
     20 C12        0.7813    8.1642    2.9974 C.3       1 RES1    0.0000
     21 H9         1.5392    8.6939    3.3497 H         1 RES1    0.0000
     22 H10       -0.0281    8.7343    3.0087 H         1 RES1    0.0000
     23 C13        0.5593    6.9327    3.8765 C.3       1 RES1    0.0000
     24 H11       -0.1884    6.3940    3.5146 H         1 RES1    0.0000
     25 H12        0.3200    7.2155    4.7939 H         1 RES1    0.0000
     26 C14        1.8288    6.0887    3.9140 C.3       1 RES1    0.0000
     27 H13        1.6691    5.2986    4.4896 H         1 RES1    0.0000
     28 H14        2.5538    6.6214    4.3282 H         1 RES1    0.0000
     29 C15        0.0297    3.9923    0.5058 C.3       1 RES1    0.0000
     30 H15        0.4926    4.5729   -0.1334 H         1 RES1    0.0000
     31 H16       -0.9348    4.0192    0.3331 H         1 RES1    0.0000
     32 H17        0.3535    3.0735    0.4064 H         1 RES1    0.0000
     33 N1         1.6751    4.3453    2.1079 N.am      1 RES1    0.0000
     34 O1         3.5037    7.4346    1.5968 O.3       1 RES1    0.0000
     35 O2         1.3258    2.1636    2.6512 O.2       1 RES1    0.0000
     36 O3         0.2900    4.4508    1.8480 O.3       1 RES1    0.0000
@<TRIPOS>BOND
     1    1    2 ar
     2    2    3 ar
     3    3    4 1
     4    5    3 ar
     5    6    5 1
     6    7    5 ar
     7    8    7 1
     8    9    1 ar
     9   10    9 1
    10   11   10 1
    11   12   10 1
    12   13   10 1
    13   14    1 1
    14   15   14 1
    15   16   15 1
    16   17   15 1
    17   18   17 1
    18   19   17 1
    19   20   17 1
    20   21   20 1
    21   22   20 1
    22   23   20 1
    23   24   23 1
    24   25   23 1
    25   26   14 1
    26   27   26 1
    27   28   26 1
    28   29   30 1
    29   31   29 1
    30   32   29 1
    31   33   13 1
    32   34    2 1
    33   35   13 2
    34   36   29 1
    35    7    9 ar
    36   14   33 1
    37   15   34 1
    38   23   26 1
    39   33   36 1
@<TRIPOS>SUBSTRUCTURE
     1 RES1 1

@<TRIPOS>CRYSIN
   9.6015   14.9637    8.9947  90.0000 104.1710  90.0000  14 1

