# MOL2 file generated by ConQuest
# Please check atom types

@<TRIPOS>MOLECULE
KAJSOD
    44    48     1
SMALL
NO_CHARGES
****
Generated from CSD

@<TRIPOS>ATOM
      1 O1         4.1033    3.5195    4.8531 O.3       1 RES1    0.0000
      2 O2         4.3121    1.1939    4.9691 O.3       1 RES1    0.0000
      3 O3        -2.0740    4.5551    4.2250 O.2       1 RES1    0.0000
      4 O4        -1.9162    3.9333    6.1837 O.2       1 RES1    0.0000
      5 N1        -1.4133    4.2416    5.1772 N.pl3     1 RES1    0.0000
      6 C1         4.0871    2.3678    6.9908 C.2       1 RES1    0.0000
      7 C2         2.8347    2.7605    7.1888 C.2       1 RES1    0.0000
      8 C3         2.0814    3.3464    6.0891 C.ar      1 RES1    0.0000
      9 C4         0.6874    3.5744    6.1130 C.ar      1 RES1    0.0000
     10 C5         0.0607    4.1508    5.0536 C.ar      1 RES1    0.0000
     11 C6         0.7501    4.6417    3.9034 C.ar      1 RES1    0.0000
     12 C7         2.1564    4.4094    3.8757 C.ar      1 RES1    0.0000
     13 C8         2.7687    3.7233    4.9590 C.ar      1 RES1    0.0000
     14 C9         0.1791    5.3426    2.8100 C.ar      1 RES1    0.0000
     15 C10        0.9524    5.8092    1.7997 C.ar      1 RES1    0.0000
     16 C11        2.3374    5.5653    1.7720 C.ar      1 RES1    0.0000
     17 C12        2.9146    4.8802    2.7961 C.ar      1 RES1    0.0000
     18 C13        5.3803    0.7337    4.0888 C.3       1 RES1    0.0000
     19 C14        5.0195    1.0113    2.6485 C.3       1 RES1    0.0000
     20 C15        5.5519   -0.7537    4.3499 C.3       1 RES1    0.0000
     21 C16        6.1576    2.5082    5.4383 C.ar      1 RES1    0.0000
     22 C17        7.0435    3.4108    5.9995 C.ar      1 RES1    0.0000
     23 C18        8.3735    3.3168    5.6250 C.ar      1 RES1    0.0000
     24 C19        8.7941    2.3509    4.7409 C.ar      1 RES1    0.0000
     25 C20        7.8923    1.4631    4.1720 C.ar      1 RES1    0.0000
     26 C21        6.5601    1.5497    4.5479 C.ar      1 RES1    0.0000
     27 C22        4.6626    2.3963    5.6098 C.3       1 RES1    0.0000
     28 H1         4.6704    1.9529    7.7438 H         1 RES1    0.0000
     29 H2         2.3620    2.6497    8.0338 H         1 RES1    0.0000
     30 H3         0.1875    3.2936    6.8988 H         1 RES1    0.0000
     31 H4        -0.7497    5.4471    2.8755 H         1 RES1    0.0000
     32 H5         0.5060    6.3022    0.9837 H         1 RES1    0.0000
     33 H6         2.8694    5.9644    1.0468 H         1 RES1    0.0000
     34 H7         3.9352    4.6343    2.8251 H         1 RES1    0.0000
     35 H8         6.7505    4.1698    6.6591 H         1 RES1    0.0000
     36 H9         9.0396    3.9903    6.0159 H         1 RES1    0.0000
     37 H10        9.7370    2.3013    4.4899 H         1 RES1    0.0000
     38 H11        8.1388    0.7706    3.4431 H         1 RES1    0.0000
     39 H12        5.7429    0.8234    2.0810 H         1 RES1    0.0000
     40 H13        4.2348    0.5700    2.3711 H         1 RES1    0.0000
     41 H14        4.8565    2.0268    2.5476 H         1 RES1    0.0000
     42 H15        4.7701   -1.2034    4.1493 H         1 RES1    0.0000
     43 H16        6.3053   -1.1295    3.7710 H         1 RES1    0.0000
     44 H17        5.6708   -0.8867    5.3727 H         1 RES1    0.0000
@<TRIPOS>BOND
     1    1   13 1
     2    2   18 1
     3    3    5 2
     4    4    5 2
     5    5   10 1
     6    6    7 2
     7    7    8 1
     8    8    9 ar
     9    9   10 ar
    10   10   11 ar
    11   11   12 ar
    12   12   13 ar
    13   13    8 ar
    14   14   11 ar
    15   15   14 ar
    16   16   15 ar
    17   17   12 ar
    18   18   19 1
    19   19   39 1
    20   20   18 1
    21   21   22 ar
    22   22   23 ar
    23   23   24 ar
    24   24   25 ar
    25   25   26 ar
    26   26   18 1
    27   27    1 1
    28   28    6 1
    29   29    7 1
    30   30    9 1
    31   31   14 1
    32   32   15 1
    33   33   16 1
    34   34   17 1
    35   35   22 1
    36   36   23 1
    37   37   24 1
    38   38   25 1
    39   40   19 1
    40   41   19 1
    41   42   20 1
    42   43   20 1
    43   44   20 1
    44    2   27 1
    45    6   27 1
    46   16   17 ar
    47   21   26 ar
    48   21   27 1
@<TRIPOS>SUBSTRUCTURE
     1 RES1 1

@<TRIPOS>CRYSIN
  13.6270   11.0370   12.6120  90.0000  90.0000  73.0300  14 3

