# MOL2 file generated by ConQuest
# Please check atom types

@<TRIPOS>MOLECULE
KAKHEJ
   102   108     2
SMALL
NO_CHARGES
****
Generated from CSD

@<TRIPOS>ATOM
      1 C1        -0.1767    5.3243    5.9259 C.ar      1 RES1    0.0000
      2 C2        -1.3364    5.9673    6.3193 C.ar      1 RES1    0.0000
      3 C3        -2.3151    5.2157    6.9943 C.ar      1 RES1    0.0000
      4 C4        -2.0901    3.8806    7.3180 C.ar      1 RES1    0.0000
      5 C5        -0.9138    3.2028    6.9245 C.ar      1 RES1    0.0000
      6 C6        -0.0006    3.9645    6.2110 C.ar      1 RES1    0.0000
      7 O1         1.2008    3.3379    5.7526 O.3       1 RES1    0.0000
      8 C7        -0.7102    1.7406    7.2422 C.3       1 RES1    0.0000
      9 C8        -1.5104    7.4642    6.0558 C.3       1 RES1    0.0000
     10 C9        -0.8170    7.9025    4.7660 C.3       1 RES1    0.0000
     11 C10       -0.9850    8.2915    7.2181 C.3       1 RES1    0.0000
     12 C11       -1.8937    8.4144    8.4358 C.3       1 RES1    0.0000
     13 C12       -2.6687    7.4704    8.9965 C.3       1 RES1    0.0000
     14 C13       -3.8825    6.9195    8.2613 C.3       1 RES1    0.0000
     15 O2        -4.0948    5.5803    8.7306 O.3       1 RES1    0.0000
     16 C14       -3.6434    5.7932    7.3854 C.3       1 RES1    0.0000
     17 C15       -5.1621    7.6772    8.1278 C.3       1 RES1    0.0000
     18 C16        1.2254    2.9427    4.4724 C.2       1 RES1    0.0000
     19 O3         0.2814    3.0410    3.7625 O.2       1 RES1    0.0000
     20 C17        2.5514    2.3632    4.0681 C.ar      1 RES1    0.0000
     21 C18        2.7140    2.0437    2.7445 C.ar      1 RES1    0.0000
     22 C19        3.9431    1.5256    2.3030 C.ar      1 RES1    0.0000
     23 C20        4.9325    1.3454    3.2090 C.ar      1 RES1    0.0000
     24 N1         6.2166    0.7700    2.7457 N.pl3     1 RES1    0.0000
     25 O4         6.9991    0.3747    3.6229 O.2       1 RES1    0.0000
     26 O5         6.4221    0.7065    1.5678 O.2       1 RES1    0.0000
     27 C21        4.8013    1.6731    4.5361 C.ar      1 RES1    0.0000
     28 C22        3.5895    2.1952    4.9801 C.ar      1 RES1    0.0000
     29 C23        7.4900   11.5680    0.7520 C.ar      2 RES2    0.0000
     30 C24        6.5990   10.8800    1.6159 C.ar      2 RES2    0.0000
     31 C25        5.9023   11.6233    2.5701 C.ar      2 RES2    0.0000
     32 C26        6.0859   12.9994    2.6567 C.ar      2 RES2    0.0000
     33 C27        6.9975   13.6834    1.8469 C.ar      2 RES2    0.0000
     34 C28        7.6673   12.9093    0.9157 C.ar      2 RES2    0.0000
     35 O6         8.5732   13.5974   -0.0445 O.3       2 RES2    0.0000
     36 C29        7.2098   15.1762    2.0455 C.3       2 RES2    0.0000
     37 C30        6.3666    9.3789    1.4318 C.3       2 RES2    0.0000
     38 C31        7.6720    8.6233    1.0276 C.3       2 RES2    0.0000
     39 C32        5.2143    9.1086    0.4368 C.3       2 RES2    0.0000
     40 C33        3.8071    9.0718    0.9421 C.3       2 RES2    0.0000
     41 C34        3.3424   10.2595    1.7230 C.3       2 RES2    0.0000
     42 C35        3.7627   10.2759    3.2294 C.3       2 RES2    0.0000
     43 O7         3.7490   11.5967    3.8286 O.3       2 RES2    0.0000
     44 C36        5.0157   10.9414    3.5627 C.3       2 RES2    0.0000
     45 C37        3.2387    9.2008    4.1379 C.3       2 RES2    0.0000
     46 C38        9.6779   13.6895    0.5029 C.2       2 RES2    0.0000
     47 O8        10.0962   13.3496    1.5016 O.2       2 RES2    0.0000
     48 C39       10.6951   14.4288   -0.5366 C.ar      2 RES2    0.0000
     49 C40       10.3305   14.6561   -1.8722 C.ar      2 RES2    0.0000
     50 C41       11.3483   15.2172   -2.7566 C.ar      2 RES2    0.0000
     51 C42       12.5709   15.4568   -2.1947 C.ar      2 RES2    0.0000
     52 N2        13.6834   15.9769   -3.1019 N.pl3     2 RES2    0.0000
     53 O9        14.6836   16.3394   -2.6314 O.2       2 RES2    0.0000
     54 O10       13.4209   16.0343   -4.2738 O.2       2 RES2    0.0000
     55 C43       12.8386   15.2623   -0.8976 C.ar      2 RES2    0.0000
     56 C44       11.9387   14.7462   -0.0445 C.ar      2 RES2    0.0000
     57 H1         0.5971    5.8731    5.3916 H         1 RES1    0.0000
     58 H2        -2.8382    3.3420    7.9003 H         1 RES1    0.0000
     59 H3        -1.5694    1.3638    7.7969 H         1 RES1    0.0000
     60 H4         0.1911    1.6239    7.8438 H         1 RES1    0.0000
     61 H5        -0.6024    1.1775    6.3145 H         1 RES1    0.0000
     62 H6        -2.5822    7.6322    5.9499 H         1 RES1    0.0000
     63 H7        -1.1911    7.3106    3.9309 H         1 RES1    0.0000
     64 H8         0.2582    7.7509    4.8646 H         1 RES1    0.0000
     65 H9        -1.0205    8.9571    4.5855 H         1 RES1    0.0000
     66 H10       -0.0544    7.8369    7.5574 H         1 RES1    0.0000
     67 H11       -0.7818    9.2950    6.8403 H         1 RES1    0.0000
     68 H12       -2.5899    9.2090    8.1675 H         1 RES1    0.0000
     69 H13       -1.2422    8.7584    9.2395 H         1 RES1    0.0000
     70 H14       -2.0110    6.6246    9.2022 H         1 RES1    0.0000
     71 H15       -3.0354    7.8820    9.9362 H         1 RES1    0.0000
     72 H16       -3.9696    5.6007    6.3626 H         1 RES1    0.0000
     73 H17       -4.9488    8.6909    7.7884 H         1 RES1    0.0000
     74 H18       -5.6566    7.7161    9.0988 H         1 RES1    0.0000
     75 H19       -5.8142    7.1816    7.4070 H         1 RES1    0.0000
     76 H20        1.8947    2.1891    2.0395 H         1 RES1    0.0000
     77 H21        4.0960    1.2717    1.2538 H         1 RES1    0.0000
     78 H22        5.6324    1.5338    5.2292 H         1 RES1    0.0000
     79 H23        3.4524    2.4615    6.0281 H         1 RES1    0.0000
     80 H24        8.0340   11.0274   -0.0241 H         2 RES2    0.0000
     81 H25        5.4965   13.5626    3.3811 H         2 RES2    0.0000
     82 H26        7.9291   15.5428    1.3115 H         2 RES2    0.0000
     83 H27        7.5900   15.3605    3.0502 H         2 RES2    0.0000
     84 H28        6.2616   15.6984    1.9143 H         2 RES2    0.0000
     85 H29        6.0583    8.9673    2.3932 H         2 RES2    0.0000
     86 H30        8.4342    8.8014    1.7856 H         2 RES2    0.0000
     87 H31        8.0225    8.9960    0.0650 H         2 RES2    0.0000
     88 H32        7.4766    7.5543    0.9530 H         2 RES2    0.0000
     89 H33        5.4133    8.1441   -0.0301 H         2 RES2    0.0000
     90 H34        5.2587    9.8950   -0.3177 H         2 RES2    0.0000
     91 H35        3.1501    8.9632    0.0794 H         2 RES2    0.0000
     92 H36        3.7126    8.1953    1.5846 H         2 RES2    0.0000
     93 H37        3.7497   11.1523    1.2513 H         2 RES2    0.0000
     94 H38        2.2539   10.2861    1.6749 H         2 RES2    0.0000
     95 H39        5.8940   10.5933    4.1066 H         2 RES2    0.0000
     96 H40        3.2478    8.2465    3.6097 H         2 RES2    0.0000
     97 H41        2.2178    9.4424    4.4339 H         2 RES2    0.0000
     98 H42        3.8681    9.1291    5.0246 H         2 RES2    0.0000
     99 H43        9.3301   14.4206   -2.2344 H         2 RES2    0.0000
    100 H44       11.1449   15.4281   -3.8058 H         2 RES2    0.0000
    101 H45       13.8231   15.5387   -0.5186 H         2 RES2    0.0000
    102 H46       12.1909   14.5762    1.0023 H         2 RES2    0.0000
@<TRIPOS>BOND
     1    1    2 ar
     2    2    3 ar
     3    3    4 ar
     4    4    5 ar
     5    5    6 ar
     6    6    1 ar
     7    7    6 1
     8    8    5 1
     9    9    2 1
    10   10    9 1
    11   11    9 1
    12   12   11 1
    13   13   12 1
    14   14   13 1
    15   15   14 1
    16   16    3 1
    17   17   14 1
    18   18    7 1
    19   19   18 2
    20   20   18 1
    21   21   20 ar
    22   22   21 ar
    23   23   22 ar
    24   24   23 1
    25   25   24 2
    26   26   24 2
    27   27   23 ar
    28   28   20 ar
    29   29   30 ar
    30   30   31 ar
    31   31   32 ar
    32   32   33 ar
    33   33   34 ar
    34   34   29 ar
    35   35   34 1
    36   36   33 1
    37   37   30 1
    38   38   37 1
    39   39   37 1
    40   40   39 1
    41   41   40 1
    42   42   41 1
    43   43   42 1
    44   44   31 1
    45   45   42 1
    46   46   35 1
    47   47   46 2
    48   48   46 1
    49   49   48 ar
    50   50   49 ar
    51   51   50 ar
    52   52   51 1
    53   53   52 2
    54   54   52 2
    55   55   51 ar
    56   56   48 ar
    57   57    1 1
    58   58    4 1
    59   59    8 1
    60   60    8 1
    61   61    8 1
    62   62    9 1
    63   63   10 1
    64   64   10 1
    65   65   10 1
    66   66   11 1
    67   67   11 1
    68   68   12 1
    69   69   12 1
    70   70   13 1
    71   71   13 1
    72   72   16 1
    73   73   17 1
    74   74   17 1
    75   75   17 1
    76   76   21 1
    77   77   22 1
    78   78   27 1
    79   79   28 1
    80   80   29 1
    81   81   32 1
    82   82   36 1
    83   83   36 1
    84   84   36 1
    85   85   37 1
    86   86   38 1
    87   87   38 1
    88   88   38 1
    89   89   39 1
    90   90   39 1
    91   91   40 1
    92   92   40 1
    93   93   41 1
    94   94   41 1
    95   95   44 1
    96   96   45 1
    97   97   45 1
    98   98   45 1
    99   99   49 1
   100  100   50 1
   101  101   55 1
   102  102   56 1
   103   14   16 1
   104   15   16 1
   105   27   28 ar
   106   42   44 1
   107   43   44 1
   108   55   56 ar
@<TRIPOS>SUBSTRUCTURE
     1 RES1 1
     2 RES2 29

@<TRIPOS>CRYSIN
   8.2650   20.4780   12.0340  90.0000  90.9890  90.0000   4 1

