# MOL2 file generated by ConQuest
# Please check atom types

@<TRIPOS>MOLECULE
KAKJAH
   100   106     2
SMALL
NO_CHARGES
****
Generated from CSD

@<TRIPOS>ATOM
      1 C1        -0.5631    0.7718    0.8929 C.3       1 RES1    0.0000
      2 C2        -2.0775    2.3999    2.1721 C.ar      1 RES1    0.0000
      3 C3        -2.3004    3.6048    2.8379 C.ar      1 RES1    0.0000
      4 C4        -1.2569    4.5191    2.9946 C.ar      1 RES1    0.0000
      5 C5         0.0080    4.2271    2.4854 C.ar      1 RES1    0.0000
      6 C6         0.2309    3.0207    1.8196 C.ar      1 RES1    0.0000
      7 C7        -0.8126    2.1079    1.6629 C.ar      1 RES1    0.0000
      8 C8        -2.4503    0.8875   -0.8065 C.ar      1 RES1    0.0000
      9 C9        -2.9638    1.2726   -2.0448 C.ar      1 RES1    0.0000
     10 C10       -2.1174    1.8102   -3.0142 C.ar      1 RES1    0.0000
     11 C11       -0.7561    1.9640   -2.7436 C.ar      1 RES1    0.0000
     12 C12       -0.2443    1.5802   -1.5053 C.ar      1 RES1    0.0000
     13 C13       -1.0906    1.0412   -0.5359 C.ar      1 RES1    0.0000
     14 C14       -1.6238   -1.5929    0.6935 C.ar      1 RES1    0.0000
     15 C15       -2.1755   -2.7498    1.2436 C.ar      1 RES1    0.0000
     16 C16       -2.3750   -2.8401    2.6216 C.ar      1 RES1    0.0000
     17 C17       -2.0227   -1.7749    3.4486 C.ar      1 RES1    0.0000
     18 C18       -1.4710   -0.6180    2.8985 C.ar      1 RES1    0.0000
     19 C19       -1.2716   -0.5263    1.5213 C.ar      1 RES1    0.0000
     20 N1         0.8955    0.5728    0.8840 N.3       1 RES1    0.0000
     21 C20        1.4650   -0.5785    0.1763 C.3       1 RES1    0.0000
     22 C21        2.8999   -0.1820   -0.2412 C.2       1 RES1    0.0000
     23 O1         3.2435    0.8254   -0.8074 O.2       1 RES1    0.0000
     24 N2         3.6891   -1.2021    0.1674 N.am      1 RES1    0.0000
     25 C22        3.0737   -2.3915    0.7647 C.3       1 RES1    0.0000
     26 C23        1.6151   -1.9188    0.9952 C.3       1 RES1    0.0000
     27 O2         5.0654   -1.1654   -0.0623 O.3       1 RES1    0.0000
     28 C24        5.3798   -1.6155   -1.3905 C.3       1 RES1    0.0000
     29 H1        -2.8852    1.6931    2.0510 H         1 RES1    0.0000
     30 H2        -3.2804    3.8320    3.2332 H         1 RES1    0.0000
     31 H3        -1.4291    5.4517    3.5109 H         1 RES1    0.0000
     32 H4         0.8158    4.9339    2.6065 H         1 RES1    0.0000
     33 H5         1.2109    2.7950    1.4243 H         1 RES1    0.0000
     34 H6        -3.1055    0.4698   -0.0561 H         1 RES1    0.0000
     35 H7        -4.0161    1.1527   -2.2540 H         1 RES1    0.0000
     36 H8        -2.5147    2.1079   -3.9729 H         1 RES1    0.0000
     37 H9        -0.1010    2.3816   -3.4940 H         1 RES1    0.0000
     38 H10        0.8097    1.6987   -1.2961 H         1 RES1    0.0000
     39 H11       -1.4692   -1.5224   -0.3730 H         1 RES1    0.0000
     40 H12       -2.4487   -3.5752    0.6027 H         1 RES1    0.0000
     41 H13       -2.8027   -3.7361    3.0471 H         1 RES1    0.0000
     42 H14       -2.1773   -1.8440    4.5159 H         1 RES1    0.0000
     43 H15       -1.1978    0.2088    3.5394 H         1 RES1    0.0000
     44 H16        1.6092    1.4391    1.2819 H         1 RES1    0.0000
     45 H17        0.7634   -0.7873   -0.6178 H         1 RES1    0.0000
     46 H18        3.1088   -3.2338    0.0899 H         1 RES1    0.0000
     47 H19        3.5544   -2.6539    1.6949 H         1 RES1    0.0000
     48 H20        0.9171   -2.6610    0.6356 H         1 RES1    0.0000
     49 H21        1.4422   -1.7411    2.0457 H         1 RES1    0.0000
     50 H22        6.4488   -1.5746   -1.5374 H         1 RES1    0.0000
     51 H23        4.8918   -0.9778   -2.1124 H         1 RES1    0.0000
     52 H24        5.0373   -2.6313   -1.5196 H         1 RES1    0.0000
     53 C25        8.4794   12.3186    3.9622 C.3       2 RES2    0.0000
     54 C26        9.5410   14.6466    3.7673 C.ar      2 RES2    0.0000
     55 C27       10.0326   15.7245    3.0311 C.ar      2 RES2    0.0000
     56 C28       10.1817   15.6158    1.6486 C.ar      2 RES2    0.0000
     57 C29        9.8376   14.4293    1.0015 C.ar      2 RES2    0.0000
     58 C30        9.3460   13.3499    1.7368 C.ar      2 RES2    0.0000
     59 C31        9.1969   13.4586    3.1201 C.ar      2 RES2    0.0000
     60 C32        7.2238   10.3363    2.8798 C.ar      2 RES2    0.0000
     61 C33        7.2147    9.1610    2.1284 C.ar      2 RES2    0.0000
     62 C34        8.4137    8.6107    1.6789 C.ar      2 RES2    0.0000
     63 C35        9.6250    9.2358    1.9816 C.ar      2 RES2    0.0000
     64 C36        9.6357   10.4110    2.7329 C.ar      2 RES2    0.0000
     65 C37        8.4351   10.9613    3.1824 C.ar      2 RES2    0.0000
     66 C38       10.5397   12.2918    5.5317 C.ar      2 RES2    0.0000
     67 C39       11.1218   11.9616    6.7557 C.ar      2 RES2    0.0000
     68 C40       10.3617   11.3338    7.7429 C.ar      2 RES2    0.0000
     69 C41        9.0195   11.0361    7.5061 C.ar      2 RES2    0.0000
     70 C42        8.4374   11.3662    6.2821 C.ar      2 RES2    0.0000
     71 C43        9.1975   11.9941    5.2949 C.ar      2 RES2    0.0000
     72 N3         7.1368   12.7926    4.3290 N.3       2 RES2    0.0000
     73 C44        6.2769   13.3443    3.3151 C.3       2 RES2    0.0000
     74 C45        4.8033   13.0663    3.7112 C.2       2 RES2    0.0000
     75 O3         4.3375   12.0632    4.1385 O.2       2 RES2    0.0000
     76 N4         4.1752   14.2825    3.4940 N.am      2 RES2    0.0000
     77 C46        4.9036   15.3083    2.7694 C.3       2 RES2    0.0000
     78 C47        6.3407   14.9146    3.0801 C.3       2 RES2    0.0000
     79 O4         2.7796   14.3319    3.5082 O.3       2 RES2    0.0000
     80 C48        2.3280   15.0176    4.6789 C.3       2 RES2    0.0000
     81 H25        9.4274   14.7298    4.8373 H         2 RES2    0.0000
     82 H26       10.2991   16.6444    3.5323 H         2 RES2    0.0000
     83 H27       10.5618   16.4511    1.0789 H         2 RES2    0.0000
     84 H28        9.9512   14.3446   -0.0694 H         2 RES2    0.0000
     85 H29        9.0795   12.4314    1.2365 H         2 RES2    0.0000
     86 H30        6.2948   10.7623    3.2278 H         2 RES2    0.0000
     87 H31        6.2789    8.6770    1.8943 H         2 RES2    0.0000
     88 H32        8.4084    7.7007    1.0985 H         2 RES2    0.0000
     89 H33       10.5555    8.8097    1.6344 H         2 RES2    0.0000
     90 H34       10.5715   10.8950    2.9670 H         2 RES2    0.0000
     91 H35       11.1275   12.7771    4.7670 H         2 RES2    0.0000
     92 H36       12.1610   12.1916    6.9390 H         2 RES2    0.0000
     93 H37       10.8132   11.0784    8.6901 H         2 RES2    0.0000
     94 H38        8.4318   10.5507    8.2708 H         2 RES2    0.0000
     95 H39        7.3982   11.1362    6.0987 H         2 RES2    0.0000
     96 H40        6.7700   12.6417    5.2521 H         2 RES2    0.0000
     97 H41        6.6270   12.8702    2.4098 H         2 RES2    0.0000
     98 H42        4.7036   15.2603    1.7092 H         2 RES2    0.0000
     99 H43        4.6698   16.2973    3.1344 H         2 RES2    0.0000
    100 H44        6.9946   15.1531    2.2451 H         2 RES2    0.0000
@<TRIPOS>BOND
     1    1    7 1
     2    2    3 ar
     3    3    4 ar
     4    4    5 ar
     5    5    6 ar
     6    6    7 ar
     7    7    2 ar
     8    8    9 ar
     9    9   10 ar
    10   10   11 ar
    11   11   12 ar
    12   12   13 ar
    13   13    1 1
    14   14   15 ar
    15   15   16 ar
    16   16   17 ar
    17   17   18 ar
    18   18   19 ar
    19   19    1 1
    20   20    1 1
    21   21   20 1
    22   22   21 1
    23   23   22 2
    24   24   22 1
    25   25   24 1
    26   26   21 1
    27   27   24 1
    28   28   27 1
    29   29    2 1
    30   30    3 1
    31   31    4 1
    32   32    5 1
    33   33    6 1
    34   34    8 1
    35   35    9 1
    36   36   10 1
    37   37   11 1
    38   38   12 1
    39   39   14 1
    40   40   15 1
    41   41   16 1
    42   42   17 1
    43   43   18 1
    44   44   20 1
    45   45   21 1
    46   46   25 1
    47   47   25 1
    48   48   26 1
    49   49   26 1
    50   50   28 1
    51   51   28 1
    52   52   28 1
    53   53   59 1
    54   54   55 ar
    55   55   56 ar
    56   56   57 ar
    57   57   58 ar
    58   58   59 ar
    59   59   54 ar
    60   60   61 ar
    61   61   62 ar
    62   62   63 ar
    63   63   64 ar
    64   64   65 ar
    65   65   53 1
    66   66   67 ar
    67   67   68 ar
    68   68   69 ar
    69   69   70 ar
    70   70   71 ar
    71   71   53 1
    72   72   53 1
    73   73   72 1
    74   74   73 1
    75   75   74 2
    76   76   74 1
    77   77   76 1
    78   78   73 1
    79   79   76 1
    80   80   79 1
    81   81   54 1
    82   82   55 1
    83   83   56 1
    84   84   57 1
    85   85   58 1
    86   86   60 1
    87   87   61 1
    88   88   62 1
    89   89   63 1
    90   90   64 1
    91   91   66 1
    92   92   67 1
    93   93   68 1
    94   94   69 1
    95   95   70 1
    96   96   72 1
    97   97   73 1
    98   98   77 1
    99   99   77 1
   100  100   78 1
   101    8   13 ar
   102   14   19 ar
   103   25   26 1
   104   60   65 ar
   105   66   71 ar
   106   77   78 1
@<TRIPOS>SUBSTRUCTURE
     1 RES1 1
     2 RES2 53

@<TRIPOS>CRYSIN
  15.8160   14.1090    8.9100  90.0000  92.4400  90.0000   4 1

