# MOL2 file generated by ConQuest
# Please check atom types

@<TRIPOS>MOLECULE
KAKNEP
    36    37     1
SMALL
NO_CHARGES
****
Generated from CSD

@<TRIPOS>ATOM
      1 C1         2.3218    6.7913   15.2553 C.ar      1 RES1    0.0000
      2 C2         3.0327    7.6331   14.4557 C.ar      1 RES1    0.0000
      3 H1         3.5427    8.3011   14.8570 H         1 RES1    0.0000
      4 C3         3.0310    7.5395   13.0967 C.ar      1 RES1    0.0000
      5 H2         3.5176    8.1357   12.5752 H         1 RES1    0.0000
      6 C4         2.2864    6.5343   12.5183 C.ar      1 RES1    0.0000
      7 C5         1.5763    5.6395   13.2579 C.ar      1 RES1    0.0000
      8 H3         1.0949    4.9549   12.8533 H         1 RES1    0.0000
      9 C6         1.5996    5.7883   14.6327 C.ar      1 RES1    0.0000
     10 H4         1.1130    5.1942   15.1573 H         1 RES1    0.0000
     11 C7         2.3451    6.8954   16.7501 C.3       1 RES1    0.0000
     12 H5         2.4685    7.8381   16.9903 H         1 RES1    0.0000
     13 C8         3.4978    6.1005   17.3348 C.3       1 RES1    0.0000
     14 H6         3.3425    5.1567   17.1705 H         1 RES1    0.0000
     15 H7         4.3157    6.3481   16.8765 H         1 RES1    0.0000
     16 C9         3.6816    6.3158   18.8044 C.ar      1 RES1    0.0000
     17 C10        3.1475    5.4533   19.7493 C.ar      1 RES1    0.0000
     18 H8         2.6591    4.7083   19.4807 H         1 RES1    0.0000
     19 C11        3.3468    5.7103   21.0799 C.ar      1 RES1    0.0000
     20 H9         3.0138    5.1120   21.7088 H         1 RES1    0.0000
     21 C12        4.0146    6.8111   21.5097 C.ar      1 RES1    0.0000
     22 C13        4.5073    7.6279   20.4889 C.ar      1 RES1    0.0000
     23 H10        4.9646    8.3979   20.7417 H         1 RES1    0.0000
     24 C14        4.2458    7.1836   22.9951 C.3       1 RES1    0.0000
     25 H11        4.6936    8.0431   23.0393 H         1 RES1    0.0000
     26 H12        3.3874    7.2721   23.4344 H         1 RES1    0.0000
     27 C15        5.0249    6.2159   23.6840 C.3       1 RES1    0.0000
     28 H13        5.1406    6.4906   24.5942 H         1 RES1    0.0000
     29 H14        5.8834    6.1379   23.2605 H         1 RES1    0.0000
     30 H15        4.5772    5.3679   23.6588 H         1 RES1    0.0000
     31 N1         4.3770    7.3959   19.1805 N.ar      1 RES1    0.0000
     32 N2         2.2165    6.4376   11.0519 N.pl3     1 RES1    0.0000
     33 O1         1.5496    5.5521   10.5652 O.2       1 RES1    0.0000
     34 O2         2.8697    7.2232   10.3946 O.2       1 RES1    0.0000
     35 O3         1.1052    6.4584   17.2795 O.3       1 RES1    0.0000
     36 H16        0.9577    6.9297   17.8879 H         1 RES1    0.0000
@<TRIPOS>BOND
     1    1    2 ar
     2    2    3 1
     3    4    2 ar
     4    5    4 1
     5    6    4 ar
     6    7    6 ar
     7    8    7 1
     8    9    1 ar
     9   10    9 1
    10   11    1 1
    11   12   11 1
    12   13   11 1
    13   14   13 1
    14   15   13 1
    15   16   13 1
    16   17   16 ar
    17   18   17 1
    18   19   17 ar
    19   20   19 1
    20   21   19 ar
    21   22   21 ar
    22   23   22 1
    23   24   21 1
    24   25   24 1
    25   26   24 1
    26   27   24 1
    27   28   27 1
    28   29   27 1
    29   30   27 1
    30   31   16 ar
    31   32    6 1
    32   33   32 2
    33   34   32 2
    34   35   11 1
    35   36   35 1
    36    7    9 ar
    37   22   31 ar
@<TRIPOS>SUBSTRUCTURE
     1 RES1 1

@<TRIPOS>CRYSIN
   8.6280   10.4050   31.6040  90.0000  90.0000  90.0000  61 3

