# MOL2 file generated by ConQuest
# Please check atom types

@<TRIPOS>MOLECULE
KAKNAL
    37    34     2
SMALL
NO_CHARGES
****
Generated from CSD

@<TRIPOS>ATOM
      1 C1        -1.0371    1.5572   -0.8490 C.ar      1 RES1    0.0000
      2 C2        -0.5485    1.3139   -2.1111 C.ar      1 RES1    0.0000
      3 H1         0.3644    1.4011   -2.2661 H         1 RES1    0.0000
      4 C3        -1.3597    0.9507   -3.1389 C.ar      1 RES1    0.0000
      5 H2        -1.0057    0.7961   -3.9852 H         1 RES1    0.0000
      6 C4        -2.6948    0.8152   -2.9166 C.ar      1 RES1    0.0000
      7 C5        -3.2387    1.0448   -1.6844 C.ar      1 RES1    0.0000
      8 H3        -4.1532    0.9493   -1.5443 H         1 RES1    0.0000
      9 C6        -2.4069    1.4192   -0.6535 C.ar      1 RES1    0.0000
     10 H4        -2.7674    1.5823    0.1881 H         1 RES1    0.0000
     11 C7        -0.6146    1.8904    0.6755 Du        2 SUP2    0.0000
     12 H5        -1.2215    1.8674    1.3787 H         1 RES1    0.0000
     13 C8         0.0328    1.9626    0.0755 C.2       1 RES1    0.0000
     14 H6         0.8724    2.1699   -0.2675 H         1 RES1    0.0000
     15 C9         0.6567    2.1973    0.8437 Du        2 SUP2    0.0000
     16 H7         1.2890    2.2357    0.1629 Du        2 SUP2    0.0000
     17 C10       -0.1639    2.0382    1.3589 C.2       1 RES1    0.0000
     18 H8        -0.9987    1.8191    1.7059 Du        2 SUP2    0.0000
     19 C11        0.9422    2.4779    2.3045 C.ar      1 RES1    0.0000
     20 C12        0.4870    2.6366    3.5561 C.ar      1 RES1    0.0000
     21 H9        -0.4066    2.4609    3.7441 H         1 RES1    0.0000
     22 C13        1.3136    3.0523    4.5547 C.ar      1 RES1    0.0000
     23 H10        0.9785    3.1567    5.4156 H         1 RES1    0.0000
     24 C14        2.6243    3.3168    4.3070 C.ar      1 RES1    0.0000
     25 C15        3.0310    3.0943    3.0025 C.ar      1 RES1    0.0000
     26 H11        3.9287    3.2330    2.8025 H         1 RES1    0.0000
     27 C16        3.5836    3.8309    5.3666 C.3       1 RES1    0.0000
     28 H12        4.3266    4.2689    4.9242 H         1 RES1    0.0000
     29 H13        3.1246    4.4992    5.8990 H         1 RES1    0.0000
     30 C17        4.1048    2.8288    6.2460 C.3       1 RES1    0.0000
     31 H14        4.6974    3.2377    6.8804 H         1 RES1    0.0000
     32 H15        4.5860    2.1733    5.7348 H         1 RES1    0.0000
     33 H16        3.3811    2.4032    6.7108 H         1 RES1    0.0000
     34 N1         2.2229    2.6923    1.9988 N.ar      1 RES1    0.0000
     35 N2        -3.5786    0.4350   -4.0221 N.pl3     1 RES1    0.0000
     36 O1        -4.7310    0.1378   -3.7633 O.2       1 RES1    0.0000
     37 O2        -3.1283    0.4328   -5.1414 O.2       1 RES1    0.0000
@<TRIPOS>BOND
     1    1    2 ar
     2    2    3 1
     3    4    2 ar
     4    5    4 1
     5    6    4 ar
     6    7    6 ar
     7    8    7 1
     8    9    1 ar
     9   10    9 1
    10   12   17 1
    11   13    1 1
    12   14   13 1
    13   17   13 2
    14   19   17 1
    15   20   19 ar
    16   21   20 1
    17   22   20 ar
    18   23   22 1
    19   24   22 ar
    20   25   24 ar
    21   26   25 1
    22   27   24 1
    23   28   27 1
    24   29   27 1
    25   30   27 1
    26   31   30 1
    27   32   30 1
    28   33   30 1
    29   34   19 ar
    30   35    6 1
    31   36   35 2
    32   37   35 2
    33    7    9 ar
    34   25   34 ar
@<TRIPOS>SUBSTRUCTURE
     1 RES1 1
     2 SUP2 11

@<TRIPOS>CRYSIN
   6.9505    7.4182   13.8772 105.1380  93.8830 105.8870   2 1

