# MOL2 file generated by ConQuest
# Please check atom types

@<TRIPOS>MOLECULE
KAKSAR
    40    42     2
SMALL
NO_CHARGES
****
Generated from CSD

@<TRIPOS>ATOM
      1 O1         6.0244    1.8637   11.0155 O.co2     1 RES1    0.0000
      2 C1         9.2646    5.3862   16.8925 C.ar      2 RES2    0.0000
      3 O2         5.6413    4.9510   19.1743 O.3       1 RES1    0.0000
      4 C2        10.0246    6.2297   19.4904 C.ar      2 RES2    0.0000
      5 N1         4.8175    2.5426   18.4446 N.pl3     1 RES1    0.0000
      6 C3         8.8730    4.8698   15.6322 C.ar      2 RES2    0.0000
      7 C4         3.8729    2.5344   11.8800 C.3       1 RES1    0.0000
      8 C5         4.9064    3.5947   17.4408 C.ar      1 RES1    0.0000
      9 C6         3.8950    1.8018   14.3210 C.ar      1 RES1    0.0000
     10 C7         8.4158    3.5836   15.4531 C.ar      2 RES2    0.0000
     11 C8         5.3408    4.8273   17.8410 C.ar      1 RES1    0.0000
     12 C9         5.4864    5.8504   16.8902 C.ar      1 RES1    0.0000
     13 C10        4.1040    2.8108   13.3592 C.ar      1 RES1    0.0000
     14 C11        9.1843    4.5091   17.9958 C.ar      2 RES2    0.0000
     15 C12        4.1404    2.0254   15.6432 C.ar      1 RES1    0.0000
     16 C13        4.5097    4.0478   13.7749 C.ar      1 RES1    0.0000
     17 O3        10.0140    6.2714   14.1817 O.2       2 RES2    0.0000
     18 N2         8.9391    5.7446   14.4581 N.pl3     2 RES2    0.0000
     19 C14       10.0823    7.1023   18.3761 C.ar      2 RES2    0.0000
     20 C15        5.1969    5.5918   15.5857 C.ar      1 RES1    0.0000
     21 C16        9.5754    4.9696   19.2782 C.ar      2 RES2    0.0000
     22 O4         8.4710    7.0732   22.1857 O.co2     2 RES2    0.0000
     23 C17        8.3487    2.7475   16.5719 C.ar      2 RES2    0.0000
     24 O5         9.3109    8.7752   21.0625 O.co2     2 RES2    0.0000
     25 C18        9.7283    6.7014   17.1224 C.ar      2 RES2    0.0000
     26 O6         4.5754    0.2951   11.5837 O.co2     1 RES1    0.0000
     27 O7         3.9416    2.5642   19.2539 O.2       1 RES1    0.0000
     28 C19        4.9139    1.5418   11.4289 C.2       1 RES1    0.0000
     29 C20        7.7029    1.8428   13.9849 C.3       2 RES2    0.0000
     30 C21        8.7068    3.1991   17.8012 C.ar      2 RES2    0.0000
     31 O8         7.9350    5.9361   13.8147 O.2       2 RES2    0.0000
     32 C22        6.1460    6.1887   19.6452 C.3       1 RES1    0.0000
     33 C23        9.3059    7.5129   21.4561 C.2       2 RES2    0.0000
     34 C24       10.4629    6.7342   20.8635 C.3       2 RES2    0.0000
     35 O9         5.6083    1.6483   18.3805 O.2       1 RES1    0.0000
     36 C25        2.4535    2.0545   11.5727 C.3       1 RES1    0.0000
     37 C26       10.9138    5.6358   21.8076 C.3       2 RES2    0.0000
     38 C27        4.5557    3.3086   16.0965 C.ar      1 RES1    0.0000
     39 C28        4.7737    4.3444   15.1236 C.ar      1 RES1    0.0000
     40 O10        8.3475    3.1074   14.1950 O.3       2 RES2    0.0000
@<TRIPOS>BOND
     1    1   28 2
     2    2    6 ar
     3    3   11 1
     4    4   19 ar
     5    5    8 1
     6    6   10 ar
     7    7   13 1
     8    8   11 ar
     9    9   13 ar
    10   10   23 ar
    11   11   12 ar
    12   12   20 ar
    13   13   16 ar
    14   14    2 ar
    15   15    9 ar
    16   16   39 ar
    17   17   18 2
    18   18    6 1
    19   19   25 ar
    20   20   39 ar
    21   21    4 ar
    22   22   33 2
    23   23   30 ar
    24   24   33 1
    25   25    2 ar
    26   26   28 1
    27   27    5 2
    28   28    7 1
    29   29   40 1
    30   30   14 ar
    31   31   18 2
    32   32    3 1
    33   33   34 1
    34   34    4 1
    35   35    5 2
    36   36    7 1
    37   37   34 1
    38   38    8 ar
    39   39   38 ar
    40   40   10 1
    41   14   21 ar
    42   15   38 ar
@<TRIPOS>SUBSTRUCTURE
     1 RES1 1
     2 RES2 2

@<TRIPOS>CRYSIN
   7.8950    7.4518   22.4176  90.0000  99.4940  90.0000   4 1

