# MOL2 file generated by ConQuest
# Please check atom types

@<TRIPOS>MOLECULE
KAKYIG
    30    30     1
SMALL
NO_CHARGES
****
Generated from CSD

@<TRIPOS>ATOM
      1 O1        -0.1434    3.4543    1.3709 O.2       1 RES1    0.0000
      2 O2        -0.5278    6.2965    0.3985 O.3       1 RES1    0.0000
      3 H1        -0.8241    5.5250    0.0725 H         1 RES1    0.0000
      4 O3        -1.2517    6.1460    3.8179 O.2       1 RES1    0.0000
      5 N1         1.8974    3.2391    2.3439 N.am      1 RES1    0.0000
      6 N2        -0.3713    6.0728    1.7661 N.am      1 RES1    0.0000
      7 C1         1.9691    1.7893    2.1032 C.3       1 RES1    0.0000
      8 H2         1.1516    1.5276    1.6667 H         1 RES1    0.0000
      9 H3         2.0021    1.3401    2.9630 H         1 RES1    0.0000
     10 C2         3.2229    1.4439    1.3147 C.3       1 RES1    0.0000
     11 H4         3.2673    0.4688    1.2077 H         1 RES1    0.0000
     12 H5         3.1379    1.8490    0.4364 H         1 RES1    0.0000
     13 C3         4.4671    1.9737    2.0151 C.3       1 RES1    0.0000
     14 H6         4.5883    1.5481    2.8873 H         1 RES1    0.0000
     15 H7         5.2406    1.7931    1.4919 H         1 RES1    0.0000
     16 C4         4.3404    3.4740    2.2481 C.3       1 RES1    0.0000
     17 H8         5.1111    3.7946    2.7391 H         1 RES1    0.0000
     18 H9         4.3028    3.9376    1.3913 H         1 RES1    0.0000
     19 C5         3.0738    3.7953    3.0308 C.3       1 RES1    0.0000
     20 H10        3.1118    3.3709    3.9187 H         1 RES1    0.0000
     21 H11        2.9581    4.7238    3.1626 H         1 RES1    0.0000
     22 C6         0.8396    3.9500    1.9287 C.2       1 RES1    0.0000
     23 C7         0.8662    5.4632    2.1650 C.3       1 RES1    0.0000
     24 H12        1.5793    5.8424    1.6441 H         1 RES1    0.0000
     25 H13        1.0020    5.6591    3.0886 H         1 RES1    0.0000
     26 C8        -1.3781    6.3614    2.6124 C.2       1 RES1    0.0000
     27 C9        -2.6100    6.9712    2.0103 C.3       1 RES1    0.0000
     28 H14       -2.4228    7.7590    1.5129 H         1 RES1    0.0000
     29 H15       -3.2575    7.1279    2.7021 H         1 RES1    0.0000
     30 H16       -2.9761    6.4036    1.3607 H         1 RES1    0.0000
@<TRIPOS>BOND
     1    1   22 2
     2    2    3 1
     3    4   26 2
     4    5    7 1
     5    6    2 1
     6    7    8 1
     7    9    7 1
     8   10    7 1
     9   11   10 1
    10   12   10 1
    11   13   10 1
    12   14   13 1
    13   15   13 1
    14   16   13 1
    15   17   16 1
    16   18   16 1
    17   19    5 1
    18   20   19 1
    19   21   19 1
    20   22    5 1
    21   23    6 1
    22   24   23 1
    23   25   23 1
    24   26    6 1
    25   27   26 1
    26   28   27 1
    27   29   27 1
    28   30   27 1
    29   16   19 1
    30   22   23 1
@<TRIPOS>SUBSTRUCTURE
     1 RES1 1

@<TRIPOS>CRYSIN
   7.8890    8.0010    9.1980 100.3500 114.1200 100.4900   2 1

