# MOL2 file generated by ConQuest
# Please check atom types

@<TRIPOS>MOLECULE
KALKEO
    54    56     2
SMALL
NO_CHARGES
****
Generated from CSD

@<TRIPOS>ATOM
      1 O1         5.3803   10.3424    2.8137 O.3       1 RES1    0.0000
      2 O2         6.6708    8.7427    3.7178 O.2       1 RES1    0.0000
      3 O3         7.1807    9.2615   -1.1972 O.3       1 RES1    0.0000
      4 H1         7.0368    8.9824   -1.9759 H         1 RES1    0.0000
      5 O4         2.8634   13.3318   -5.0612 O.2       1 RES1    0.0000
      6 O5         4.2943   14.8315   -4.4326 O.2       1 RES1    0.0000
      7 N1         6.9269    9.4279    1.5388 N.am      1 RES1    0.0000
      8 H2         7.5746    8.8367    1.3003 H         1 RES1    0.0000
      9 N2         3.8195   13.7071   -4.3718 N.pl3     1 RES1    0.0000
     10 C1         5.4434   10.9220   -1.6458 C.ar      1 RES1    0.0000
     11 C2         4.2315   10.6636   -2.2805 C.ar      1 RES1    0.0000
     12 H3         3.7644    9.8569   -2.0951 H         1 RES1    0.0000
     13 C3         3.7048   11.5710   -3.1792 C.ar      1 RES1    0.0000
     14 H4         2.8830   11.3944   -3.6224 H         1 RES1    0.0000
     15 C4         4.3974   12.7374   -3.4185 C.ar      1 RES1    0.0000
     16 C5         5.5989   13.0309   -2.8014 C.ar      1 RES1    0.0000
     17 H5         6.0571   13.8429   -2.9869 H         1 RES1    0.0000
     18 C6         6.1144   12.1144   -1.9081 C.ar      1 RES1    0.0000
     19 H6         6.9359   12.2980   -1.4673 H         1 RES1    0.0000
     20 C7         5.9976    9.8802   -0.6863 C.3       1 RES1    0.0000
     21 H7         5.3037    9.1743   -0.5424 H         1 RES1    0.0000
     22 C8         6.3873   10.4615    0.6563 C.3       1 RES1    0.0000
     23 H8         7.0528   11.1977    0.5363 H         1 RES1    0.0000
     24 C9         5.2068   10.9441    1.5065 C.3       1 RES1    0.0000
     25 H9         5.2104   11.9312    1.5758 H         1 RES1    0.0000
     26 H10        4.3493   10.6585    1.1033 H         1 RES1    0.0000
     27 C10        6.3770    9.4269    2.7430 C.2       1 RES1    0.0000
     28 O6         4.5684    5.7796    2.0036 O.3       2 RES2    0.0000
     29 O7         3.2980    7.3951    1.0941 O.2       2 RES2    0.0000
     30 O8         3.3305    7.2433    6.1699 O.3       2 RES2    0.0000
     31 H11        3.0140    7.0975    6.9340 H         2 RES2    0.0000
     32 O9         6.9945    1.1863    7.9888 O.2       2 RES2    0.0000
     33 O10        7.7578    2.7693    9.2745 O.2       2 RES2    0.0000
     34 N3         3.5365    7.1704    3.3739 N.am      2 RES2    0.0000
     35 H12        3.1071    7.8360    3.5932 H         2 RES2    0.0000
     36 N4         7.0178    2.3479    8.3805 N.pl3     2 RES2    0.0000
     37 C11        4.4895    5.0766    6.3923 C.ar      2 RES2    0.0000
     38 C12        4.1529    3.7368    6.4538 C.ar      2 RES2    0.0000
     39 H13        3.3543    3.4346    6.0391 H         2 RES2    0.0000
     40 C13        4.9687    2.8303    7.1155 C.ar      2 RES2    0.0000
     41 H14        4.7518    1.9068    7.1425 H         2 RES2    0.0000
     42 C14        6.1029    3.3115    7.7334 C.ar      2 RES2    0.0000
     43 C15        6.4417    4.6535    7.7280 C.ar      2 RES2    0.0000
     44 H15        7.2141    4.9600    8.1881 H         2 RES2    0.0000
     45 C16        5.6355    5.5352    7.0401 C.ar      2 RES2    0.0000
     46 H16        5.8608    6.4587    7.0078 H         2 RES2    0.0000
     47 C17        3.6387    6.0098    5.5436 C.3       2 RES2    0.0000
     48 H17        2.7880    5.5454    5.2982 H         2 RES2    0.0000
     49 C18        4.3796    6.3851    4.2833 C.3       2 RES2    0.0000
     50 H18        5.1996    6.9081    4.5172 H         2 RES2    0.0000
     51 C19        4.7496    5.2415    3.3477 C.3       2 RES2    0.0000
     52 H19        5.6888    4.9624    3.4901 H         2 RES2    0.0000
     53 H20        4.1582    4.4621    3.4962 H         2 RES2    0.0000
     54 C20        3.7379    6.8551    2.1059 C.2       2 RES2    0.0000
@<TRIPOS>BOND
     1    1   24 1
     2    2   27 2
     3    3    4 1
     4    5    9 2
     5    6    9 2
     6    7    8 1
     7    9   15 1
     8   10   11 ar
     9   11   12 1
    10   13   11 ar
    11   14   13 1
    12   15   13 ar
    13   16   15 ar
    14   17   16 1
    15   18   10 ar
    16   19   18 1
    17   20    3 1
    18   21   20 1
    19   22    7 1
    20   23   22 1
    21   24   22 1
    22   25   24 1
    23   26   24 1
    24   27    1 1
    25   28   51 1
    26   29   54 2
    27   30   31 1
    28   32   36 2
    29   33   36 2
    30   34   35 1
    31   36   42 1
    32   37   38 ar
    33   38   39 1
    34   40   38 ar
    35   41   40 1
    36   42   40 ar
    37   43   42 ar
    38   44   43 1
    39   45   37 ar
    40   46   45 1
    41   47   30 1
    42   48   47 1
    43   49   34 1
    44   50   49 1
    45   51   49 1
    46   52   51 1
    47   53   51 1
    48   54   28 1
    49    7   27 1
    50   10   20 1
    51   16   18 ar
    52   20   22 1
    53   34   54 1
    54   37   47 1
    55   43   45 ar
    56   47   49 1
@<TRIPOS>SUBSTRUCTURE
     1 RES1 1
     2 RES2 28

@<TRIPOS>CRYSIN
   5.6000   24.2900    7.7400  90.0000  96.2400  90.0000   4 1

