# MOL2 file generated by ConQuest
# Please check atom types

@<TRIPOS>MOLECULE
KALPEU
    50    54     2
SMALL
NO_CHARGES
****
Generated from CSD

@<TRIPOS>ATOM
      1 C1         2.1295    8.2079   18.5529 C.ar      1 RES1    0.0000
      2 H1         2.4100    7.4345   18.0783 H         1 RES1    0.0000
      3 N1         1.4377    6.3225   21.3691 N.pl3     1 RES1    0.0000
      4 O1        -1.2553    4.4221   19.8812 O.3       1 RES1    0.0000
      5 C2         2.9296    9.3444   18.5544 C.ar      1 RES1    0.0000
      6 H2         3.7550    9.3428   18.0846 H         1 RES1    0.0000
      7 O2        -1.1463    4.9354   22.0499 O.2       1 RES1    0.0000
      8 C3         2.5293   10.4739   19.2358 C.ar      1 RES1    0.0000
      9 H3         3.0831   11.2464   19.2466 H         1 RES1    0.0000
     10 O3         2.5834    6.3605   20.9426 O.2       1 RES1    0.0000
     11 C4         1.3149   10.4791   19.9073 C.ar      1 RES1    0.0000
     12 H4         1.0283   11.2606   20.3665 H         1 RES1    0.0000
     13 O4         1.1018    6.6564   22.4985 O.2       1 RES1    0.0000
     14 C5         0.5172    9.3403   19.9073 C.ar      1 RES1    0.0000
     15 H5        -0.3131    9.3475   20.3686 H         1 RES1    0.0000
     16 C6         0.9212    8.1950   19.2411 C.ar      1 RES1    0.0000
     17 C7         0.0704    6.9677   19.3211 C.3       1 RES1    0.0000
     18 H6        -0.8995    7.1049   19.1203 H         1 RES1    0.0000
     19 C8         0.6039    5.6082   19.0001 C.3       1 RES1    0.0000
     20 H7         1.5365    5.5073   18.6529 H         1 RES1    0.0000
     21 C9        -0.4347    4.5525   18.6896 C.3       1 RES1    0.0000
     22 H8        -0.9886    4.8291   17.9162 H         1 RES1    0.0000
     23 H9         0.0018    3.6904   18.4740 H         1 RES1    0.0000
     24 C10       -0.7363    5.0807   20.9405 C.2       1 RES1    0.0000
     25 C11        0.3775    5.9408   20.4361 C.3       1 RES1    0.0000
     26 C12        1.9934    2.4933   16.8649 C.ar      2 RES2    0.0000
     27 H10        2.7665    2.3830   17.4067 H         2 RES2    0.0000
     28 N2         1.9085   -1.0493   16.1279 N.pl3     2 RES2    0.0000
     29 O5         1.5142   -1.8369   19.6126 O.3       2 RES2    0.0000
     30 C13        1.9248    3.5479   15.9791 C.ar      2 RES2    0.0000
     31 H11        2.6412    4.1683   15.9206 H         2 RES2    0.0000
     32 O6         3.4028   -2.1367   18.4826 O.2       2 RES2    0.0000
     33 C14        0.8080    3.6975   15.1769 C.ar      2 RES2    0.0000
     34 H12        0.7622    4.4191   14.5607 H         2 RES2    0.0000
     35 O7         3.1139   -1.0849   15.8696 O.2       2 RES2    0.0000
     36 C15       -0.2378    2.8057   15.2653 C.ar      2 RES2    0.0000
     37 H13       -1.0036    2.9145   14.7144 H         2 RES2    0.0000
     38 O8         1.0097   -1.0789   15.3154 O.2       2 RES2    0.0000
     39 C16       -0.1722    1.7471   16.1601 C.ar      2 RES2    0.0000
     40 H14       -0.8917    1.1292   16.2153 H         2 RES2    0.0000
     41 C17        0.9398    1.5888   16.9731 C.ar      2 RES2    0.0000
     42 C18        1.0614    0.5007   17.9827 C.3       2 RES2    0.0000
     43 H15        1.4160    0.7964   18.8698 H         2 RES2    0.0000
     44 C19        0.1674   -0.6771   18.0397 C.3       2 RES2    0.0000
     45 H16       -0.6105   -0.7428   17.4152 H         2 RES2    0.0000
     46 C20        0.1409   -1.4208   19.3571 C.3       2 RES2    0.0000
     47 H17       -0.1836   -0.8311   20.0823 H         2 RES2    0.0000
     48 H18       -0.4552   -2.2095   19.2992 H         2 RES2    0.0000
     49 C21        2.3041   -1.6829   18.5271 C.2       2 RES2    0.0000
     50 C22        1.5497   -0.8931   17.5284 C.3       2 RES2    0.0000
@<TRIPOS>BOND
     1    1    2 1
     2    3   10 2
     3    4   21 1
     4    5    1 ar
     5    6    5 1
     6    7   24 2
     7    8    5 ar
     8    9    8 1
     9   11    8 ar
    10   12   11 1
    11   13    3 2
    12   14   11 ar
    13   15   14 1
    14   16    1 ar
    15   17   16 1
    16   18   17 1
    17   19   17 1
    18   20   19 1
    19   21   19 1
    20   22   21 1
    21   23   21 1
    22   24    4 1
    23   25    3 1
    24   26   27 1
    25   28   35 2
    26   29   46 1
    27   30   26 ar
    28   31   30 1
    29   32   49 2
    30   33   30 ar
    31   34   33 1
    32   36   33 ar
    33   37   36 1
    34   38   28 2
    35   39   36 ar
    36   40   39 1
    37   41   26 ar
    38   42   41 1
    39   43   42 1
    40   44   42 1
    41   45   44 1
    42   46   44 1
    43   47   46 1
    44   48   46 1
    45   49   29 1
    46   50   28 1
    47   14   16 ar
    48   17   25 1
    49   19   25 1
    50   24   25 1
    51   39   41 ar
    52   42   50 1
    53   44   50 1
    54   49   50 1
@<TRIPOS>SUBSTRUCTURE
     1 RES1 1
     2 RES2 26

@<TRIPOS>CRYSIN
   6.0206   15.7711   21.0506  90.0000  90.0000  90.0000  19 1

