# MOL2 file generated by ConQuest
# Please check atom types

@<TRIPOS>MOLECULE
KALQEU
    54    55     1
SMALL
NO_CHARGES
****
Generated from CSD

@<TRIPOS>ATOM
      1 C1         8.0771    9.0443   18.0976 C.2       1 RES1    0.0000
      2 C2         6.9786    9.8267   18.8434 C.3       1 RES1    0.0000
      3 H1         6.1099    9.7802   18.3502 H         1 RES1    0.0000
      4 C3         7.4207   11.2725   19.0295 C.3       1 RES1    0.0000
      5 H2         8.3293   11.2914   19.3969 H         1 RES1    0.0000
      6 H3         6.8090   11.7240   19.6469 H         1 RES1    0.0000
      7 H4         7.4088   11.7310   18.1646 H         1 RES1    0.0000
      8 C4         6.1417    8.0657   20.2278 C.3       1 RES1    0.0000
      9 H5         5.8994    7.8837   21.1705 H         1 RES1    0.0000
     10 H6         5.3006    8.1571   19.7140 H         1 RES1    0.0000
     11 C5         7.9788    6.6404   20.5606 C.3       1 RES1    0.0000
     12 H7         7.6749    6.5254   21.4851 H         1 RES1    0.0000
     13 H8         8.6421    7.3613   20.5209 H         1 RES1    0.0000
     14 H9         8.3849    5.8060   20.2450 H         1 RES1    0.0000
     15 C6         8.6773    7.5457   16.2520 C.ar      1 RES1    0.0000
     16 C7         8.5736    7.3669   14.8627 C.ar      1 RES1    0.0000
     17 H10        7.8904    7.8175   14.3801 H         1 RES1    0.0000
     18 C8         9.4564    6.5404   14.1914 C.ar      1 RES1    0.0000
     19 H11        9.3858    6.4198   13.2509 H         1 RES1    0.0000
     20 C9        10.4492    5.8896   14.9155 C.ar      1 RES1    0.0000
     21 C10       10.5428    6.0062   16.2950 C.ar      1 RES1    0.0000
     22 H12       11.2120    5.5318   16.7750 H         1 RES1    0.0000
     23 C11        9.6434    6.8272   16.9668 C.ar      1 RES1    0.0000
     24 H13        9.6847    6.9012   17.9119 H         1 RES1    0.0000
     25 C12        6.4304    8.5432   16.3236 C.ar      1 RES1    0.0000
     26 C13        6.0138    9.5880   15.4840 C.ar      1 RES1    0.0000
     27 C14        4.6586    9.5525   15.0965 C.ar      1 RES1    0.0000
     28 H14        4.3215   10.2585   14.5580 H         1 RES1    0.0000
     29 C15        3.7962    8.5322   15.4683 C.ar      1 RES1    0.0000
     30 H15        2.8886    8.5534   15.1870 H         1 RES1    0.0000
     31 C16        4.2533    7.4795   16.2504 C.ar      1 RES1    0.0000
     32 H16        3.6751    6.7641   16.4889 H         1 RES1    0.0000
     33 C17        5.5663    7.4969   16.6745 C.ar      1 RES1    0.0000
     34 H17        5.8905    6.7862   17.2159 H         1 RES1    0.0000
     35 C18        6.8523   10.7509   14.8959 C.3       1 RES1    0.0000
     36 C19        8.3323   10.8037   15.3012 C.3       1 RES1    0.0000
     37 H18        8.7682    9.9606   15.0581 H         1 RES1    0.0000
     38 H19        8.4018   10.9400   16.2698 H         1 RES1    0.0000
     39 H20        8.7722   11.5451   14.8338 H         1 RES1    0.0000
     40 C20        6.8050   10.6461   13.3576 C.3       1 RES1    0.0000
     41 H21        5.8726   10.6776   13.0576 H         1 RES1    0.0000
     42 H22        7.2112    9.8007   13.0756 H         1 RES1    0.0000
     43 H23        7.3005   11.3946   12.9648 H         1 RES1    0.0000
     44 C21        6.2122   12.0966   15.3084 C.3       1 RES1    0.0000
     45 H24        6.2380   12.1857   16.2852 H         1 RES1    0.0000
     46 H25        5.2808   12.1226   15.0040 H         1 RES1    0.0000
     47 H26        6.7107   12.8349   14.9008 H         1 RES1    0.0000
     48 N1         7.7627    8.4345   16.8929 N.am      1 RES1    0.0000
     49 N2        11.3888    5.0237   14.2063 N.pl3     1 RES1    0.0000
     50 O1         6.8452    9.2817   20.1661 O.3       1 RES1    0.0000
     51 O2         6.8599    6.9735   19.7274 O.3       1 RES1    0.0000
     52 O3         9.1931    9.0042   18.5863 O.2       1 RES1    0.0000
     53 O4        12.3503    4.5667   14.8225 O.2       1 RES1    0.0000
     54 O5        11.1661    4.7755   13.0220 O.2       1 RES1    0.0000
@<TRIPOS>BOND
     1    1    2 1
     2    2    3 1
     3    4    2 1
     4    5    4 1
     5    6    4 1
     6    7    4 1
     7    8    9 1
     8   10    8 1
     9   11   12 1
    10   13   11 1
    11   14   11 1
    12   15   16 ar
    13   16   17 1
    14   18   16 ar
    15   19   18 1
    16   20   18 ar
    17   21   20 ar
    18   22   21 1
    19   23   15 ar
    20   24   23 1
    21   25   26 ar
    22   26   27 ar
    23   27   28 1
    24   29   27 ar
    25   30   29 1
    26   31   29 ar
    27   32   31 1
    28   33   25 ar
    29   34   33 1
    30   35   26 1
    31   36   35 1
    32   37   36 1
    33   38   36 1
    34   39   36 1
    35   40   35 1
    36   41   40 1
    37   42   40 1
    38   43   40 1
    39   44   35 1
    40   45   44 1
    41   46   44 1
    42   47   44 1
    43   48    1 1
    44   49   20 1
    45   50    2 1
    46   51    8 1
    47   52    1 2
    48   53   49 2
    49   54   49 2
    50    8   50 1
    51   11   51 1
    52   15   48 1
    53   21   23 ar
    54   25   48 1
    55   31   33 ar
@<TRIPOS>SUBSTRUCTURE
     1 RES1 1

@<TRIPOS>CRYSIN
   9.9300    7.8790   25.7800  90.0000  90.0000  90.0000  19 1

