# MOL2 file generated by ConQuest
# Please check atom types

@<TRIPOS>MOLECULE
KALXOL
    54    56     1
SMALL
NO_CHARGES
****
Generated from CSD

@<TRIPOS>ATOM
      1 O1        -3.0898   -0.4162  -10.3611 O.2       1 RES1    0.0000
      2 O2        -3.7822   -0.0331   -8.2564 O.3       1 RES1    0.0000
      3 O3        -4.8082   -3.0492   -2.1334 O.2       1 RES1    0.0000
      4 O4        -6.4806   -2.0867   -3.1298 O.2       1 RES1    0.0000
      5 O5        -8.4982   -3.8643   -7.1630 O.2       1 RES1    0.0000
      6 N1        -8.3874   -1.6469   -7.4599 N.am      1 RES1    0.0000
      7 H1        -7.9106   -0.9053   -7.8398 H         1 RES1    0.0000
      8 N2        -5.3503   -4.0334  -10.1196 N.pl3     1 RES1    0.0000
      9 H2        -5.1596   -4.8381  -10.6065 H         1 RES1    0.0000
     10 N3        -5.4152   -2.7021   -3.1397 N.pl3     1 RES1    0.0000
     11 C1       -11.8480   -1.0197   -5.1909 C.ar      1 RES1    0.0000
     12 H3       -12.6346   -0.8718   -4.6596 H         1 RES1    0.0000
     13 C2       -11.9478   -1.2445   -6.5347 C.ar      1 RES1    0.0000
     14 H4       -12.8217   -1.2524   -6.9325 H         1 RES1    0.0000
     15 C3       -10.8203   -1.4713   -7.3490 C.ar      1 RES1    0.0000
     16 C4        -9.5993   -1.4339   -6.7148 C.ar      1 RES1    0.0000
     17 C5        -9.5156   -1.2130   -5.3493 C.ar      1 RES1    0.0000
     18 H5        -8.6489   -1.2110   -4.9376 H         1 RES1    0.0000
     19 C6       -10.6356   -1.0157   -4.6042 C.ar      1 RES1    0.0000
     20 H6       -10.5627   -0.8698   -3.6582 H         1 RES1    0.0000
     21 C7        -7.9115   -2.9032   -7.6409 C.2       1 RES1    0.0000
     22 C8        -6.6565   -3.0156   -8.4197 C.2       1 RES1    0.0000
     23 C9        -5.4682   -2.1340   -8.0664 C.3       1 RES1    0.0000
     24 H7        -5.7984   -1.2702   -7.8092 H         1 RES1    0.0000
     25 C10       -4.5377   -1.9841   -9.2647 C.2       1 RES1    0.0000
     26 C11       -4.4581   -2.9821  -10.1741 C.2       1 RES1    0.0000
     27 C12       -6.5248   -3.9702   -9.3647 C.2       1 RES1    0.0000
     28 C13       -4.8042   -2.7139   -6.8147 C.ar      1 RES1    0.0000
     29 C14       -3.7124   -3.5718   -6.8711 C.ar      1 RES1    0.0000
     30 H8        -3.3225   -3.7770   -7.7241 H         1 RES1    0.0000
     31 C15       -3.1819   -4.1339   -5.6976 C.ar      1 RES1    0.0000
     32 H9        -2.4312   -4.7296   -5.7470 H         1 RES1    0.0000
     33 C16       -3.7327   -3.8539   -4.4854 C.ar      1 RES1    0.0000
     34 H10       -3.3866   -4.2227   -3.6701 H         1 RES1    0.0000
     35 C17       -4.8196   -3.0255   -4.4429 C.ar      1 RES1    0.0000
     36 C18       -5.3549   -2.4496   -5.5689 C.ar      1 RES1    0.0000
     37 H11       -6.1089   -1.8579   -5.5026 H         1 RES1    0.0000
     38 C19       -7.5681   -4.9781   -9.7852 C.3       1 RES1    0.0000
     39 H12       -8.3422   -4.8716   -9.2281 H         1 RES1    0.0000
     40 H13       -7.2256   -5.8696   -9.6932 H         1 RES1    0.0000
     41 H14       -7.8081   -4.8203  -10.7015 H         1 RES1    0.0000
     42 C20       -3.4521   -3.1083  -11.3011 C.3       1 RES1    0.0000
     43 H15       -2.8711   -2.3431  -11.2863 H         1 RES1    0.0000
     44 H16       -3.9042   -3.1498  -12.1471 H         1 RES1    0.0000
     45 H17       -2.9326   -3.9052  -11.1764 H         1 RES1    0.0000
     46 C21       -3.7384   -0.7712   -9.3795 C.2       1 RES1    0.0000
     47 C22       -3.0130    1.2051   -8.2564 C.3       1 RES1    0.0000
     48 H18       -3.1113    1.6429   -7.4074 H         1 RES1    0.0000
     49 H19       -3.3471    1.7770   -8.9510 H         1 RES1    0.0000
     50 H20       -2.0856    1.0177   -8.4137 H         1 RES1    0.0000
     51 C23      -10.9228   -1.7889   -8.8086 C.3       1 RES1    0.0000
     52 H21      -11.8455   -1.7692   -9.0728 H         1 RES1    0.0000
     53 H22      -10.5598   -2.6626   -8.9787 H         1 RES1    0.0000
     54 H23      -10.4324   -1.1360   -9.3112 H         1 RES1    0.0000
@<TRIPOS>BOND
     1    1   46 2
     2    2   46 1
     3    3   10 2
     4    4   10 2
     5    5   21 2
     6    6    7 1
     7    8    9 1
     8   10   35 1
     9   11   12 1
    10   13   11 ar
    11   14   13 1
    12   15   13 ar
    13   16    6 1
    14   17   16 ar
    15   18   17 1
    16   19   11 ar
    17   20   19 1
    18   21    6 1
    19   22   21 1
    20   23   22 1
    21   24   23 1
    22   25   23 1
    23   26    8 1
    24   27    8 1
    25   28   23 1
    26   29   28 ar
    27   30   29 1
    28   31   29 ar
    29   32   31 1
    30   33   31 ar
    31   34   33 1
    32   35   33 ar
    33   36   28 ar
    34   37   36 1
    35   38   27 1
    36   39   38 1
    37   40   38 1
    38   41   38 1
    39   42   26 1
    40   43   42 1
    41   44   42 1
    42   45   42 1
    43   46   25 1
    44   47    2 1
    45   48   47 1
    46   49   47 1
    47   50   47 1
    48   51   15 1
    49   52   51 1
    50   53   51 1
    51   54   51 1
    52   15   16 ar
    53   17   19 ar
    54   22   27 2
    55   25   26 2
    56   35   36 ar
@<TRIPOS>SUBSTRUCTURE
     1 RES1 1

@<TRIPOS>CRYSIN
  11.0840   19.7230   11.4874  90.0000 120.5280  90.0000  14 1

