# MOL2 file generated by ConQuest
# Please check atom types

@<TRIPOS>MOLECULE
KAMBAC
    45    47     1
SMALL
NO_CHARGES
****
Generated from CSD

@<TRIPOS>ATOM
      1 C1         2.7587    3.4783   12.0733 C.3       1 RES1    0.0000
      2 C2         1.7980    2.2989   12.2957 C.3       1 RES1    0.0000
      3 H1         1.3413    2.3805   13.1482 H         1 RES1    0.0000
      4 H2         1.1369    2.2534   11.5890 H         1 RES1    0.0000
      5 C3         2.6912    1.0790   12.2781 C.3       1 RES1    0.0000
      6 H3         2.1872    0.2752   12.0737 H         1 RES1    0.0000
      7 H4         3.1483    0.9635   13.1244 H         1 RES1    0.0000
      8 C4         3.6758    1.4163   11.1581 C.3       1 RES1    0.0000
      9 H5         4.4627    0.8508   11.2026 H         1 RES1    0.0000
     10 H6         3.2615    1.3109   10.2874 H         1 RES1    0.0000
     11 C5         4.0325    2.8752   11.4215 C.3       1 RES1    0.0000
     12 C6         4.3061    3.7000   10.1664 C.3       1 RES1    0.0000
     13 H7         4.7505    4.5227   10.4602 H         1 RES1    0.0000
     14 C7         2.8829    4.1030    9.7105 C.3       1 RES1    0.0000
     15 H8         2.9112    4.8405    9.0807 H         1 RES1    0.0000
     16 H9         2.4198    3.3541    9.3044 H         1 RES1    0.0000
     17 C8         2.2256    4.5133   11.0036 C.3       1 RES1    0.0000
     18 H10        1.2598    4.4649   10.9280 H         1 RES1    0.0000
     19 H11        2.4768    5.4190   11.2466 H         1 RES1    0.0000
     20 C9         5.1768    3.0934    9.1234 C.2       1 RES1    0.0000
     21 H12        5.9184    2.6290    9.4400 H         1 RES1    0.0000
     22 C10        5.0417    3.1237    7.8387 C.2       1 RES1    0.0000
     23 H13        4.3217    3.5708    7.4571 H         1 RES1    0.0000
     24 H14        5.6653    2.6976    7.2944 H         1 RES1    0.0000
     25 C11        3.0211    4.2749   13.3322 C.3       1 RES1    0.0000
     26 H15        3.8038    4.8340   13.2092 H         1 RES1    0.0000
     27 H16        2.2630    4.8520   13.5176 H         1 RES1    0.0000
     28 C12        3.3280    3.9680   15.6490 C.2       1 RES1    0.0000
     29 C13        3.4834    2.9634   16.7425 C.ar      1 RES1    0.0000
     30 C14        3.6868    3.4335   18.0400 C.ar      1 RES1    0.0000
     31 H17        3.6834    4.3493   18.2020 H         1 RES1    0.0000
     32 C15        3.8899    2.5668   19.0772 C.ar      1 RES1    0.0000
     33 H18        4.0259    2.8817   19.9409 H         1 RES1    0.0000
     34 C16        3.8882    1.2119   18.8098 C.ar      1 RES1    0.0000
     35 C17        3.6620    0.7020   17.5465 C.ar      1 RES1    0.0000
     36 H19        3.6469   -0.2159   17.3953 H         1 RES1    0.0000
     37 C18        3.4585    1.5947   16.5140 C.ar      1 RES1    0.0000
     38 H20        3.3026    1.2748   15.6531 H         1 RES1    0.0000
     39 N1         4.1710    0.2817   19.9138 N.pl3     1 RES1    0.0000
     40 O1         5.1985    2.9894   12.2496 O.3       1 RES1    0.0000
     41 H21        5.2659    2.3213   12.7211 H         1 RES1    0.0000
     42 O2         3.2922    5.1517   15.8181 O.2       1 RES1    0.0000
     43 O3         3.2339    3.3794   14.4474 O.3       1 RES1    0.0000
     44 O4         4.1841    0.7121   21.0476 O.2       1 RES1    0.0000
     45 O5         4.4034   -0.8884   19.6345 O.2       1 RES1    0.0000
@<TRIPOS>BOND
     1    1    2 1
     2    2    3 1
     3    4    2 1
     4    5    2 1
     5    6    5 1
     6    7    5 1
     7    8    5 1
     8    9    8 1
     9   10    8 1
    10   11    1 1
    11   12   11 1
    12   13   12 1
    13   14   12 1
    14   15   14 1
    15   16   14 1
    16   17    1 1
    17   18   17 1
    18   19   17 1
    19   20   12 1
    20   21   20 1
    21   22   20 2
    22   23   22 1
    23   24   22 1
    24   25    1 1
    25   26   25 1
    26   27   25 1
    27   28   29 1
    28   29   30 ar
    29   30   31 1
    30   32   30 ar
    31   33   32 1
    32   34   32 ar
    33   35   34 ar
    34   36   35 1
    35   37   29 ar
    36   38   37 1
    37   39   34 1
    38   40   11 1
    39   41   40 1
    40   42   28 2
    41   43   25 1
    42   44   39 2
    43   45   39 2
    44    8   11 1
    45   14   17 1
    46   28   43 1
    47   35   37 ar
@<TRIPOS>SUBSTRUCTURE
     1 RES1 1

@<TRIPOS>CRYSIN
   6.7547    7.2224   34.0390  90.0000  95.2580  90.0000  14 1

