# MOL2 file generated by ConQuest
# Please check atom types

@<TRIPOS>MOLECULE
KAMJAL
    48    49     1
SMALL
NO_CHARGES
****
Generated from CSD

@<TRIPOS>ATOM
      1 C1         3.5150    2.2467   -0.9025 C.3       1 RES1    0.0000
      2 H1         4.3542    1.8785   -0.5553 H         1 RES1    0.0000
      3 H2         3.6346    2.5017   -1.8417 H         1 RES1    0.0000
      4 H3         2.8088    1.5711   -0.8356 H         1 RES1    0.0000
      5 C2         3.1238    3.4719   -0.0899 C.3       1 RES1    0.0000
      6 H4         2.2660    3.8302   -0.4298 H         1 RES1    0.0000
      7 H5         3.8140    4.1740   -0.2029 H         1 RES1    0.0000
      8 C3         2.9805    3.1427    1.3912 C.3       1 RES1    0.0000
      9 H6         3.8403    2.7570    1.7266 H         1 RES1    0.0000
     10 C4         1.8658    2.1412    1.6147 C.ar      1 RES1    0.0000
     11 C5         0.5567    2.4181    1.2727 C.ar      1 RES1    0.0000
     12 H7         0.3352    3.2742    0.9245 H         1 RES1    0.0000
     13 C6        -0.4363    1.4681    1.4296 C.ar      1 RES1    0.0000
     14 H8        -1.3303    1.6731    1.1818 H         1 RES1    0.0000
     15 C7        -0.1285    0.2009    1.9536 C.ar      1 RES1    0.0000
     16 H9        -0.8063   -0.4565    2.0581 H         1 RES1    0.0000
     17 C8         1.1607   -0.0690    2.3091 C.ar      1 RES1    0.0000
     18 H10        1.3805   -0.9138    2.6856 H         1 RES1    0.0000
     19 C9         2.1527    0.8842    2.1240 C.ar      1 RES1    0.0000
     20 H11        3.0500    0.6701    2.3520 H         1 RES1    0.0000
     21 O1         2.7302    4.4037    2.0622 O.3       1 RES1    0.0000
     22 N1         3.3906    4.4827    3.3547 N.3       1 RES1    0.0000
     23 C10        2.3345    4.8287    4.3593 C.3       1 RES1    0.0000
     24 C11        1.4076    3.6320    4.5032 C.3       1 RES1    0.0000
     25 H12        0.8356    3.5653    3.7105 H         1 RES1    0.0000
     26 H13        0.8494    3.7458    5.3001 H         1 RES1    0.0000
     27 H14        1.9414    2.8147    4.5911 H         1 RES1    0.0000
     28 C12        1.4964    6.0744    4.0379 C.3       1 RES1    0.0000
     29 H15        2.0474    6.8771    4.1518 H         1 RES1    0.0000
     30 H16        0.7282    6.1173    4.6455 H         1 RES1    0.0000
     31 H17        1.1785    6.0242    3.1123 H         1 RES1    0.0000
     32 C13        3.0628    5.0252    5.7111 C.3       1 RES1    0.0000
     33 H18        2.4108    5.3139    6.3972 H         1 RES1    0.0000
     34 H19        3.4527    4.1631    6.0029 H         1 RES1    0.0000
     35 C14        4.1516    6.0504    5.5972 C.2       1 RES1    0.0000
     36 O2         4.1954    7.0618    6.2562 O.2       1 RES1    0.0000
     37 C15        5.1711    5.6966    4.5660 C.3       1 RES1    0.0000
     38 H20        5.6601    4.8862    4.8567 H         1 RES1    0.0000
     39 H21        5.8255    6.4352    4.4896 H         1 RES1    0.0000
     40 C16        4.5323    5.4342    3.1731 C.3       1 RES1    0.0000
     41 C17        5.6042    4.7285    2.3353 C.3       1 RES1    0.0000
     42 H22        5.7565    3.8281    2.6909 H         1 RES1    0.0000
     43 H23        6.4396    5.2400    2.3740 H         1 RES1    0.0000
     44 H24        5.3033    4.6652    1.4045 H         1 RES1    0.0000
     45 C18        4.1926    6.7774    2.5141 C.3       1 RES1    0.0000
     46 H25        3.5802    6.6272    1.7643 H         1 RES1    0.0000
     47 H26        5.0144    7.1969    2.1857 H         1 RES1    0.0000
     48 H27        3.7653    7.3648    3.1719 H         1 RES1    0.0000
@<TRIPOS>BOND
     1    1    2 1
     2    3    1 1
     3    4    1 1
     4    5    1 1
     5    6    5 1
     6    7    5 1
     7    8    5 1
     8    9    8 1
     9   10    8 1
    10   11   10 ar
    11   12   11 1
    12   13   11 ar
    13   14   13 1
    14   15   13 ar
    15   16   15 1
    16   17   15 ar
    17   18   17 1
    18   19   10 ar
    19   20   19 1
    20   21    8 1
    21   22   21 1
    22   23   22 1
    23   24   23 1
    24   25   24 1
    25   26   24 1
    26   27   24 1
    27   28   23 1
    28   29   28 1
    29   30   28 1
    30   31   28 1
    31   32   23 1
    32   33   32 1
    33   34   32 1
    34   35   32 1
    35   36   35 2
    36   37   35 1
    37   38   37 1
    38   39   37 1
    39   40   22 1
    40   41   40 1
    41   42   41 1
    42   43   41 1
    43   44   41 1
    44   45   40 1
    45   46   45 1
    46   47   45 1
    47   48   45 1
    48   17   19 ar
    49   37   40 1
@<TRIPOS>SUBSTRUCTURE
     1 RES1 1

@<TRIPOS>CRYSIN
   7.6963   11.0574   11.7500  64.3800  89.6400  70.7460   2 1

