# MOL2 file generated by ConQuest
# Please check atom types

@<TRIPOS>MOLECULE
KAMROH
    41    41     1
SMALL
NO_CHARGES
****
Generated from CSD

@<TRIPOS>ATOM
      1 C1        -0.2380   -1.3875    0.7758 C.ar      1 RES1    0.0000
      2 C2        -0.9903   -1.4979   -0.3859 C.ar      1 RES1    0.0000
      3 H1        -0.8351   -2.1939   -1.0133 H         1 RES1    0.0000
      4 C3        -1.9795   -0.5457   -0.5925 C.ar      1 RES1    0.0000
      5 H2        -2.5227   -0.5991   -1.3699 H         1 RES1    0.0000
      6 C4        -2.1899    0.4808    0.3178 C.ar      1 RES1    0.0000
      7 H3        -2.8686    1.1272    0.1578 H         1 RES1    0.0000
      8 C5        -1.4019    0.5657    1.4712 C.ar      1 RES1    0.0000
      9 C6        -0.4238   -0.3891    1.7060 C.ar      1 RES1    0.0000
     10 H4         0.1078   -0.3547    2.4928 H         1 RES1    0.0000
     11 C7        -0.6449    2.2630    3.0825 C.2       1 RES1    0.0000
     12 C8        -1.1062    3.4170    3.9446 C.3       1 RES1    0.0000
     13 H5        -2.0804    3.3421    4.1052 H         1 RES1    0.0000
     14 H6        -0.9363    4.2722    3.4740 H         1 RES1    0.0000
     15 C9        -0.3710    3.4133    5.2725 C.3       1 RES1    0.0000
     16 H7        -0.6251    2.6038    5.7830 H         1 RES1    0.0000
     17 H8         0.6035    3.3736    5.1047 H         1 RES1    0.0000
     18 C10        0.3077    5.2519    6.7055 C.2       1 RES1    0.0000
     19 C11        0.6850    7.2774    8.0449 C.3       1 RES1    0.0000
     20 C12        1.4917    7.9747    6.9707 C.3       1 RES1    0.0000
     21 H9         2.1588    7.3541    6.6091 H         1 RES1    0.0000
     22 H10        1.9445    8.7546    7.3566 H         1 RES1    0.0000
     23 H11        0.8935    8.2659    6.2514 H         1 RES1    0.0000
     24 C13        1.5415    6.6130    9.1036 C.3       1 RES1    0.0000
     25 H12        0.9776    6.0509    9.6745 H         1 RES1    0.0000
     26 H13        1.9772    7.2990    9.6501 H         1 RES1    0.0000
     27 H14        2.2241    6.0588    8.6711 H         1 RES1    0.0000
     28 C14       -0.2866    8.2490    8.6850 C.3       1 RES1    0.0000
     29 H15       -0.8756    8.6232    7.9967 H         1 RES1    0.0000
     30 H16        0.2121    8.9726    9.1169 H         1 RES1    0.0000
     31 H17       -0.8257    7.7798    9.3550 H         1 RES1    0.0000
     32 N1         0.8266   -2.3752    1.0310 N.pl3     1 RES1    0.0000
     33 N2        -1.6217    1.6293    2.3793 N.am      1 RES1    0.0000
     34 H18       -2.4508    1.8996    2.4972 H         1 RES1    0.0000
     35 N3        -0.6716    4.5901    6.0648 N.am      1 RES1    0.0000
     36 H19       -1.5023    4.8739    6.1263 H         1 RES1    0.0000
     37 O1         1.0031   -3.2654    0.2038 O.2       1 RES1    0.0000
     38 O2         1.4796   -2.2667    2.0653 O.2       1 RES1    0.0000
     39 O3         0.5377    1.9453    3.0139 O.2       1 RES1    0.0000
     40 O4         1.4923    4.9474    6.6562 O.2       1 RES1    0.0000
     41 O5        -0.2117    6.2722    7.4186 O.3       1 RES1    0.0000
@<TRIPOS>BOND
     1    1    2 ar
     2    2    3 1
     3    4    2 ar
     4    5    4 1
     5    6    4 ar
     6    7    6 1
     7    8    6 ar
     8    9    1 ar
     9   10    9 1
    10   11   12 1
    11   12   13 1
    12   14   12 1
    13   15   12 1
    14   16   15 1
    15   17   15 1
    16   18   35 1
    17   19   20 1
    18   20   21 1
    19   22   20 1
    20   23   20 1
    21   24   19 1
    22   25   24 1
    23   26   24 1
    24   27   24 1
    25   28   19 1
    26   29   28 1
    27   30   28 1
    28   31   28 1
    29   32    1 1
    30   33    8 1
    31   34   33 1
    32   35   15 1
    33   36   35 1
    34   37   32 2
    35   38   32 2
    36   39   11 2
    37   40   18 2
    38   41   18 1
    39    8    9 ar
    40   11   33 1
    41   19   41 1
@<TRIPOS>SUBSTRUCTURE
     1 RES1 1

@<TRIPOS>CRYSIN
   5.0378   26.2742    5.5682  90.0000  96.0560  90.0000   4 1

