# MOL2 file generated by ConQuest
# Please check atom types

@<TRIPOS>MOLECULE
KAMTOI
    72    74     1
SMALL
NO_CHARGES
****
Generated from CSD

@<TRIPOS>ATOM
      1 N1         0.9828   -2.8111   -0.8802 N.pl3     1 RES1    0.0000
      2 N2         4.3728   -6.1324    2.1178 N.pl3     1 RES1    0.0000
      3 N3         1.6392   -5.5944   -1.8042 N.pl3     1 RES1    0.0000
      4 O1        -1.7572   -2.8475    0.0933 O.3       1 RES1    0.0000
      5 O2        -2.4223   -0.5004    1.7019 O.3       1 RES1    0.0000
      6 O3         5.0312   -5.6162    3.0103 O.2       1 RES1    0.0000
      7 O4         4.3840   -7.3417    1.8964 O.2       1 RES1    0.0000
      8 O5         1.1909   -6.7104   -1.7547 O.2       1 RES1    0.0000
      9 O6         1.8101   -4.9571   -2.8271 O.2       1 RES1    0.0000
     10 C1        -0.1794   -3.3479   -1.6176 C.3       1 RES1    0.0000
     11 H1        -0.2317   -4.3027   -1.4580 H         1 RES1    0.0000
     12 H2        -0.0287   -3.2171   -2.5674 H         1 RES1    0.0000
     13 C2        -1.4964   -2.7300   -1.2545 C.3       1 RES1    0.0000
     14 H3        -1.4892   -1.7921   -1.4996 H         1 RES1    0.0000
     15 H4        -2.2033   -3.1650   -1.7570 H         1 RES1    0.0000
     16 C3        -3.0334   -2.4161    0.4631 C.3       1 RES1    0.0000
     17 H5        -3.2675   -2.8511    1.2983 H         1 RES1    0.0000
     18 H6        -3.6621   -2.7239   -0.2080 H         1 RES1    0.0000
     19 C4        -3.2157   -0.9815    0.6317 C.3       1 RES1    0.0000
     20 H7        -2.9667   -0.5247   -0.1866 H         1 RES1    0.0000
     21 H8        -4.1501   -0.7912    0.8105 H         1 RES1    0.0000
     22 C5        -2.2721    0.9076    1.7075 C.3       1 RES1    0.0000
     23 H9        -2.1173    1.2081    2.6169 H         1 RES1    0.0000
     24 H10       -3.0935    1.3171    1.3950 H         1 RES1    0.0000
     25 C6         1.1234   -1.3620   -0.8318 C.3       1 RES1    0.0000
     26 H11        0.3002   -0.9463   -1.1331 H         1 RES1    0.0000
     27 H12        1.2832   -1.0833    0.0832 H         1 RES1    0.0000
     28 C7         1.8991   -3.6024   -0.2653 C.ar      1 RES1    0.0000
     29 C8         2.7170   -3.0971    0.7790 C.ar      1 RES1    0.0000
     30 H13        2.7056   -2.1847    0.9577 H         1 RES1    0.0000
     31 C9         3.5200   -3.9041    1.5265 C.ar      1 RES1    0.0000
     32 H14        4.0461   -3.5370    2.1999 H         1 RES1    0.0000
     33 C10        3.5568   -5.2685    1.2916 C.ar      1 RES1    0.0000
     34 C11        2.8462   -5.8053    0.2406 C.ar      1 RES1    0.0000
     35 H15        2.8872   -6.7165    0.0596 H         1 RES1    0.0000
     36 C12        2.0807   -4.9789   -0.5351 C.ar      1 RES1    0.0000
     37 N1B       -0.9828    2.8111    0.8802 N.3       1 RES1    0.0000
     38 N2B       -4.3728    6.1324   -2.1178 N.pl3     1 RES1    0.0000
     39 N3B       -1.6392    5.5944    1.8042 N.pl3     1 RES1    0.0000
     40 O1B        1.7572    2.8475   -0.0933 O.3       1 RES1    0.0000
     41 O2B        2.4223    0.5004   -1.7019 O.3       1 RES1    0.0000
     42 O3B       -5.0312    5.6162   -3.0103 O.2       1 RES1    0.0000
     43 O4B       -4.3840    7.3417   -1.8964 O.2       1 RES1    0.0000
     44 O5B       -1.1909    6.7104    1.7547 O.2       1 RES1    0.0000
     45 O6B       -1.8101    4.9571    2.8271 O.2       1 RES1    0.0000
     46 C1B        0.1794    3.3479    1.6176 C.3       1 RES1    0.0000
     47 H1B        0.2317    4.3027    1.4580 H         1 RES1    0.0000
     48 H2B        0.0287    3.2171    2.5674 H         1 RES1    0.0000
     49 C2B        1.4964    2.7300    1.2545 C.3       1 RES1    0.0000
     50 H3B        1.4892    1.7921    1.4996 H         1 RES1    0.0000
     51 H4B        2.2033    3.1650    1.7570 H         1 RES1    0.0000
     52 C3B        3.0334    2.4161   -0.4631 C.3       1 RES1    0.0000
     53 H5B        3.2675    2.8511   -1.2983 H         1 RES1    0.0000
     54 H6B        3.6621    2.7239    0.2080 H         1 RES1    0.0000
     55 C4B        3.2157    0.9815   -0.6317 C.3       1 RES1    0.0000
     56 H7B        2.9667    0.5247    0.1866 H         1 RES1    0.0000
     57 H8B        4.1501    0.7912   -0.8105 H         1 RES1    0.0000
     58 C5B        2.2721   -0.9076   -1.7075 C.3       1 RES1    0.0000
     59 H9B        2.1173   -1.2081   -2.6169 H         1 RES1    0.0000
     60 H10B       3.0935   -1.3171   -1.3950 H         1 RES1    0.0000
     61 C6B       -1.1234    1.3620    0.8318 C.3       1 RES1    0.0000
     62 H11B      -0.3002    0.9463    1.1331 H         1 RES1    0.0000
     63 H12B      -1.2832    1.0833   -0.0832 H         1 RES1    0.0000
     64 C7B       -1.8991    3.6024    0.2653 C.ar      1 RES1    0.0000
     65 C8B       -2.7170    3.0971   -0.7790 C.ar      1 RES1    0.0000
     66 H13B      -2.7056    2.1847   -0.9577 H         1 RES1    0.0000
     67 C9B       -3.5200    3.9041   -1.5265 C.ar      1 RES1    0.0000
     68 H14B      -4.0461    3.5370   -2.1999 H         1 RES1    0.0000
     69 C10B      -3.5568    5.2685   -1.2916 C.ar      1 RES1    0.0000
     70 C11B      -2.8462    5.8053   -0.2406 C.ar      1 RES1    0.0000
     71 H15B      -2.8872    6.7165   -0.0596 H         1 RES1    0.0000
     72 C12B      -2.0807    4.9789    0.5351 C.ar      1 RES1    0.0000
@<TRIPOS>BOND
     1    1   10 1
     2    2    6 2
     3    3    8 2
     4    4   13 1
     5    5   19 1
     6    7    2 2
     7    9    3 2
     8   10   11 1
     9   12   10 1
    10   13   10 1
    11   14   13 1
    12   15   13 1
    13   16    4 1
    14   17   16 1
    15   18   16 1
    16   19   16 1
    17   20   19 1
    18   21   19 1
    19   22    5 1
    20   23   22 1
    21   24   22 1
    22   25    1 1
    23   26   25 1
    24   27   25 1
    25   28    1 1
    26   29   28 ar
    27   30   29 1
    28   31   29 ar
    29   32   31 1
    30   33    2 1
    31   34   33 ar
    32   35   34 1
    33   36    3 1
    34   37   46 1
    35   38   42 2
    36   39   44 2
    37   40   49 1
    38   41   55 1
    39   43   38 2
    40   45   39 2
    41   46   47 1
    42   48   46 1
    43   49   46 1
    44   50   49 1
    45   51   49 1
    46   52   40 1
    47   53   52 1
    48   54   52 1
    49   55   52 1
    50   56   55 1
    51   57   55 1
    52   58   25 1
    53   59   58 1
    54   60   58 1
    55   61   22 1
    56   62   61 1
    57   63   61 1
    58   64   37 1
    59   65   64 ar
    60   66   65 1
    61   67   65 ar
    62   68   67 1
    63   69   38 1
    64   70   69 ar
    65   71   70 1
    66   72   39 1
    67   28   36 ar
    68   31   33 ar
    69   34   36 ar
    70   37   61 1
    71   41   58 1
    72   64   72 ar
    73   67   69 ar
    74   70   72 ar
@<TRIPOS>SUBSTRUCTURE
     1 RES1 1

@<TRIPOS>CRYSIN
   9.7460   12.1170   11.3780  90.0000  98.9000  90.0000  14 1

