# MOL2 file generated by ConQuest
# Please check atom types

@<TRIPOS>MOLECULE
KANMUH
    40    43     1
SMALL
NO_CHARGES
****
Generated from CSD

@<TRIPOS>ATOM
      1 C1        -0.2478    0.0676    6.4139 C.ar      1 RES1    0.0000
      2 C2         0.4680   -1.1209    6.1561 C.ar      1 RES1    0.0000
      3 C3         1.6558   -1.1507    5.3800 C.ar      1 RES1    0.0000
      4 C4         2.3183   -2.3152    5.1451 C.ar      1 RES1    0.0000
      5 C5         1.8406   -3.5224    5.6758 C.ar      1 RES1    0.0000
      6 C6         0.7121   -3.5567    6.4104 C.ar      1 RES1    0.0000
      7 C7        -0.0296   -2.3642    6.6647 C.ar      1 RES1    0.0000
      8 C8        -1.2239   -2.3799    7.3693 C.ar      1 RES1    0.0000
      9 C9        -1.9559   -1.2202    7.6121 C.ar      1 RES1    0.0000
     10 C10       -3.1854   -1.2320    8.3238 C.ar      1 RES1    0.0000
     11 C11       -3.8847   -0.0967    8.5304 C.ar      1 RES1    0.0000
     12 C12       -3.3932    1.1367    8.0660 C.ar      1 RES1    0.0000
     13 C13       -2.2234    1.1952    7.3993 C.ar      1 RES1    0.0000
     14 C14       -1.4497    0.0279    7.1309 C.ar      1 RES1    0.0000
     15 C15        0.2079    1.3405    5.8038 C.2       1 RES1    0.0000
     16 C16        1.0867    2.2144    6.2559 C.2       1 RES1    0.0000
     17 N1         1.6803    1.9492    7.5865 N.pl3     1 RES1    0.0000
     18 O1         2.7269    1.3461    7.6254 O.2       1 RES1    0.0000
     19 O2         1.0769    2.3398    8.5613 O.2       1 RES1    0.0000
     20 C17        1.5457    3.4494    5.5989 C.ar      1 RES1    0.0000
     21 C18        1.9606    4.5624    6.3062 C.ar      1 RES1    0.0000
     22 C19        2.3015    5.7258    5.6272 C.ar      1 RES1    0.0000
     23 C20        2.2407    5.7828    4.2630 C.ar      1 RES1    0.0000
     24 C21        1.8632    4.6701    3.5443 C.ar      1 RES1    0.0000
     25 C22        1.5288    3.5143    4.2074 C.ar      1 RES1    0.0000
     26 H1         1.9607   -0.3519    4.9623 H         1 RES1    0.0000
     27 H2         3.0770   -2.2679    4.5915 H         1 RES1    0.0000
     28 H3         2.3509   -4.3406    5.5186 H         1 RES1    0.0000
     29 H4         0.3754   -4.3900    6.7812 H         1 RES1    0.0000
     30 H5        -1.5249   -3.1963    7.7348 H         1 RES1    0.0000
     31 H6        -3.4453   -2.0743    8.6620 H         1 RES1    0.0000
     32 H7        -4.7066   -0.1755    9.0858 H         1 RES1    0.0000
     33 H8        -3.9128    1.9321    8.2028 H         1 RES1    0.0000
     34 H9        -1.9024    2.0072    7.0903 H         1 RES1    0.0000
     35 H10       -0.1583    1.5652    4.9711 H         1 RES1    0.0000
     36 H11        1.9831    4.5049    7.2669 H         1 RES1    0.0000
     37 H12        2.5287    6.4662    6.1455 H         1 RES1    0.0000
     38 H13        2.4436    6.6047    3.7880 H         1 RES1    0.0000
     39 H14        1.8486    4.6580    2.5341 H         1 RES1    0.0000
     40 H15        1.2806    2.7302    3.7085 H         1 RES1    0.0000
@<TRIPOS>BOND
     1    1    2 ar
     2    2    3 ar
     3    3    4 ar
     4    4    5 ar
     5    5    6 ar
     6    6    7 ar
     7    7    2 ar
     8    8    7 ar
     9    9    8 ar
    10   10    9 ar
    11   11   10 ar
    12   12   11 ar
    13   13   12 ar
    14   14    1 ar
    15   15    1 1
    16   16   15 2
    17   17   16 1
    18   18   17 2
    19   19   17 2
    20   20   16 1
    21   21   20 ar
    22   22   21 ar
    23   23   22 ar
    24   24   23 ar
    25   25   20 ar
    26   26    3 1
    27   27    4 1
    28   28    5 1
    29   29    6 1
    30   30    8 1
    31   31   10 1
    32   32   11 1
    33   33   12 1
    34   34   13 1
    35   35   15 1
    36   36   21 1
    37   37   22 1
    38   38   23 1
    39   39   24 1
    40   40   25 1
    41    9   14 ar
    42   13   14 ar
    43   24   25 ar
@<TRIPOS>SUBSTRUCTURE
     1 RES1 1

@<TRIPOS>CRYSIN
  11.1910    9.2710    8.9680  97.1200  93.5300 114.2700   2 1

