# MOL2 file generated by ConQuest
# Please check atom types

@<TRIPOS>MOLECULE
KANMOB
    40    43     1
SMALL
NO_CHARGES
****
Generated from CSD

@<TRIPOS>ATOM
      1 C1         9.0975    6.5060    7.3610 C.ar      1 RES1    0.0000
      2 C2         9.5262    7.0572    6.1336 C.ar      1 RES1    0.0000
      3 C3         9.2932    8.4160    5.7583 C.ar      1 RES1    0.0000
      4 C4         9.7345    8.9050    4.5782 C.ar      1 RES1    0.0000
      5 C5        10.4350    8.0879    3.6712 C.ar      1 RES1    0.0000
      6 C6        10.7033    6.8142    3.9874 C.ar      1 RES1    0.0000
      7 C7        10.2781    6.2502    5.2325 C.ar      1 RES1    0.0000
      8 C8        10.5786    4.9384    5.5808 C.ar      1 RES1    0.0000
      9 C9        10.1826    4.3854    6.7904 C.ar      1 RES1    0.0000
     10 C10       10.4982    3.0393    7.1472 C.ar      1 RES1    0.0000
     11 C11       10.1154    2.5291    8.3264 C.ar      1 RES1    0.0000
     12 C12        9.3631    3.3023    9.2275 C.ar      1 RES1    0.0000
     13 C13        9.0221    4.5788    8.9291 C.ar      1 RES1    0.0000
     14 C14        9.4302    5.1798    7.7101 C.ar      1 RES1    0.0000
     15 C15        8.3755    7.3312    8.3441 C.2       1 RES1    0.0000
     16 C16        7.1872    7.8807    8.1734 C.2       1 RES1    0.0000
     17 N1         6.6805    8.7220    9.2900 N.pl3     1 RES1    0.0000
     18 O1         5.4785    8.8512    9.3982 O.2       1 RES1    0.0000
     19 O2         7.4696    9.2218   10.0610 O.2       1 RES1    0.0000
     20 C17        6.2527    7.7038    7.0559 C.ar      1 RES1    0.0000
     21 C18        5.8541    6.4318    6.6814 C.ar      1 RES1    0.0000
     22 C19        4.9838    6.2635    5.6247 C.ar      1 RES1    0.0000
     23 C20        4.5048    7.3400    4.9383 C.ar      1 RES1    0.0000
     24 C21        4.9017    8.6035    5.2875 C.ar      1 RES1    0.0000
     25 C22        5.7655    8.7925    6.3416 C.ar      1 RES1    0.0000
     26 H1         8.8351    9.0102    6.4075 H         1 RES1    0.0000
     27 H2         9.5816    9.8529    4.3534 H         1 RES1    0.0000
     28 H3        10.7197    8.4926    2.8318 H         1 RES1    0.0000
     29 H4        11.1897    6.2532    3.4235 H         1 RES1    0.0000
     30 H5        11.0768    4.4165    4.9620 H         1 RES1    0.0000
     31 H6        11.0063    2.5641    6.4582 H         1 RES1    0.0000
     32 H7        10.3173    1.6236    8.5293 H         1 RES1    0.0000
     33 H8         9.0966    2.9237   10.0762 H         1 RES1    0.0000
     34 H9         8.5076    5.0979    9.5352 H         1 RES1    0.0000
     35 H10        8.7879    7.5163    9.2140 H         1 RES1    0.0000
     36 H11        6.2155    5.6987    7.1598 H         1 RES1    0.0000
     37 H12        4.7408    5.3871    5.3847 H         1 RES1    0.0000
     38 H13        3.8791    7.2213    4.1843 H         1 RES1    0.0000
     39 H14        4.6116    9.3568    4.8099 H         1 RES1    0.0000
     40 H15        6.0734    9.7025    6.6273 H         1 RES1    0.0000
@<TRIPOS>BOND
     1    1    2 ar
     2    2    3 ar
     3    3    4 ar
     4    4    5 ar
     5    5    6 ar
     6    6    7 ar
     7    7    2 ar
     8    8    7 ar
     9    9    8 ar
    10   10    9 ar
    11   11   10 ar
    12   12   11 ar
    13   13   12 ar
    14   14    1 ar
    15   15    1 1
    16   16   15 2
    17   17   16 1
    18   18   17 2
    19   19   17 2
    20   20   16 1
    21   21   20 ar
    22   22   21 ar
    23   23   22 ar
    24   24   23 ar
    25   25   20 ar
    26   26    3 1
    27   27    4 1
    28   28    5 1
    29   29    6 1
    30   30    8 1
    31   31   10 1
    32   32   11 1
    33   33   12 1
    34   34   13 1
    35   35   15 1
    36   36   21 1
    37   37   22 1
    38   38   23 1
    39   39   24 1
    40   40   25 1
    41    9   14 ar
    42   13   14 ar
    43   24   25 ar
@<TRIPOS>SUBSTRUCTURE
     1 RES1 1

@<TRIPOS>CRYSIN
  10.6790   10.0350    9.2370  73.4500  67.8300  65.6400   2 1

