# MOL2 file generated by ConQuest
# Please check atom types

@<TRIPOS>MOLECULE
KANQAR
    20    21     1
SMALL
NO_CHARGES
****
Generated from CSD

@<TRIPOS>ATOM
      1 C1         3.5538    6.8863    6.2739 C.2       1 RES1    0.0000
      2 N1         2.6545    4.9907    4.9226 N.2       1 RES1    0.0000
      3 N2         4.4211    6.2294    7.0443 N.2       1 RES1    0.0000
      4 C2         2.6925    6.3594    5.2744 C.2       1 RES1    0.0000
      5 N3         3.3479    8.1819    6.3425 N.2       1 RES1    0.0000
      6 O1         2.3553    8.4391    5.3836 O.3       1 RES1    0.0000
      7 N4         1.9677    7.3005    4.7431 N.2       1 RES1    0.0000
      8 O2         3.5343    4.1285    5.4125 O.2       1 RES1    0.0000
      9 H1         4.8724    6.5993    7.6875 H         1 RES1    0.0000
     10 H2         4.5043    5.4424    6.9433 H         1 RES1    0.0000
     11 N1B        1.7390    4.6419    4.0981 N.2       1 RES1    0.0000
     12 C2B        1.7010    3.2732    3.7463 C.2       1 RES1    0.0000
     13 C1B        0.8397    2.7463    2.7468 C.2       1 RES1    0.0000
     14 N2B       -0.0276    3.4032    1.9764 N.2       1 RES1    0.0000
     15 H1B       -0.4788    3.0333    1.3333 H         1 RES1    0.0000
     16 H2B       -0.1108    4.1902    2.0775 H         1 RES1    0.0000
     17 N3B        1.0456    1.4507    2.6783 N.2       1 RES1    0.0000
     18 O1B        2.0382    1.1935    3.6372 O.3       1 RES1    0.0000
     19 N4B        2.4259    2.3321    4.2776 N.2       1 RES1    0.0000
     20 O2B        0.8592    5.5041    3.6083 O.2       1 RES1    0.0000
@<TRIPOS>BOND
     1    1    3 1
     2    2    4 1
     3    3    9 1
     4    4    1 1
     5    5    1 1
     6    6    5 1
     7    7    4 1
     8    8    2 1
     9   10    3 1
    10   11    2 1
    11   12   11 1
    12   13   12 1
    13   14   13 1
    14   15   14 1
    15   16   14 1
    16   17   13 1
    17   18   17 1
    18   19   12 1
    19   20   11 1
    20    6    7 1
    21   18   19 1
@<TRIPOS>SUBSTRUCTURE
     1 RES1 1

@<TRIPOS>CRYSIN
   4.6466    9.6326    9.0243  90.0000  91.6070  90.0000  14 1

