# MOL2 file generated by ConQuest
# Please check atom types

@<TRIPOS>MOLECULE
KANQAR01
    20    20     2
SMALL
NO_CHARGES
****
Generated from CSD

@<TRIPOS>ATOM
      1 O1         7.2161    5.7507    0.9281 O.3       1 RES1    0.0000
      2 O2         6.8747   13.0050   -0.8070 O.3       1 RES1    0.0000
      3 N1         8.2234    6.0599    1.8597 N.2       1 RES1    0.0000
      4 N2         6.7650    6.8719    0.2919 N.2       1 RES1    0.0000
      5 N3         9.2254    8.0712    2.5359 N.3       1 RES1    0.0000
      6 N4         5.8661   12.7979   -1.7600 N.2       1 RES1    0.0000
      7 N5         7.2131   11.8471   -0.1735 N.2       1 RES1    0.0000
      8 N6         4.7065   10.8839   -2.4727 N.3       1 RES1    0.0000
      9 N7         6.4964    9.5748   -0.3372 N.pl3     1 RES1    0.0000
     10 N8         7.4020    9.2280    0.4769 N.2       1 RES1    0.0000
     11 C1         7.4671    7.8708    0.8008 C.2       1 RES1    0.0000
     12 C2         8.3789    7.3641    1.7840 C.2       1 RES1    0.0000
     13 C3         6.4596   10.9513   -0.7154 C.2       1 RES1    0.0000
     14 C4         5.5983   11.5167   -1.7093 C.2       1 RES1    0.0000
     15 O3         5.6280    8.7801   -0.8684 O.2       1 RES1    0.0000
     16 O4         8.3087   10.1614    0.9254 Du        2 SUP2    0.0000
     17 H1         4.3968   11.2027   -3.0609 H         1 RES1    0.0000
     18 H2         4.6053   10.0468   -2.4113 H         1 RES1    0.0000
     19 H3         9.6140    7.7061    3.0164 H         1 RES1    0.0000
     20 H4         9.2833    8.8909    2.4113 H         1 RES1    0.0000
@<TRIPOS>BOND
     1    1    3 1
     2    2    6 1
     3    3   12 2
     4    4    1 1
     5    5   12 1
     6    6   14 2
     7    7    2 1
     8    8   14 1
     9    9   10 2
    10   10   11 1
    11   11    4 2
    12   12   11 1
    13   13    7 2
    14   14   13 1
    15   15    9 1
    16   17    8 1
    17   18    8 1
    18   19    5 1
    19   20    5 1
    20    9   13 1
@<TRIPOS>SUBSTRUCTURE
     1 RES1 1
     2 SUP2 16

@<TRIPOS>CRYSIN
   9.3212    9.6326    8.9004  90.0000  91.3434  90.0000  14 1

