# MOL2 file generated by ConQuest
# Please check atom types

@<TRIPOS>MOLECULE
KANRIA
    62    62     2
SMALL
NO_CHARGES
****
Generated from CSD

@<TRIPOS>ATOM
      1 C1        14.0025    2.4825    1.4216 C.3       1 RES1    0.0000
      2 C2        15.0129    1.9423    0.3831 C.3       1 RES1    0.0000
      3 C3        15.7945    1.3668    1.5883 C.3       1 RES1    0.0000
      4 C4        14.5029    1.4400    2.4123 C.3       1 RES1    0.0000
      5 C5        12.5121    2.5483    1.0923 C.3       1 RES1    0.0000
      6 C6        11.6772    3.1726    2.1767 C.2       1 RES1    0.0000
      7 C7        14.4226    0.8499   -0.5143 C.3       1 RES1    0.0000
      8 C8        15.7063    3.0007   -0.4697 C.3       1 RES1    0.0000
      9 C9        17.7955    0.1317    0.5393 C.3       1 RES1    0.0000
     10 C10       16.5872    0.1256    1.4623 C.2       1 RES1    0.0000
     11 N1        16.2313   -0.8864    2.1682 N.2       1 RES1    0.0000
     12 O1        12.0642    4.3944    2.4923 O.3       1 RES1    0.0000
     13 O2        10.7783    2.6154    2.7278 O.2       1 RES1    0.0000
     14 O3        17.0883   -2.0033    2.0036 O.3       1 RES1    0.0000
     15 H1        13.9950    3.4165    1.6440 H         1 RES1    0.0000
     16 H2        16.5982    1.7826    1.9117 H         1 RES1    0.0000
     17 H3        14.6194    1.7643    3.3091 H         1 RES1    0.0000
     18 H4        13.9925    0.6267    2.4293 H         1 RES1    0.0000
     19 H5        12.1949    1.6546    0.9434 H         1 RES1    0.0000
     20 H6        12.4014    3.0641    0.2906 H         1 RES1    0.0000
     21 H7        13.9891    0.1890    0.0295 H         1 RES1    0.0000
     22 H8        15.1256    0.4365   -1.0201 H         1 RES1    0.0000
     23 H9        13.7838    1.2400   -1.1153 H         1 RES1    0.0000
     24 H10       16.0743    3.6811    0.0997 H         1 RES1    0.0000
     25 H11       15.0702    3.3958   -1.0700 H         1 RES1    0.0000
     26 H12       16.4137    2.5922   -0.9755 H         1 RES1    0.0000
     27 H13       17.8695    0.9901    0.1142 H         1 RES1    0.0000
     28 H14       17.6913   -0.5487   -0.1299 H         1 RES1    0.0000
     29 H15       18.5901   -0.0415    1.0503 H         1 RES1    0.0000
     30 H16       11.5886    4.6455    3.0742 H         1 RES1    0.0000
     31 H17       16.8314   -2.5874    2.5343 H         1 RES1    0.0000
     32 C11        5.4025    5.2881    1.9629 C.3       2 RES2    0.0000
     33 C12        4.5298    5.9099    3.0644 C.3       2 RES2    0.0000
     34 C13        3.4308    4.8845    2.6662 C.3       2 RES2    0.0000
     35 C14        4.5085    4.0322    1.9911 C.3       2 RES2    0.0000
     36 C15        6.9024    5.0455    2.1282 C.3       2 RES2    0.0000
     37 C16        7.7755    6.2501    2.0022 C.2       2 RES2    0.0000
     38 C17        5.0442    5.6307    4.4690 C.3       2 RES2    0.0000
     39 C18        4.1581    7.3646    2.8669 C.3       2 RES2    0.0000
     40 C19        1.4023    5.1442    4.2433 C.3       2 RES2    0.0000
     41 C20        2.5438    4.3090    3.7211 C.2       2 RES2    0.0000
     42 N2         2.7975    3.1434    4.1534 N.2       2 RES2    0.0000
     43 O4         7.4467    7.2134    2.8439 O.3       2 RES2    0.0000
     44 O5         8.7016    6.3428    1.2622 O.2       2 RES2    0.0000
     45 O6         1.9252    2.6788    5.1447 O.3       2 RES2    0.0000
     46 H18        5.5560    5.8161    1.1769 H         2 RES2    0.0000
     47 H19        2.6531    5.1515    2.1708 H         2 RES2    0.0000
     48 H20        4.8445    3.3141    2.5317 H         2 RES2    0.0000
     49 H21        4.2648    3.6957    1.1258 H         2 RES2    0.0000
     50 H22        7.1746    4.4139    1.4584 H         2 RES2    0.0000
     51 H23        7.0454    4.6687    3.0001 H         2 RES2    0.0000
     52 H24        5.2671    4.7004    4.5490 H         2 RES2    0.0000
     53 H25        4.3632    5.8526    5.1086 H         2 RES2    0.0000
     54 H26        5.8252    6.1636    4.6356 H         2 RES2    0.0000
     55 H27        3.8392    7.4950    1.9714 H         2 RES2    0.0000
     56 H28        4.9298    7.9157    3.0171 H         2 RES2    0.0000
     57 H29        3.4678    7.6048    3.4901 H         2 RES2    0.0000
     58 H30        1.3866    5.9880    3.7840 H         2 RES2    0.0000
     59 H31        1.5196    5.2954    5.1840 H         2 RES2    0.0000
     60 H32        0.5733    4.6833    4.0937 H         2 RES2    0.0000
     61 H33        7.8892    7.7950    2.5710 H         2 RES2    0.0000
     62 H34        2.3426    2.1655    5.4963 H         2 RES2    0.0000
@<TRIPOS>BOND
     1    1    2 1
     2    2    3 1
     3    3    4 1
     4    4    1 1
     5    5    1 1
     6    6    5 1
     7    7    2 1
     8    8    2 1
     9    9   10 1
    10   10    3 1
    11   11   10 2
    12   12    6 1
    13   13    6 2
    14   14   11 1
    15   15    1 1
    16   16    3 1
    17   17    4 1
    18   18    4 1
    19   19    5 1
    20   20    5 1
    21   21    7 1
    22   22    7 1
    23   23    7 1
    24   24    8 1
    25   25    8 1
    26   26    8 1
    27   27    9 1
    28   28    9 1
    29   29    9 1
    30   30   12 1
    31   31   14 1
    32   32   33 1
    33   33   34 1
    34   34   35 1
    35   35   32 1
    36   36   32 1
    37   37   36 1
    38   38   33 1
    39   39   33 1
    40   40   41 1
    41   41   34 1
    42   42   41 2
    43   43   37 1
    44   44   37 2
    45   45   42 1
    46   46   32 1
    47   47   34 1
    48   48   35 1
    49   49   35 1
    50   50   36 1
    51   51   36 1
    52   52   38 1
    53   53   38 1
    54   54   38 1
    55   55   39 1
    56   56   39 1
    57   57   39 1
    58   58   40 1
    59   59   40 1
    60   60   40 1
    61   61   43 1
    62   62   45 1
@<TRIPOS>SUBSTRUCTURE
     1 RES1 1
     2 RES2 32

@<TRIPOS>CRYSIN
  14.6320   12.1930    7.1030  90.0000 112.5400  90.0000   4 1

