# MOL2 file generated by ConQuest
# Please check atom types

@<TRIPOS>MOLECULE
KANWOL10
    20    18     2
SMALL
NO_CHARGES
****
Generated from CSD

@<TRIPOS>ATOM
      1 C1         4.7653    0.1148    2.0685 C.ar      1 RES1    0.0000
      2 C2         5.3954    1.3295    2.3425 C.ar      1 RES1    0.0000
      3 C3         4.9567    2.1071    3.3859 C.ar      1 RES1    0.0000
      4 C4         3.9207    1.7056    4.1667 C.ar      1 RES1    0.0000
      5 C5         3.2903    0.5174    3.9009 C.ar      1 RES1    0.0000
      6 C6         3.7001   -0.2532    2.8725 C.ar      1 RES1    0.0000
      7 C7         5.1038   -0.8946    1.0400 C.2       1 RES1    0.0000
      8 C8         6.1823   -0.8058    0.3186 C.2       1 RES1    0.0000
      9 C9         5.7351   -0.2284    0.9558 Du        2 SUP2    0.0000
     10 C10        5.5225   -1.4328    0.3153 Du        2 SUP2    0.0000
     11 N1         6.4750   -1.8498   -0.6702 N.pl3     1 RES1    0.0000
     12 O1         5.8523   -2.8361   -0.9030 O.2       1 RES1    0.0000
     13 O2         7.4874   -1.5533   -1.2596 O.2       1 RES1    0.0000
     14 H1         6.1214    1.6225    1.7466 H         1 RES1    0.0000
     15 H2         5.4200    2.8073    3.5906 H         1 RES1    0.0000
     16 H3         3.6623    2.2236    4.9393 H         1 RES1    0.0000
     17 H4         2.5540    0.1730    4.4210 H         1 RES1    0.0000
     18 H5         3.2238   -1.1005    2.6215 H         1 RES1    0.0000
     19 H6         4.5997   -1.6941    0.8683 H         1 RES1    0.0000
     20 H7         6.8592   -0.0952    0.2493 H         1 RES1    0.0000
@<TRIPOS>BOND
     1    1    2 ar
     2    2    3 ar
     3    3    4 ar
     4    4    5 ar
     5    5    6 ar
     6    6    1 ar
     7    7    1 1
     8    8    7 2
     9   11    8 1
    10   12   11 2
    11   13   11 2
    12   14    2 1
    13   15    3 1
    14   16    4 1
    15   17    5 1
    16   18    6 1
    17   19    7 1
    18   20    8 1
@<TRIPOS>SUBSTRUCTURE
     1 RES1 1
     2 SUP2 9

@<TRIPOS>CRYSIN
   8.0970    5.7680   18.6470  90.0000 117.7100  90.0000  14 1

