# MOL2 file generated by ConQuest
# Please check atom types

@<TRIPOS>MOLECULE
KANWOL
    18    18     1
SMALL
NO_CHARGES
****
Generated from CSD

@<TRIPOS>ATOM
      1 C1         5.3959    1.3295    2.3419 C.ar      1 RES1    0.0000
      2 C2         4.9568    2.1071    3.3854 C.ar      1 RES1    0.0000
      3 C3         3.9211    1.7057    4.1662 C.ar      1 RES1    0.0000
      4 C4         3.2905    0.5175    3.9006 C.ar      1 RES1    0.0000
      5 C5         3.7003   -0.2529    2.8723 C.ar      1 RES1    0.0000
      6 C6         4.7651    0.1149    2.0683 C.ar      1 RES1    0.0000
      7 C7         5.1044   -0.8944    1.0392 C.2       1 RES1    0.0000
      8 C8         6.1822   -0.8060    0.3189 C.2       1 RES1    0.0000
      9 N1         6.4751   -1.8497   -0.6706 N.pl3     1 RES1    0.0000
     10 O1         5.8521   -2.8363   -0.9022 O.2       1 RES1    0.0000
     11 O2         7.4873   -1.5534   -1.2596 O.2       1 RES1    0.0000
     12 H1         6.1214    1.6220    1.7466 H         1 RES1    0.0000
     13 H2         5.4209    2.8074    3.5889 H         1 RES1    0.0000
     14 H3         3.6631    2.2231    4.9377 H         1 RES1    0.0000
     15 H4         2.5548    0.1730    4.4193 H         1 RES1    0.0000
     16 H5         3.2238   -1.1000    2.6215 H         1 RES1    0.0000
     17 H6         4.6006   -1.6935    0.8667 H         1 RES1    0.0000
     18 H7         6.8584   -0.0946    0.2493 H         1 RES1    0.0000
@<TRIPOS>BOND
     1    1    2 ar
     2    2    3 ar
     3    3    4 ar
     4    4    5 ar
     5    5    6 ar
     6    6    1 ar
     7    7    6 1
     8    8    7 2
     9    9    8 1
    10   10    9 2
    11   11    9 2
    12   12    1 1
    13   13    2 1
    14   14    3 1
    15   15    4 1
    16   16    5 1
    17   17    7 1
    18   18    8 1
@<TRIPOS>SUBSTRUCTURE
     1 RES1 1

@<TRIPOS>CRYSIN
   8.0970    5.7682   18.6470  90.0000 117.7100  90.0000  14 1

