# MOL2 file generated by ConQuest
# Please check atom types

@<TRIPOS>MOLECULE
KANWOL13
    36    18     2
SMALL
NO_CHARGES
****
Generated from CSD

@<TRIPOS>ATOM
      1 N1         2.9536    4.6675    8.7673 N.pl3     1 RES1    0.0000
      2 O1         2.2447    5.6265    8.9579 O.2       1 RES1    0.0000
      3 O2         3.9717    4.3987    9.4011 O.2       1 RES1    0.0000
      4 C1         1.0629    2.8038    6.0701 C.ar      1 RES1    0.0000
      5 C2        -0.0150    3.1229    5.2412 C.ar      1 RES1    0.0000
      6 H1        -0.4965    3.9287    5.3868 H         1 RES1    0.0000
      7 C3        -0.3890    2.2806    4.2128 C.ar      1 RES1    0.0000
      8 H2        -1.1099    2.5185    3.6415 H         1 RES1    0.0000
      9 C4         0.2942    1.0791    4.0132 C.ar      1 RES1    0.0000
     10 H3         0.0380    0.4975    3.3071 H         1 RES1    0.0000
     11 C5         1.3435    0.7371    4.8450 C.ar      1 RES1    0.0000
     12 H4         1.7984   -0.0864    4.7163 H         1 RES1    0.0000
     13 C6         1.7356    1.5863    5.8649 C.ar      1 RES1    0.0000
     14 H5         2.4627    1.3462    6.4275 H         1 RES1    0.0000
     15 C7         1.4897    3.7520    7.0928 C.2       1 RES1    0.0000
     16 H6         0.9210    4.4908    7.2733 H         1 RES1    0.0000
     17 C8         2.6150    3.6570    7.7890 C.2       1 RES1    0.0000
     18 H7         3.2000    2.9228    7.6451 H         1 RES1    0.0000
     19 N2         2.9650    4.8093    8.6728 Du        2 SUP2    0.0000
     20 O3         2.5619    5.9302    9.0446 Du        2 SUP2    0.0000
     21 O4         4.1712    4.7928    9.0527 Du        2 SUP2    0.0000
     22 C9         1.3623    2.4796    6.1255 Du        2 SUP2    0.0000
     23 C10        0.2984    3.1527    5.5362 Du        2 SUP2    0.0000
     24 H8         0.0174    3.9922    5.8820 Du        2 SUP2    0.0000
     25 C11       -0.3559    2.5968    4.4435 Du        2 SUP2    0.0000
     26 H9        -1.0834    3.0566    4.0409 Du        2 SUP2    0.0000
     27 C12        0.0544    1.3685    3.9386 Du        2 SUP2    0.0000
     28 H10       -0.3928    0.9887    3.1918 Du        2 SUP2    0.0000
     29 C13        1.1183    0.6960    4.5280 Du        2 SUP2    0.0000
     30 H11        1.3993   -0.1435    4.1822 Du        2 SUP2    0.0000
     31 C14        1.7734    1.2512    5.6206 Du        2 SUP2    0.0000
     32 H12        2.5002    0.7915    6.0232 Du        2 SUP2    0.0000
     33 C15        2.0946    3.1561    7.1922 Du        2 SUP2    0.0000
     34 H13        2.8155    2.6431    7.5380 Du        2 SUP2    0.0000
     35 C16        1.9728    4.2369    7.7295 Du        2 SUP2    0.0000
     36 H14        1.1960    4.7482    7.5347 Du        2 SUP2    0.0000
@<TRIPOS>BOND
     1    1    2 2
     2    3    1 2
     3    4    5 ar
     4    5    6 1
     5    7    5 ar
     6    8    7 1
     7    9    7 ar
     8   10    9 1
     9   11    9 ar
    10   12   11 1
    11   13    4 ar
    12   14   13 1
    13   15    4 1
    14   16   15 1
    15   17    1 1
    16   18   17 1
    17   11   13 ar
    18   15   17 2
@<TRIPOS>SUBSTRUCTURE
     1 RES1 1
     2 SUP2 19

@<TRIPOS>CRYSIN
   8.0279    5.7186   17.6994  90.0000 113.4700  90.0000  14 1

