# MOL2 file generated by ConQuest
# Please check atom types

@<TRIPOS>MOLECULE
KANWOL15
    36    18     2
SMALL
NO_CHARGES
****
Generated from CSD

@<TRIPOS>ATOM
      1 N1         3.1275    4.6385    8.6484 N.pl3     1 RES1    0.0000
      2 O1         2.3997    5.6033    8.8548 O.2       1 RES1    0.0000
      3 O2         4.2118    4.4770    9.2233 O.2       1 RES1    0.0000
      4 C1         1.1634    2.7540    6.0098 C.ar      1 RES1    0.0000
      5 C2         0.0720    3.0875    5.1977 C.ar      1 RES1    0.0000
      6 H1        -0.4012    3.8964    5.3537 H         1 RES1    0.0000
      7 C3        -0.3246    2.2439    4.1644 C.ar      1 RES1    0.0000
      8 H2        -1.0526    2.4880    3.6044 H         1 RES1    0.0000
      9 C4         0.3456    1.0428    3.9519 C.ar      1 RES1    0.0000
     10 H3         0.0778    0.4678    3.2446 H         1 RES1    0.0000
     11 C5         1.4097    0.6850    4.7777 C.ar      1 RES1    0.0000
     12 H4         1.8561   -0.1429    4.6405 H         1 RES1    0.0000
     13 C6         1.8223    1.5308    5.7989 C.ar      1 RES1    0.0000
     14 H5         2.5505    1.2820    6.3560 H         1 RES1    0.0000
     15 C7         1.5998    3.7168    7.0200 C.2       1 RES1    0.0000
     16 H6         1.0281    4.4497    7.2137 H         1 RES1    0.0000
     17 C8         2.7549    3.6281    7.6867 C.2       1 RES1    0.0000
     18 H7         3.3356    2.8933    7.5269 H         1 RES1    0.0000
     19 N2         3.0030    4.8024    8.6079 Du        2 SUP2    0.0000
     20 O3         2.6701    5.9307    8.9822 Du        2 SUP2    0.0000
     21 O4         3.9816    4.2071    9.1155 Du        2 SUP2    0.0000
     22 C9         1.5050    2.3530    6.0556 Du        2 SUP2    0.0000
     23 C10        0.4587    3.1099    5.5416 Du        2 SUP2    0.0000
     24 H8         0.2489    3.9531    5.9255 Du        2 SUP2    0.0000
     25 C11       -0.2791    2.6365    4.4638 Du        2 SUP2    0.0000
     26 H9        -0.9936    3.1513    4.1120 Du        2 SUP2    0.0000
     27 C12        0.0286    1.4005    3.9016 Du        2 SUP2    0.0000
     28 H10       -0.4754    1.0750    3.1643 Du        2 SUP2    0.0000
     29 C13        1.0748    0.6430    4.4156 Du        2 SUP2    0.0000
     30 H11        1.2846   -0.1996    4.0317 Du        2 SUP2    0.0000
     31 C14        1.8127    1.1170    5.4934 Du        2 SUP2    0.0000
     32 H12        2.5272    0.6021    5.8452 Du        2 SUP2    0.0000
     33 C15        2.1349    3.1695    7.0932 Du        2 SUP2    0.0000
     34 H13        2.8279    2.6490    7.4771 Du        2 SUP2    0.0000
     35 C16        2.1278    4.1617    7.6249 Du        2 SUP2    0.0000
     36 H14        1.3858    4.7049    7.3808 Du        2 SUP2    0.0000
@<TRIPOS>BOND
     1    1    2 2
     2    3    1 2
     3    4    5 ar
     4    5    6 1
     5    7    5 ar
     6    8    7 1
     7    9    7 ar
     8   10    9 1
     9   11    9 ar
    10   12   11 1
    11   13    4 ar
    12   14   13 1
    13   15    4 1
    14   16   15 1
    15   17    1 1
    16   18   17 1
    17   11   13 ar
    18   15   17 2
@<TRIPOS>SUBSTRUCTURE
     1 RES1 1
     2 SUP2 19

@<TRIPOS>CRYSIN
   7.9963    5.6699   17.4179  90.0000 112.7520  90.0000  14 1

