# MOL2 file generated by ConQuest
# Please check atom types

@<TRIPOS>MOLECULE
KANWOL12
    36    18     2
SMALL
NO_CHARGES
****
Generated from CSD

@<TRIPOS>ATOM
      1 N1         2.8143    4.7010    8.8298 N.pl3     1 RES1    0.0000
      2 O1         2.1133    5.6519    9.0223 O.2       1 RES1    0.0000
      3 O2         3.8999    4.5433    9.4010 O.2       1 RES1    0.0000
      4 C1         0.9916    2.8222    6.1036 C.ar      1 RES1    0.0000
      5 C2        -0.0787    3.1353    5.2635 C.ar      1 RES1    0.0000
      6 H1        -0.5595    3.9314    5.4005 H         1 RES1    0.0000
      7 C3        -0.4383    2.2932    4.2383 C.ar      1 RES1    0.0000
      8 H2        -1.1476    2.5235    3.6651 H         1 RES1    0.0000
      9 C4         0.2549    1.0914    4.0505 C.ar      1 RES1    0.0000
     10 H3         0.0103    0.5123    3.3516 H         1 RES1    0.0000
     11 C5         1.2916    0.7592    4.8847 C.ar      1 RES1    0.0000
     12 H4         1.7460   -0.0541    4.7621 H         1 RES1    0.0000
     13 C6         1.6703    1.6083    5.9017 C.ar      1 RES1    0.0000
     14 H5         2.3871    1.3740    6.4632 H         1 RES1    0.0000
     15 C7         1.3998    3.7714    7.1311 C.2       1 RES1    0.0000
     16 H6         0.8329    4.5030    7.2975 H         1 RES1    0.0000
     17 C8         2.5053    3.6816    7.8460 C.2       1 RES1    0.0000
     18 H7         3.0919    2.9581    7.7170 H         1 RES1    0.0000
     19 N2         2.8041    4.8409    8.7390 Du        2 SUP2    0.0000
     20 O3         2.4495    5.9720    9.1194 Du        2 SUP2    0.0000
     21 O4         3.6127    4.1467    9.3904 Du        2 SUP2    0.0000
     22 C9         1.2972    2.4993    6.1629 Du        2 SUP2    0.0000
     23 C10        0.2384    3.1693    5.5621 Du        2 SUP2    0.0000
     24 H8        -0.0458    3.9993    5.9000 Du        2 SUP2    0.0000
     25 C11       -0.4006    2.6127    4.4601 Du        2 SUP2    0.0000
     26 H9        -1.1166    3.0657    4.0536 Du        2 SUP2    0.0000
     27 C12        0.0193    1.3855    3.9606 Du        2 SUP2    0.0000
     28 H10       -0.4127    1.0090    3.2145 Du        2 SUP2    0.0000
     29 C13        1.0781    0.7149    4.5613 Du        2 SUP2    0.0000
     30 H11        1.3623   -0.1145    4.2234 Du        2 SUP2    0.0000
     31 C14        1.7171    1.2721    5.6633 Du        2 SUP2    0.0000
     32 H12        2.4331    0.8191    6.0698 Du        2 SUP2    0.0000
     33 C15        2.0368    3.1463    7.2469 Du        2 SUP2    0.0000
     34 H13        2.7535    2.6507    7.5995 Du        2 SUP2    0.0000
     35 C16        1.8452    4.2923    7.7791 Du        2 SUP2    0.0000
     36 H14        1.0788    4.7879    7.5522 Du        2 SUP2    0.0000
@<TRIPOS>BOND
     1    1    2 2
     2    3    1 2
     3    4    5 ar
     4    5    6 1
     5    7    5 ar
     6    8    7 1
     7    9    7 ar
     8   10    9 1
     9   11    9 ar
    10   12   11 1
    11   13    4 ar
    12   14   13 1
    13   15    4 1
    14   16   15 1
    15   17    1 1
    16   18   17 1
    17   11   13 ar
    18   15   17 2
@<TRIPOS>SUBSTRUCTURE
     1 RES1 1
     2 SUP2 19

@<TRIPOS>CRYSIN
   8.0411    5.7561   17.8760  90.0000 114.0400  90.0000  14 1

