# MOL2 file generated by ConQuest
# Please check atom types

@<TRIPOS>MOLECULE
KANWOL14
    36    18     2
SMALL
NO_CHARGES
****
Generated from CSD

@<TRIPOS>ATOM
      1 N1         3.0718    4.6428    8.7061 N.pl3     1 RES1    0.0000
      2 O1         2.3584    5.6098    8.9049 O.2       1 RES1    0.0000
      3 O2         4.1498    4.4751    9.2844 O.2       1 RES1    0.0000
      4 C1         1.1333    2.7751    6.0428 C.ar      1 RES1    0.0000
      5 C2         0.0467    3.1103    5.2299 C.ar      1 RES1    0.0000
      6 H1        -0.4267    3.9191    5.3863 H         1 RES1    0.0000
      7 C3        -0.3478    2.2716    4.1948 C.ar      1 RES1    0.0000
      8 H2        -1.0750    2.5167    3.6355 H         1 RES1    0.0000
      9 C4         0.3238    1.0733    3.9796 C.ar      1 RES1    0.0000
     10 H3         0.0581    0.5003    3.2705 H         1 RES1    0.0000
     11 C5         1.3836    0.7152    4.8036 C.ar      1 RES1    0.0000
     12 H4         1.8291   -0.1120    4.6660 H         1 RES1    0.0000
     13 C6         1.7948    1.5565    5.8269 C.ar      1 RES1    0.0000
     14 H5         2.5246    1.3075    6.3812 H         1 RES1    0.0000
     15 C7         1.5653    3.7334    7.0576 C.2       1 RES1    0.0000
     16 H6         0.9954    4.4700    7.2469 H         1 RES1    0.0000
     17 C8         2.7111    3.6366    7.7356 C.2       1 RES1    0.0000
     18 H7         3.2919    2.9015    7.5796 H         1 RES1    0.0000
     19 N2         3.0872    4.7923    8.5987 Du        2 SUP2    0.0000
     20 O3         2.6357    5.8838    8.9637 Du        2 SUP2    0.0000
     21 O4         4.0016    4.2068    9.2027 Du        2 SUP2    0.0000
     22 C9         1.4672    2.4047    6.0840 Du        2 SUP2    0.0000
     23 C10        0.4157    3.1414    5.5591 Du        2 SUP2    0.0000
     24 H8         0.1857    3.9816    5.9386 Du        2 SUP2    0.0000
     25 C11       -0.3079    2.6491    4.4770 Du        2 SUP2    0.0000
     26 H9        -1.0283    3.1539    4.1168 Du        2 SUP2    0.0000
     27 C12        0.0256    1.4212    3.9198 Du        2 SUP2    0.0000
     28 H10       -0.4679    1.0841    3.1817 Du        2 SUP2    0.0000
     29 C13        1.0803    0.6822    4.4463 Du        2 SUP2    0.0000
     30 H11        1.3063   -0.1580    4.0668 Du        2 SUP2    0.0000
     31 C14        1.7999    1.1768    5.5284 Du        2 SUP2    0.0000
     32 H12        2.5210    0.6697    5.8870 Du        2 SUP2    0.0000
     33 C15        2.0276    3.2403    7.1273 Du        2 SUP2    0.0000
     34 H13        2.6066    2.6497    7.5941 Du        2 SUP2    0.0000
     35 C16        2.1476    4.1670    7.6571 Du        2 SUP2    0.0000
     36 H14        1.4342    4.7565    7.4600 Du        2 SUP2    0.0000
@<TRIPOS>BOND
     1    1    2 2
     2    3    1 2
     3    4    5 ar
     4    5    6 1
     5    7    5 ar
     6    8    7 1
     7    9    7 ar
     8   10    9 1
     9   11    9 ar
    10   12   11 1
    11   13    4 ar
    12   14   13 1
    13   15    4 1
    14   16   15 1
    15   17    1 1
    16   18   17 1
    17   11   13 ar
    18   15   17 2
@<TRIPOS>SUBSTRUCTURE
     1 RES1 1
     2 SUP2 19

@<TRIPOS>CRYSIN
   8.0185    5.6848   17.5444  90.0000 112.9910  90.0000  14 1

