# MOL2 file generated by ConQuest
# Please check atom types

@<TRIPOS>MOLECULE
KANWOL11
    36    18     2
SMALL
NO_CHARGES
****
Generated from CSD

@<TRIPOS>ATOM
      1 N1         2.6786    4.7332    8.8895 N.pl3     1 RES1    0.0000
      2 O1         1.9832    5.6763    9.1019 O.2       1 RES1    0.0000
      3 O2         3.6089    4.3088    9.5631 O.2       1 RES1    0.0000
      4 C1         0.9202    2.8439    6.1324 C.ar      1 RES1    0.0000
      5 C2        -0.1366    3.1421    5.2897 C.ar      1 RES1    0.0000
      6 H1        -0.6172    3.9278    5.4187 H         1 RES1    0.0000
      7 C3        -0.4870    2.2986    4.2667 C.ar      1 RES1    0.0000
      8 H2        -1.1855    2.5197    3.6940 H         1 RES1    0.0000
      9 C4         0.2206    1.0931    4.0960 C.ar      1 RES1    0.0000
     10 H3        -0.0125    0.5101    3.4101 H         1 RES1    0.0000
     11 C5         1.2446    0.7834    4.9313 C.ar      1 RES1    0.0000
     12 H4         1.7051   -0.0168    4.8181 H         1 RES1    0.0000
     13 C6         1.6065    1.6379    5.9399 C.ar      1 RES1    0.0000
     14 H5         2.3139    1.4150    6.5018 H         1 RES1    0.0000
     15 C7         1.3096    3.7941    7.1690 C.2       1 RES1    0.0000
     16 H6         0.7431    4.5143    7.3289 H         1 RES1    0.0000
     17 C8         2.4015    3.7072    7.8947 C.2       1 RES1    0.0000
     18 H7         2.9913    2.9985    7.7736 H         1 RES1    0.0000
     19 N2         2.6800    4.8229    8.8353 Du        2 SUP2    0.0000
     20 O3         2.3605    5.9867    9.1192 Du        2 SUP2    0.0000
     21 O4         3.8866    4.8437    9.1997 Du        2 SUP2    0.0000
     22 C9         1.2255    2.5325    6.1998 Du        2 SUP2    0.0000
     23 C10        0.1724    3.1965    5.5812 Du        2 SUP2    0.0000
     24 H8        -0.1196    4.0152    5.9127 Du        2 SUP2    0.0000
     25 C11       -0.4449    2.6367    4.4685 Du        2 SUP2    0.0000
     26 H9        -1.1494    3.0813    4.0550 Du        2 SUP2    0.0000
     27 C12       -0.0091    1.4127    3.9746 Du        2 SUP2    0.0000
     28 H10       -0.4223    1.0381    3.2312 Du        2 SUP2    0.0000
     29 C13        1.0440    0.7492    4.5933 Du        2 SUP2    0.0000
     30 H11        1.3353   -0.0701    4.2634 Du        2 SUP2    0.0000
     31 C14        1.6612    1.3091    5.7059 Du        2 SUP2    0.0000
     32 H12        2.3657    0.8644    6.1194 Du        2 SUP2    0.0000
     33 C15        1.9514    3.1705    7.2829 Du        2 SUP2    0.0000
     34 H13        2.6695    2.6859    7.6210 Du        2 SUP2    0.0000
     35 C16        1.7449    4.3070    7.8376 Du        2 SUP2    0.0000
     36 H14        0.9948    4.8055    7.6046 Du        2 SUP2    0.0000
@<TRIPOS>BOND
     1    1    2 2
     2    3    1 2
     3    4    5 ar
     4    5    6 1
     5    7    5 ar
     6    8    7 1
     7    9    7 ar
     8   10    9 1
     9   11    9 ar
    10   12   11 1
    11   13    4 ar
    12   14   13 1
    13   15    4 1
    14   16   15 1
    15   17    1 1
    16   18   17 1
    17   11   13 ar
    18   15   17 2
@<TRIPOS>SUBSTRUCTURE
     1 RES1 1
     2 SUP2 19

@<TRIPOS>CRYSIN
   8.0602    5.7898   18.0494  90.0000 114.6060  90.0000  14 1

