# MOL2 file generated by ConQuest
# Please check atom types

@<TRIPOS>MOLECULE
KAPNUN
    28    28     1
SMALL
NO_CHARGES
****
Generated from CSD

@<TRIPOS>ATOM
      1 O1         2.4793    3.6043    4.6234 O.2       1 RES1    0.0000
      2 O2         5.6518    4.7766    1.8685 O.3       1 RES1    0.0000
      3 H1         6.0618    5.4094    1.4981 H         1 RES1    0.0000
      4 O3         1.0543   -1.1234   -0.1825 O.2       1 RES1    0.0000
      5 O4         1.7758    0.2925   -1.6588 O.2       1 RES1    0.0000
      6 N1         4.6758    3.3827    4.1518 N.am      1 RES1    0.0000
      7 N2         1.5847   -0.0536   -0.4929 N.pl3     1 RES1    0.0000
      8 C1         2.9580    2.4014    2.6503 C.ar      1 RES1    0.0000
      9 C2         3.3220    2.6916    1.3400 C.ar      1 RES1    0.0000
     10 H2         3.9020    3.4224    1.1611 H         1 RES1    0.0000
     11 C3         2.8404    1.9164    0.2899 C.ar      1 RES1    0.0000
     12 H3         3.0655    2.1221   -0.6102 H         1 RES1    0.0000
     13 C4         2.0253    0.8367    0.5889 C.ar      1 RES1    0.0000
     14 C5         1.6103    0.5530    1.8819 C.ar      1 RES1    0.0000
     15 H4         1.0307   -0.1787    2.0582 H         1 RES1    0.0000
     16 C6         2.0615    1.3615    2.9043 C.ar      1 RES1    0.0000
     17 H5         1.7584    1.2090    3.7916 H         1 RES1    0.0000
     18 C7         3.3792    3.1997    3.8591 C.2       1 RES1    0.0000
     19 C8         5.0057    4.1363    5.3654 C.3       1 RES1    0.0000
     20 H6         4.8419    5.0904    5.2122 H         1 RES1    0.0000
     21 H7         5.9496    3.9986    5.5891 H         1 RES1    0.0000
     22 H8         4.4453    3.8238    6.1064 H         1 RES1    0.0000
     23 C9         5.8015    2.9096    3.3392 C.3       1 RES1    0.0000
     24 H9         5.4617    2.2963    2.6404 H         1 RES1    0.0000
     25 H10        6.4242    2.3988    3.9149 H         1 RES1    0.0000
     26 C10        6.5521    4.0418    2.6813 C.3       1 RES1    0.0000
     27 H11        6.9426    4.6337    3.3722 H         1 RES1    0.0000
     28 H12        7.2888    3.6810    2.1277 H         1 RES1    0.0000
@<TRIPOS>BOND
     1    1   18 2
     2    2    3 1
     3    4    7 2
     4    5    7 2
     5    6   18 1
     6    7   13 1
     7    8    9 ar
     8    9   10 1
     9   11    9 ar
    10   12   11 1
    11   13   11 ar
    12   14   13 ar
    13   15   14 1
    14   16    8 ar
    15   17   16 1
    16   18    8 1
    17   19    6 1
    18   20   19 1
    19   21   19 1
    20   22   19 1
    21   23    6 1
    22   24   23 1
    23   25   23 1
    24   26    2 1
    25   27   26 1
    26   28   26 1
    27   14   16 ar
    28   23   26 1
@<TRIPOS>SUBSTRUCTURE
     1 RES1 1

@<TRIPOS>CRYSIN
   7.1605   21.3500    7.1078  90.0000 103.7700  90.0000 231 1

