# MOL2 file generated by ConQuest
# Please check atom types

@<TRIPOS>MOLECULE
KAQPEA
    46    42     2
SMALL
NO_CHARGES
****
Generated from CSD

@<TRIPOS>ATOM
      1 O1        11.8174    8.9037    1.5804 O.3       1 RES1    0.0000
      2 C1        10.6931    8.4344    2.1333 C.2       1 RES1    0.0000
      3 O2        10.5994    7.3269    2.5853 O.2       1 RES1    0.0000
      4 C2         9.6330    9.4463    2.1341 C.2       1 RES1    0.0000
      5 C3         9.7931   10.8088    1.9120 C.2       1 RES1    0.0000
      6 N1         8.6027   11.3683    2.1589 N.3       1 RES1    0.0000
      7 N2         7.6503   10.4740    2.5247 N.2       1 RES1    0.0000
      8 C4         8.2720    9.2964    2.5092 C.2       1 RES1    0.0000
      9 C5         7.4564    8.0998    2.7895 C.ar      1 RES1    0.0000
     10 C6         7.6879    6.8935    2.1519 C.ar      1 RES1    0.0000
     11 C7         6.8747    5.8012    2.3802 C.ar      1 RES1    0.0000
     12 C8         5.8194    5.9351    3.2601 C.ar      1 RES1    0.0000
     13 N3         4.9760    4.7553    3.5086 N.pl3     1 RES1    0.0000
     14 O3         5.3378    3.6822    3.0730 O.2       1 RES1    0.0000
     15 O4         3.9716    4.8898    4.1679 O.2       1 RES1    0.0000
     16 C9         5.5480    7.1132    3.9008 C.ar      1 RES1    0.0000
     17 C10        6.3728    8.1973    3.6593 C.ar      1 RES1    0.0000
     18 C11        8.2593   12.7943    2.1131 C.3       1 RES1    0.0000
     19 C12       10.9599   11.6479    1.4763 C.3       1 RES1    0.0000
     20 C13       12.9781    8.0364    1.6223 C.3       1 RES1    0.0000
     21 C14       14.0780    8.7418    0.9047 C.3       1 RES1    0.0000
     22 C15       10.5212   13.0547    1.0204 C.3       1 RES1    0.0000
     23 C16        9.2744   13.4816    1.2456 C.3       1 RES1    0.0000
     24 H1         8.4360    6.8194    1.5376 H         1 RES1    0.0000
     25 H2         7.0206    4.9622    1.9252 H         1 RES1    0.0000
     26 H3         4.8178    7.1590    4.5314 H         1 RES1    0.0000
     27 H4         6.1911    9.0395    4.1144 H         1 RES1    0.0000
     28 H5        13.2366    7.8771    2.5915 H         1 RES1    0.0000
     29 H6        12.7767    7.1629    1.1843 H         1 RES1    0.0000
     30 H7        14.8675    8.1779    0.8760 H         1 RES1    0.0000
     31 H8        14.2848    9.5945    1.3326 H         1 RES1    0.0000
     32 H9        13.7948    8.9231   -0.0186 H         1 RES1    0.0000
     33 H10        7.8126   13.0430    2.9355 H         1 RES1    0.0000
     34 H11        7.6410   12.9518    1.3963 H         1 RES1    0.0000
     35 H12       11.7701   11.3760    1.9252 H         1 RES1    0.0000
     36 H13       11.1202   11.5371    0.5257 H         1 RES1    0.0000
     37 H14       11.3748   13.6660    1.0344 H         1 RES1    0.0000
     38 H15       10.2536   13.0954    0.1266 H         1 RES1    0.0000
     39 H16        9.1597   14.4112    1.3404 H         1 RES1    0.0000
     40 H17        9.1834   13.1866    0.3875 H         1 RES1    0.0000
     41 C17       10.6528   13.1245    1.8157 Du        2 SUP2    0.0000
     42 C18        9.5339   13.6349    1.9531 Du        2 SUP2    0.0000
     43 H18       10.6585   13.2216    2.7344 Du        2 SUP2    0.0000
     44 H19        9.9617   13.8426    2.7724 Du        2 SUP2    0.0000
     45 H20       11.2766   13.6737    1.3854 Du        2 SUP2    0.0000
     46 H21        9.2966   14.5470    1.5602 Du        2 SUP2    0.0000
@<TRIPOS>BOND
     1    1    2 1
     2    2    3 2
     3    4    2 1
     4    5    4 2
     5    6    5 1
     6    7    6 1
     7    8    4 1
     8    9    8 1
     9   10    9 ar
    10   11   10 ar
    11   12   11 ar
    12   13   12 1
    13   14   13 2
    14   15   13 2
    15   16   12 ar
    16   17    9 ar
    17   18    6 1
    18   19    5 1
    19   20    1 1
    20   21   20 1
    21   22   19 1
    22   23   18 1
    23   24   10 1
    24   25   11 1
    25   26   16 1
    26   27   17 1
    27   28   20 1
    28   29   20 1
    29   30   21 1
    30   31   21 1
    31   32   21 1
    32   33   18 1
    33   34   18 1
    34   35   19 1
    35   36   19 1
    36   37   22 1
    37   38   22 1
    38   39   23 1
    39   40   23 1
    40    7    8 2
    41   16   17 ar
    42   22   23 1
@<TRIPOS>SUBSTRUCTURE
     1 RES1 1
     2 SUP2 41

@<TRIPOS>CRYSIN
  10.2029   19.4064    7.7687  90.0000  91.5480  90.0000  14 1

