# MOL2 file generated by ConQuest
# Please check atom types

@<TRIPOS>MOLECULE
KAQREZ
    48    50     2
SMALL
NO_CHARGES
****
Generated from CSD

@<TRIPOS>ATOM
      1 C1         2.4251    2.7640    8.4144 C.3       1 RES1    0.0000
      2 C2         1.6557    2.0683    7.2655 C.3       1 RES1    0.0000
      3 C3         2.7232    1.5302    6.2925 C.3       1 RES1    0.0000
      4 H1         2.8882    0.5780    6.4520 H         1 RES1    0.0000
      5 C4         2.0772    1.7414    4.9426 C.3       1 RES1    0.0000
      6 H2         1.4933    0.9721    4.7748 H         1 RES1    0.0000
      7 C5         3.0458    1.8381    3.7764 C.3       1 RES1    0.0000
      8 H3         3.3262    0.9143    3.6039 H         1 RES1    0.0000
      9 C6         2.5418    2.3573    2.4254 C.3       1 RES1    0.0000
     10 H4         2.1239    1.6458    1.9149 H         1 RES1    0.0000
     11 H5         1.9025    3.0762    2.5469 H         1 RES1    0.0000
     12 C7         3.7858    2.8534    1.7383 C.3       1 RES1    0.0000
     13 H6         3.5664    3.4797    1.0308 H         1 RES1    0.0000
     14 H7         4.2937    2.1177    1.3624 H         1 RES1    0.0000
     15 C8         4.5566    3.5344    2.8454 C.3       1 RES1    0.0000
     16 H8         4.2007    4.4182    3.0242 H         1 RES1    0.0000
     17 H9         5.4961    3.6121    2.6177 H         1 RES1    0.0000
     18 C9         4.3587    2.6095    4.0475 C.3       1 RES1    0.0000
     19 H10        5.0811    1.9485    4.0076 H         1 RES1    0.0000
     20 C10        4.4523    3.2622    5.4207 C.3       1 RES1    0.0000
     21 H11        5.3928    3.4902    5.5749 H         1 RES1    0.0000
     22 C11        4.0051    2.3636    6.5700 C.3       1 RES1    0.0000
     23 H12        4.7386    1.7845    6.8655 H         1 RES1    0.0000
     24 C12        3.6364    3.3694    7.6565 C.3       1 RES1    0.0000
     25 C13        4.7859    3.8759    8.5343 C.3       1 RES1    0.0000
     26 H13        4.4451    4.4992    9.1798 H         1 RES1    0.0000
     27 H14        5.4411    4.3110    7.9838 H         1 RES1    0.0000
     28 H15        5.1926    3.1350    8.9891 H         1 RES1    0.0000
     29 C14        1.5838    3.7393    9.2193 C.3       1 RES1    0.0000
     30 H16        1.2419    4.4224    8.6380 H         1 RES1    0.0000
     31 H17        2.1258    4.1418    9.9019 H         1 RES1    0.0000
     32 H18        0.8521    3.2706    9.6269 H         1 RES1    0.0000
     33 C15        2.9559    1.6847    9.3765 C.3       1 RES1    0.0000
     34 H19        3.4917    1.0552    8.8876 H         1 RES1    0.0000
     35 H20        2.2164    1.2265    9.7833 H         1 RES1    0.0000
     36 H21        3.4901    2.0977   10.0583 H         1 RES1    0.0000
     37 C16        0.6246    1.0215    7.7044 C.3       1 RES1    0.0000
     38 H22       -0.0047    1.4251    8.3059 H         1 RES1    0.0000
     39 H23        1.0728    0.2985    8.1485 H         1 RES1    0.0000
     40 H24        0.1613    0.6863    6.9336 H         1 RES1    0.0000
     41 N1         1.1802    2.9332    5.2480 N.pl3     1 RES1    0.0000
     42 N2         0.9202    3.0856    6.4748 N.2       1 RES1    0.0000
     43 N3         3.6612    4.5023    5.5851 N.2       1 RES1    0.0000
     44 N4         3.2605    4.5685    6.7841 N.pl3     1 RES1    0.0000
     45 O1         0.6665    3.6405    4.3707 O.2       1 RES1    0.0000
     46 O2         2.6650    5.5638    7.2392 O.2       1 RES1    0.0000
     47 O3         3.5184    5.3420    4.8688 Du        2 SUP2    0.0000
     48 O4         0.3507    3.9863    6.7670 Du        2 SUP2    0.0000
@<TRIPOS>BOND
     1    1    2 1
     2    2    3 1
     3    3    4 1
     4    5    3 1
     5    6    5 1
     6    7    5 1
     7    8    7 1
     8    9    7 1
     9   10    9 1
    10   11    9 1
    11   12    9 1
    12   13   12 1
    13   14   12 1
    14   15   12 1
    15   16   15 1
    16   17   15 1
    17   18    7 1
    18   19   18 1
    19   20   18 1
    20   21   20 1
    21   22    3 1
    22   23   22 1
    23   24    1 1
    24   25   24 1
    25   26   25 1
    26   27   25 1
    27   28   25 1
    28   29    1 1
    29   30   29 1
    30   31   29 1
    31   32   29 1
    32   33    1 1
    33   34   33 1
    34   35   33 1
    35   36   33 1
    36   37    2 1
    37   38   37 1
    38   39   37 1
    39   40   37 1
    40   41    5 1
    41   42    2 1
    42   43   20 1
    43   44   24 1
    44   45   41 1
    45   46   44 1
    46   15   18 1
    47   20   22 1
    48   22   24 1
    49   41   42 2
    50   43   44 2
@<TRIPOS>SUBSTRUCTURE
     1 RES1 1
     2 SUP2 47

@<TRIPOS>CRYSIN
   7.0570   10.5096   20.5250  90.0000  96.6090  90.0000 231 1

