# MOL2 file generated by ConQuest
# Please check atom types

@<TRIPOS>MOLECULE
KAQRIF
    56    55     1
SMALL
NO_CHARGES
****
Generated from CSD

@<TRIPOS>ATOM
      1 O1         9.5120   -1.3857    4.7631 O.2       1 RES1    0.0000
      2 O2        11.1198    0.0260    5.0561 O.2       1 RES1    0.0000
      3 O3        10.7025    0.5558    2.2242 O.2       1 RES1    0.0000
      4 O4         8.8678    1.8335    1.9379 O.3       1 RES1    0.0000
      5 O5         6.0083   -0.7207    3.3924 O.3       1 RES1    0.0000
      6 O6         7.9581   -0.8891    2.2328 O.2       1 RES1    0.0000
      7 O7         5.1514    1.5293    6.0896 O.2       1 RES1    0.0000
      8 O8         6.0918    2.4275    4.2362 O.3       1 RES1    0.0000
      9 N1        10.0025   -0.2785    4.6769 N.pl3     1 RES1    0.0000
     10 N2         7.7626    0.4514    4.0588 N.am      1 RES1    0.0000
     11 N3         7.0493    0.6758    5.2350 N.am      1 RES1    0.0000
     12 H1         6.8848   -0.0434    5.6785 H         1 RES1    0.0000
     13 C1         9.6726    1.0158    2.6058 C.2       1 RES1    0.0000
     14 C2         9.1314    0.8515    4.0440 C.3       1 RES1    0.0000
     15 C3         7.2829   -0.4615    3.1327 C.2       1 RES1    0.0000
     16 C4         9.3745    2.1247    4.8306 C.3       1 RES1    0.0000
     17 H2         8.8359    2.8512    4.4517 H         1 RES1    0.0000
     18 H3        10.3240    2.3634    4.7803 H         1 RES1    0.0000
     19 H4         9.1219    1.9846    5.7673 H         1 RES1    0.0000
     20 C5         9.1694    2.0244    0.5084 C.3       1 RES1    0.0000
     21 H5         9.6654    1.2275    0.1624 H         1 RES1    0.0000
     22 C6         7.8433    2.1237   -0.1791 C.3       1 RES1    0.0000
     23 H6         7.3472    1.2877   -0.0533 H         1 RES1    0.0000
     24 H7         7.9822    2.2797   -1.1367 H         1 RES1    0.0000
     25 H8         7.3323    2.8671    0.2017 H         1 RES1    0.0000
     26 C7        10.0234    3.2471    0.3628 C.3       1 RES1    0.0000
     27 H9        10.8780    3.1052    0.8221 H         1 RES1    0.0000
     28 H10        9.5645    4.0167    0.7599 H         1 RES1    0.0000
     29 H11       10.1884    3.4194   -0.5874 H         1 RES1    0.0000
     30 C8         5.3188   -1.8600    2.7446 C.3       1 RES1    0.0000
     31 C9         5.2007   -1.6146    1.2512 C.3       1 RES1    0.0000
     32 H12        6.0910   -1.6495    0.8437 H         1 RES1    0.0000
     33 H13        4.8033   -0.7325    1.0949 H         1 RES1    0.0000
     34 H14        4.6315   -2.3048    0.8513 H         1 RES1    0.0000
     35 C10        3.9652   -1.8233    3.4140 C.3       1 RES1    0.0000
     36 H15        4.0710   -1.9938    4.3731 H         1 RES1    0.0000
     37 H16        3.3879   -2.5118    3.0207 H         1 RES1    0.0000
     38 H17        3.5587   -0.9415    3.2808 H         1 RES1    0.0000
     39 C11        6.0696   -3.1291    3.0921 C.3       1 RES1    0.0000
     40 H18        6.9403   -3.1268    2.6414 H         1 RES1    0.0000
     41 H19        5.5510   -3.9059    2.7974 H         1 RES1    0.0000
     42 H20        6.2035   -3.1741    4.0623 H         1 RES1    0.0000
     43 C12        5.9980    1.5547    5.2265 C.2       1 RES1    0.0000
     44 C13        5.0768    3.4910    4.0760 C.3       1 RES1    0.0000
     45 C14        3.7458    2.8586    3.8123 C.3       1 RES1    0.0000
     46 H21        3.8052    2.2900    3.0169 H         1 RES1    0.0000
     47 H22        3.0754    3.5582    3.6652 H         1 RES1    0.0000
     48 H23        3.4843    2.3139    4.5849 H         1 RES1    0.0000
     49 C15        5.1156    4.3908    5.2726 C.3       1 RES1    0.0000
     50 H24        4.7815    3.9070    6.0566 H         1 RES1    0.0000
     51 H25        4.5529    5.1764    5.1089 H         1 RES1    0.0000
     52 H26        6.0380    4.6778    5.4349 H         1 RES1    0.0000
     53 C16        5.5767    4.2246    2.8646 C.3       1 RES1    0.0000
     54 H27        5.5488    3.6292    2.0869 H         1 RES1    0.0000
     55 H28        6.4994    4.5172    3.0181 H         1 RES1    0.0000
     56 H29        5.0085    5.0057    2.6984 H         1 RES1    0.0000
@<TRIPOS>BOND
     1    1    9 2
     2    2    9 2
     3    3   13 2
     4    4   13 1
     5    5   15 1
     6    6   15 2
     7    7   43 2
     8    8   43 1
     9    9   14 1
    10   10   11 1
    11   11   12 1
    12   13   14 1
    13   14   10 1
    14   15   10 1
    15   16   14 1
    16   17   16 1
    17   18   16 1
    18   19   16 1
    19   20    4 1
    20   21   20 1
    21   22   20 1
    22   23   22 1
    23   24   22 1
    24   25   22 1
    25   26   20 1
    26   27   26 1
    27   28   26 1
    28   29   26 1
    29   30    5 1
    30   31   30 1
    31   32   31 1
    32   33   31 1
    33   34   31 1
    34   35   30 1
    35   36   35 1
    36   37   35 1
    37   38   35 1
    38   39   30 1
    39   40   39 1
    40   41   39 1
    41   42   39 1
    42   43   11 1
    43   44    8 1
    44   45   44 1
    45   46   45 1
    46   47   45 1
    47   48   45 1
    48   49   44 1
    49   50   49 1
    50   51   49 1
    51   52   49 1
    52   53   44 1
    53   54   53 1
    54   55   53 1
    55   56   53 1
@<TRIPOS>SUBSTRUCTURE
     1 RES1 1

@<TRIPOS>CRYSIN
   9.2865   10.1783   12.8619  86.6960  80.5810  63.5530   2 1

