# MOL2 file generated by ConQuest
# Please check atom types

@<TRIPOS>MOLECULE
KAQWAA
   154   156     2
SMALL
NO_CHARGES
****
Generated from CSD

@<TRIPOS>ATOM
      1 C1        12.7811    0.9903   10.4956 C.2       1 RES1    0.0000
      2 H1        13.3360    0.9493    9.7259 H         1 RES1    0.0000
      3 H2        13.0754    0.6091   11.3127 H         1 RES1    0.0000
      4 C2        11.8583    1.4521   10.4421 C.2       1 RES1    0.0000
      5 H3        11.4253    1.4121   11.2860 H         1 RES1    0.0000
      6 C3        10.9941    2.1551    9.4585 C.3       1 RES1    0.0000
      7 H4        11.3650    2.0483    8.5492 H         1 RES1    0.0000
      8 H5        10.9657    3.1228    9.6695 H         1 RES1    0.0000
      9 C4         9.5734    1.5650    9.5149 C.3       1 RES1    0.0000
     10 H6         9.2608    1.5732   10.4540 H         1 RES1    0.0000
     11 H7         9.6028    0.6255    9.2148 H         1 RES1    0.0000
     12 C5         8.5289    2.3654    8.6175 C.3       1 RES1    0.0000
     13 H8         8.4703    3.3311    8.8731 H         1 RES1    0.0000
     14 C6         7.2033    1.6727    8.7245 C.3       1 RES1    0.0000
     15 H9         7.3269    0.7076    8.4927 H         1 RES1    0.0000
     16 C7         6.1340    2.2833    7.7677 C.3       1 RES1    0.0000
     17 H10        5.9841    3.2275    8.0202 H         1 RES1    0.0000
     18 H11        6.4882    2.2685    6.8435 H         1 RES1    0.0000
     19 C8         4.8238    1.5650    7.7914 C.3       1 RES1    0.0000
     20 H12        4.4376    1.6240    8.7007 H         1 RES1    0.0000
     21 H13        4.9750    0.6060    7.5894 H         1 RES1    0.0000
     22 C9         3.8291    2.1345    6.7870 C.3       1 RES1    0.0000
     23 H14        2.9659    1.6558    6.8732 H         1 RES1    0.0000
     24 H15        3.6677    3.0894    6.9921 H         1 RES1    0.0000
     25 C10        4.7207    3.1505    4.7278 C.2       1 RES1    0.0000
     26 C11        5.7378    3.6072    2.5555 C.3       1 RES1    0.0000
     27 C12        4.5509    4.4487    2.1009 C.3       1 RES1    0.0000
     28 H16        3.8622    3.8606    1.7235 H         1 RES1    0.0000
     29 H17        4.8441    5.0885    1.4234 H         1 RES1    0.0000
     30 H18        4.1796    4.9289    2.8705 H         1 RES1    0.0000
     31 C13        6.8003    4.5667    3.1291 C.3       1 RES1    0.0000
     32 H19        7.5814    4.0515    3.4203 H         1 RES1    0.0000
     33 H20        6.4238    5.0490    3.8957 H         1 RES1    0.0000
     34 H21        7.0687    5.2070    2.4397 H         1 RES1    0.0000
     35 C14        6.2781    2.7297    1.4501 C.3       1 RES1    0.0000
     36 H22        7.0506    2.2228    1.7829 H         1 RES1    0.0000
     37 H23        6.5552    3.2860    0.6953 H         1 RES1    0.0000
     38 H24        5.5812    2.1038    1.1589 H         1 RES1    0.0000
     39 C15        9.5730    3.2429    6.6444 C.2       1 RES1    0.0000
     40 C16        9.8578    3.0273    5.2270 C.ar      1 RES1    0.0000
     41 C17       10.6732    3.9202    4.5376 C.ar      1 RES1    0.0000
     42 H25       11.0090    4.6760    5.0041 H         1 RES1    0.0000
     43 C18       11.0182    3.7560    3.2093 C.ar      1 RES1    0.0000
     44 H26       11.6158    4.3599    2.7784 H         1 RES1    0.0000
     45 C19       10.4808    2.7195    2.5466 C.ar      1 RES1    0.0000
     46 C20        9.6904    1.7959    3.1409 C.ar      1 RES1    0.0000
     47 H27        9.3656    1.0570    2.6417 H         1 RES1    0.0000
     48 C21        9.3525    1.9344    4.4960 C.ar      1 RES1    0.0000
     49 H28        8.7870    1.2982    4.9179 H         1 RES1    0.0000
     50 C22        6.3369    0.7132   10.8521 C.2       1 RES1    0.0000
     51 C23        5.3500    0.1026   12.9560 C.3       1 RES1    0.0000
     52 H29        6.0037   -0.6368   13.0184 H         1 RES1    0.0000
     53 H30        4.4954   -0.2540   12.6113 H         1 RES1    0.0000
     54 C24        5.1471    0.7543   14.3170 C.ar      1 RES1    0.0000
     55 C25        4.2422    1.7959   14.4715 C.ar      1 RES1    0.0000
     56 H31        3.7853    2.1427   13.7138 H         1 RES1    0.0000
     57 C26        4.0040    2.3295   15.7314 C.ar      1 RES1    0.0000
     58 H32        3.3865    3.0438   15.8355 H         1 RES1    0.0000
     59 C27        4.6739    1.8215   16.8398 C.ar      1 RES1    0.0000
     60 H33        4.5115    2.1879   17.7016 H         1 RES1    0.0000
     61 C28        5.5787    0.7799   16.6853 C.ar      1 RES1    0.0000
     62 H34        6.0357    0.4315   17.4431 H         1 RES1    0.0000
     63 C29        5.8151    0.2463   15.4254 C.ar      1 RES1    0.0000
     64 H35        6.4344   -0.4690   15.3214 H         1 RES1    0.0000
     65 C30        2.7052    2.9658   10.8135 C.2       2 RES2    0.0000
     66 H36        1.8693    2.5209   10.9086 H         2 RES2    0.0000
     67 H37        3.4550    2.6800   11.3216 H         2 RES2    0.0000
     68 C31        2.8212    3.9817    9.9785 C.2       2 RES2    0.0000
     69 H38        3.6719    4.3984    9.9102 H         2 RES2    0.0000
     70 C32        1.7178    4.5205    9.1257 C.3       2 RES2    0.0000
     71 H39        2.0084    4.4651    8.1807 H         2 RES2    0.0000
     72 H40        1.6057    5.4780    9.3456 H         2 RES2    0.0000
     73 C33        0.3425    3.8483    9.2326 C.3       2 RES2    0.0000
     74 H41        0.4226    2.9165    8.9147 H         2 RES2    0.0000
     75 H42        0.0863    3.8155   10.1895 H         2 RES2    0.0000
     76 C34       -0.7638    4.5205    8.4690 C.3       2 RES2    0.0000
     77 H43       -0.8573    5.4816    8.7275 H         2 RES2    0.0000
     78 C35       -2.1038    3.7611    8.6294 C.3       2 RES2    0.0000
     79 H44       -1.9778    2.8124    8.3352 H         2 RES2    0.0000
     80 C36       -3.2612    4.3974    7.8033 C.3       2 RES2    0.0000
     81 H45       -3.4523    5.3045    8.1451 H         2 RES2    0.0000
     82 H46       -2.9874    4.4738    6.8554 H         2 RES2    0.0000
     83 C37       -4.4950    3.5559    7.8984 C.3       2 RES2    0.0000
     84 H47       -4.8129    3.5143    8.8345 H         2 RES2    0.0000
     85 H48       -4.3102    2.6358    7.5834 H         2 RES2    0.0000
     86 C38       -5.5352    4.2126    7.0218 C.3       2 RES2    0.0000
     87 H49       -5.6273    5.1603    7.2833 H         2 RES2    0.0000
     88 H50       -6.4066    3.7683    7.1704 H         2 RES2    0.0000
     89 C39       -4.9160    5.2389    4.8139 C.2       2 RES2    0.0000
     90 C40       -4.0644    5.9059    2.6477 C.3       2 RES2    0.0000
     91 C41       -5.2581    6.7423    2.2822 C.3       2 RES2    0.0000
     92 H51       -5.9664    6.1635    1.9315 H         2 RES2    0.0000
     93 H52       -5.0002    7.3955    1.5987 H         2 RES2    0.0000
     94 H53       -5.5820    7.2097    3.0785 H         2 RES2    0.0000
     95 C42       -2.8981    6.7063    3.1825 C.3       2 RES2    0.0000
     96 H54       -2.1586    6.1004    3.3995 H         2 RES2    0.0000
     97 H55       -3.1762    7.1841    3.9908 H         2 RES2    0.0000
     98 H56       -2.6068    7.3503    2.5050 H         2 RES2    0.0000
     99 C43       -3.5465    5.0285    1.4917 C.3       2 RES2    0.0000
    100 H57       -2.7711    4.5138    1.7948 H         2 RES2    0.0000
    101 H58       -3.2833    5.6026    0.7399 H         2 RES2    0.0000
    102 H59       -4.2535    4.4169    1.2035 H         2 RES2    0.0000
    103 C44        0.0614    5.4903    6.4067 C.2       2 RES2    0.0000
    104 C45        0.2869    5.2491    5.0011 C.ar      2 RES2    0.0000
    105 C46        1.1267    6.1265    4.3147 C.ar      2 RES2    0.0000
    106 H60        1.5126    6.8403    4.8139 H         2 RES2    0.0000
    107 C47        1.4420    6.0444    2.9805 C.ar      2 RES2    0.0000
    108 H61        1.9794    6.6879    2.5318 H         2 RES2    0.0000
    109 C48        0.8960    4.9361    2.3475 C.ar      2 RES2    0.0000
    110 C49        0.1093    4.0587    2.9418 C.ar      2 RES2    0.0000
    111 H62       -0.2498    3.3409    2.4307 H         2 RES2    0.0000
    112 C50       -0.2127    4.1459    4.3058 C.ar      2 RES2    0.0000
    113 H63       -0.7434    3.4876    4.7367 H         2 RES2    0.0000
    114 C51       -2.6479    2.6476   10.7630 C.2       2 RES2    0.0000
    115 C52       -3.2322    1.8113   12.8966 C.3       2 RES2    0.0000
    116 H64       -2.3249    1.5557   13.1997 H         2 RES2    0.0000
    117 H65       -3.6277    1.0447   12.4092 H         2 RES2    0.0000
    118 C53       -4.1011    2.1756   14.0941 C.ar      2 RES2    0.0000
    119 C54       -4.9795    3.2531   14.0495 C.ar      2 RES2    0.0000
    120 H66       -5.0524    3.7744   13.2591 H         2 RES2    0.0000
    121 C55       -5.7522    3.5661   15.1609 C.ar      2 RES2    0.0000
    122 H67       -6.3518    4.3029   15.1312 H         2 RES2    0.0000
    123 C56       -5.6471    2.8067   16.3198 C.ar      2 RES2    0.0000
    124 H68       -6.1737    3.0186   17.0805 H         2 RES2    0.0000
    125 C57       -4.7668    1.7292   16.3644 C.ar      2 RES2    0.0000
    126 H69       -4.6958    1.2068   17.1548 H         2 RES2    0.0000
    127 C58       -3.9960    1.4162   15.2530 C.ar      2 RES2    0.0000
    128 H70       -3.3944    0.6788   15.2827 H         2 RES2    0.0000
    129 N1         4.3008    2.0165    5.4320 N.am      1 RES1    0.0000
    130 H71        4.3255    1.2274    5.0427 H         1 RES1    0.0000
    131 N2        10.8019    2.5707    1.1292 N.pl3     1 RES1    0.0000
    132 N3         6.6613    1.7651   10.1360 N.am      1 RES1    0.0000
    133 H72        6.5577    2.5640   10.4926 H         1 RES1    0.0000
    134 N4        -5.1844    4.1357    5.5271 N.am      2 RES2    0.0000
    135 H73       -5.1606    3.3521    5.1319 H         2 RES2    0.0000
    136 N5         1.2119    4.7668    0.8677 N.pl3     2 RES2    0.0000
    137 N6        -2.4981    3.7662   10.0498 N.am      2 RES2    0.0000
    138 H74       -2.6405    4.5405   10.4450 H         2 RES2    0.0000
    139 O1         5.2697    2.6990    3.5688 O.3       1 RES1    0.0000
    140 O2         4.5798    4.2537    5.1378 O.2       1 RES1    0.0000
    141 O3         8.9743    2.1925    7.2358 O.3       1 RES1    0.0000
    142 O4         9.8140    4.3306    7.2001 O.2       1 RES1    0.0000
    143 O5        10.3009    1.6573    0.5379 O.2       1 RES1    0.0000
    144 O6        11.6234    3.3403    0.5913 O.2       1 RES1    0.0000
    145 O7         6.4247   -0.4161   10.5580 O.2       1 RES1    0.0000
    146 O8         5.8514    1.1571   12.0913 O.3       1 RES1    0.0000
    147 O9        -4.3938    4.8745    3.6669 O.3       2 RES2    0.0000
    148 O10       -5.0603    6.3882    5.2448 O.2       2 RES2    0.0000
    149 O11       -0.4647    4.3804    7.0456 O.3       2 RES2    0.0000
    150 O12        0.1919    6.5575    6.9832 O.2       2 RES2    0.0000
    151 O13        1.9712    5.5519    0.3120 O.2       2 RES2    0.0000
    152 O14        0.8356    3.7303    0.3328 O.2       2 RES2    0.0000
    153 O15       -2.4429    1.5342   10.3707 O.2       2 RES2    0.0000
    154 O16       -3.1635    2.9848   12.0229 O.3       2 RES2    0.0000
@<TRIPOS>BOND
     1    1    2 1
     2    3    1 1
     3    4    1 2
     4    5    4 1
     5    6    4 1
     6    7    6 1
     7    8    6 1
     8    9    6 1
     9   10    9 1
    10   11    9 1
    11   12    9 1
    12   13   12 1
    13   14   12 1
    14   15   14 1
    15   16   14 1
    16   17   16 1
    17   18   16 1
    18   19   16 1
    19   20   19 1
    20   21   19 1
    21   22   19 1
    22   23   22 1
    23   24   22 1
    24   25  129 1
    25   26   27 1
    26   27   28 1
    27   29   27 1
    28   30   27 1
    29   31   26 1
    30   32   31 1
    31   33   31 1
    32   34   31 1
    33   35   26 1
    34   36   35 1
    35   37   35 1
    36   38   35 1
    37   39   40 1
    38   40   41 ar
    39   41   42 1
    40   43   41 ar
    41   44   43 1
    42   45   43 ar
    43   46   45 ar
    44   47   46 1
    45   48   40 ar
    46   49   48 1
    47   50  132 1
    48   51   52 1
    49   53   51 1
    50   54   51 1
    51   55   54 ar
    52   56   55 1
    53   57   55 ar
    54   58   57 1
    55   59   57 ar
    56   60   59 1
    57   61   59 ar
    58   62   61 1
    59   63   54 ar
    60   64   63 1
    61   65   66 1
    62   67   65 1
    63   68   65 2
    64   69   68 1
    65   70   68 1
    66   71   70 1
    67   72   70 1
    68   73   70 1
    69   74   73 1
    70   75   73 1
    71   76   73 1
    72   77   76 1
    73   78   76 1
    74   79   78 1
    75   80   78 1
    76   81   80 1
    77   82   80 1
    78   83   80 1
    79   84   83 1
    80   85   83 1
    81   86   83 1
    82   87   86 1
    83   88   86 1
    84   89  134 1
    85   90   91 1
    86   91   92 1
    87   93   91 1
    88   94   91 1
    89   95   90 1
    90   96   95 1
    91   97   95 1
    92   98   95 1
    93   99   90 1
    94  100   99 1
    95  101   99 1
    96  102   99 1
    97  103  104 1
    98  104  105 ar
    99  105  106 1
   100  107  105 ar
   101  108  107 1
   102  109  107 ar
   103  110  109 ar
   104  111  110 1
   105  112  104 ar
   106  113  112 1
   107  114  137 1
   108  115  116 1
   109  117  115 1
   110  118  115 1
   111  119  118 ar
   112  120  119 1
   113  121  119 ar
   114  122  121 1
   115  123  121 ar
   116  124  123 1
   117  125  123 ar
   118  126  125 1
   119  127  118 ar
   120  128  127 1
   121  129   22 1
   122  130  129 1
   123  131   45 1
   124  132   14 1
   125  133  132 1
   126  134   86 1
   127  135  134 1
   128  136  109 1
   129  137   78 1
   130  138  137 1
   131  139   25 1
   132  140   25 2
   133  141   12 1
   134  142   39 2
   135  143  131 2
   136  144  131 2
   137  145   50 2
   138  146   50 1
   139  147   89 1
   140  148   89 2
   141  149   76 1
   142  150  103 2
   143  151  136 2
   144  152  136 2
   145  153  114 2
   146  154  114 1
   147   26  139 1
   148   39  141 1
   149   46   48 ar
   150   51  146 1
   151   61   63 ar
   152   90  147 1
   153  103  149 1
   154  110  112 ar
   155  115  154 1
   156  125  127 ar
@<TRIPOS>SUBSTRUCTURE
     1 RES1 1
     2 RES2 65

@<TRIPOS>CRYSIN
  19.1270    5.1311   30.1020  90.0000  99.1900  90.0000   4 1

