# MOL2 file generated by ConQuest
# Please check atom types

@<TRIPOS>MOLECULE
KARJOC
    30    32     1
SMALL
NO_CHARGES
****
Generated from CSD

@<TRIPOS>ATOM
      1 O1         4.5824    2.0122    8.9313 O.2       1 RES1    0.0000
      2 O2         4.1450   -0.0426    8.4378 O.2       1 RES1    0.0000
      3 N1         9.3292    0.7731    5.0984 N.3       1 RES1    0.0000
      4 N2         9.7986    3.1369    5.5151 N.2       1 RES1    0.0000
      5 N3         4.8454    0.9615    8.3552 N.pl3     1 RES1    0.0000
      6 C1        10.0548    1.9575    4.7201 C.3       1 RES1    0.0000
      7 C2         8.7943    3.1622    6.3159 C.2       1 RES1    0.0000
      8 C3         7.8842    2.0305    6.5098 C.ar      1 RES1    0.0000
      9 C4         6.7878    2.0416    7.3490 C.ar      1 RES1    0.0000
     10 C5         6.0286    0.9159    7.5180 C.ar      1 RES1    0.0000
     11 C6         6.3622   -0.2766    6.8977 C.ar      1 RES1    0.0000
     12 C7         7.4620   -0.3303    6.0950 C.ar      1 RES1    0.0000
     13 C8         8.2419    0.8177    5.8684 C.ar      1 RES1    0.0000
     14 C9         8.5995    4.4297    7.0629 C.ar      1 RES1    0.0000
     15 C10        9.6308    4.9535    7.8291 C.ar      1 RES1    0.0000
     16 C11        9.4941    6.1582    8.4839 C.ar      1 RES1    0.0000
     17 C12        8.3119    6.8594    8.4051 C.ar      1 RES1    0.0000
     18 C13        7.2761    6.3447    7.6601 C.ar      1 RES1    0.0000
     19 C14        7.4131    5.1400    7.0014 C.ar      1 RES1    0.0000
     20 H1         9.6003    0.1611    4.4993 H         1 RES1    0.0000
     21 H2         9.8279    2.1632    3.8156 H         1 RES1    0.0000
     22 H3        10.9810    1.7620    4.7719 H         1 RES1    0.0000
     23 H4         6.5540    2.8390    7.8060 H         1 RES1    0.0000
     24 H5         5.8293   -1.0517    7.0302 H         1 RES1    0.0000
     25 H6         7.7006   -1.1510    5.6783 H         1 RES1    0.0000
     26 H7        10.4483    4.4713    7.9116 H         1 RES1    0.0000
     27 H8        10.2176    6.5088    8.9870 H         1 RES1    0.0000
     28 H9         8.2138    7.6861    8.8660 H         1 RES1    0.0000
     29 H10        6.4599    6.8249    7.6005 H         1 RES1    0.0000
     30 H11        6.6842    4.7945    6.4983 H         1 RES1    0.0000
@<TRIPOS>BOND
     1    1    5 2
     2    2    5 2
     3    3    6 1
     4    4    6 1
     5    5   10 1
     6    6   21 1
     7    7    4 2
     8    8    7 1
     9    9    8 ar
    10   10    9 ar
    11   11   10 ar
    12   12   11 ar
    13   13    3 1
    14   14    7 1
    15   15   14 ar
    16   16   15 ar
    17   17   16 ar
    18   18   17 ar
    19   19   14 ar
    20   20    3 1
    21   22    6 1
    22   23    9 1
    23   24   11 1
    24   25   12 1
    25   26   15 1
    26   27   16 1
    27   28   17 1
    28   29   18 1
    29   30   19 1
    30    8   13 ar
    31   12   13 ar
    32   18   19 ar
@<TRIPOS>SUBSTRUCTURE
     1 RES1 1

@<TRIPOS>CRYSIN
   5.9155   10.1320   19.2520  90.0000  94.0900  90.0000 231 1

