# MOL2 file generated by ConQuest
# Please check atom types

@<TRIPOS>MOLECULE
KARKIZ
    44    41     2
SMALL
NO_CHARGES
****
Generated from CSD

@<TRIPOS>ATOM
      1 O1         5.2870   -2.0593    3.7506 O.2       1 RES1    0.0000
      2 O2         7.0317   -0.8349    3.3655 O.2       1 RES1    0.0000
      3 O3         7.1283    3.6783    4.7257 O.2       1 RES1    0.0000
      4 O4         5.4365    4.6447    5.6584 O.2       1 RES1    0.0000
      5 O5        -2.5062    1.2061    6.9061 O.co2     1 RES1    0.0000
      6 O6        -0.8937    1.4783    5.5459 O.co2     1 RES1    0.0000
      7 N1         5.8793   -0.9951    3.7618 N.pl3     1 RES1    0.0000
      8 N2         5.9715    3.6613    5.1233 N.pl3     1 RES1    0.0000
      9 N3         3.1734    3.4673    5.8334 N.pl3     1 RES1    0.0000
     10 N4         1.8094    3.3500    6.0710 N.2       1 RES1    0.0000
     11 N5        -1.0690    0.7867    9.9391 N.1       1 RES1    0.0000
     12 C1         3.8184    2.3940    5.3258 C.ar      1 RES1    0.0000
     13 C2         3.1601    1.1566    5.0983 C.ar      1 RES1    0.0000
     14 C3         3.8301    0.0782    4.5970 C.ar      1 RES1    0.0000
     15 C4         5.1659    0.1954    4.2607 C.ar      1 RES1    0.0000
     16 C5         5.8700    1.3689    4.4269 C.ar      1 RES1    0.0000
     17 C6         5.1827    2.4448    4.9520 C.ar      1 RES1    0.0000
     18 C7         1.2553    4.4155    6.5135 C.2       1 RES1    0.0000
     19 C8         1.9560    5.7102    6.7636 C.3       1 RES1    0.0000
     20 C9        -0.2390    4.3464    6.7436 C.3       1 RES1    0.0000
     21 C10       -0.7060    3.5806    7.9900 C.3       1 RES1    0.0000
     22 C11        0.1517    3.9635    9.2027 C.3       1 RES1    0.0000
     23 C12       -2.1862    3.8997    8.2388 C.3       1 RES1    0.0000
     24 C13       -0.4993    2.0488    7.7537 C.3       1 RES1    0.0000
     25 C14       -0.9493    1.2660    8.9389 C.1       1 RES1    0.0000
     26 C15       -1.2825    1.5383    6.6135 C.2       1 RES1    0.0000
     27 H1        -0.6145    5.3012    6.8511 H         1 RES1    0.0000
     28 H2        -0.6652    4.0377    5.9009 H         1 RES1    0.0000
     29 H3         0.4078    1.8365    7.5762 H         1 RES1    0.0000
     30 H4        -2.3309    4.8583    8.4013 H         1 RES1    0.0000
     31 H5         1.2286    3.6470    9.1139 H         1 RES1    0.0000
     32 H6        -2.5262    3.3735    9.0514 H         1 RES1    0.0000
     33 H7        -2.8226    3.6861    7.3887 H         1 RES1    0.0000
     34 H8         2.0972    1.0941    5.4634 H         1 RES1    0.0000
     35 H9         0.1462    4.9756    9.2765 H         1 RES1    0.0000
     36 H10       -0.2112    3.6470   10.0516 H         1 RES1    0.0000
     37 H11        3.3917   -0.8596    4.4882 H         1 RES1    0.0000
     38 H12        6.9673    1.4328    4.3257 H         1 RES1    0.0000
     39 H13        1.4573    6.2390    7.1136 H         1 RES1    0.0000
     40 H14        2.6418    6.0176    5.8634 H         1 RES1    0.0000
     41 H15        2.7022    5.4966    7.4387 H         1 RES1    0.0000
     42 N6        -1.5699    1.1736    5.6146 Du        2 SUP2    0.0000
     43 O7        -0.3633    1.0107    9.8440 Du        2 SUP2    0.0000
     44 O8        -2.2112    0.8284    8.8189 Du        2 SUP2    0.0000
@<TRIPOS>BOND
     1    1    7 2
     2    2    7 2
     3    3    8 2
     4    4    8 2
     5    5   26 2
     6    6   26 1
     7    7   15 1
     8    8   17 1
     9    9   10 1
    10   10   18 2
    11   11   25 3
    12   12    9 1
    13   13   12 ar
    14   14   13 ar
    15   15   14 ar
    16   16   15 ar
    17   17   12 ar
    18   18   19 1
    19   19   39 1
    20   20   18 1
    21   21   20 1
    22   22   21 1
    23   23   21 1
    24   24   21 1
    25   25   24 1
    26   26   24 1
    27   27   20 1
    28   28   20 1
    29   29   24 1
    30   30   23 1
    31   31   22 1
    32   32   23 1
    33   33   23 1
    34   34   13 1
    35   35   22 1
    36   36   22 1
    37   37   14 1
    38   38   16 1
    39   40   19 1
    40   41   19 1
    41   16   17 ar
@<TRIPOS>SUBSTRUCTURE
     1 RES1 1
     2 SUP2 42

@<TRIPOS>CRYSIN
  10.6550   13.0250   12.5690  90.0000  95.9200  90.0000  14 1

