# MOL2 file generated by ConQuest
# Please check atom types

@<TRIPOS>MOLECULE
KASNEX
    58    58     2
SMALL
NO_CHARGES
****
Generated from CSD

@<TRIPOS>ATOM
      1 C1        -1.7425    1.8526    5.5832 C.3       1 RES1    0.0000
      2 C2        -0.2117    2.1007    5.3981 C.3       1 RES1    0.0000
      3 C3        -0.4041    2.0104    3.8645 C.3       1 RES1    0.0000
      4 C4        -0.4932    3.2952    3.0500 C.3       1 RES1    0.0000
      5 C5        -1.7389    3.0611    2.1955 C.3       1 RES1    0.0000
      6 C6        -2.7564    2.3989    3.1588 C.3       1 RES1    0.0000
      7 C7        -3.5097    3.4595    3.9008 C.2       1 RES1    0.0000
      8 C8        -3.3695    3.7576    5.1845 C.2       1 RES1    0.0000
      9 C9        -2.4835    3.0390    6.0810 C.2       1 RES1    0.0000
     10 C10       -1.8442    1.5399    4.0667 C.3       1 RES1    0.0000
     11 C11       -3.6762    1.5364    2.3023 C.2       1 RES1    0.0000
     12 O1        -3.4364    0.4118    1.9723 O.2       1 RES1    0.0000
     13 O2        -4.7360    2.1997    1.8712 O.3       1 RES1    0.0000
     14 C12       -5.6317    1.4886    0.9804 C.3       1 RES1    0.0000
     15 C13        0.7656    3.6400    2.2317 C.3       1 RES1    0.0000
     16 C14        0.5343    4.7611    1.2360 C.3       1 RES1    0.0000
     17 C15        1.9263    3.9574    3.1569 C.3       1 RES1    0.0000
     18 N1        -2.4364    3.4921    7.2923 N.2       1 RES1    0.0000
     19 N2        -1.6068    2.7746    8.1354 N.3       1 RES1    0.0000
     20 C16       -1.4930    3.1485    9.4286 C.ar      1 RES1    0.0000
     21 C17       -2.1927    4.2579    9.9227 C.ar      1 RES1    0.0000
     22 C18       -2.1078    4.6377   11.2274 C.ar      1 RES1    0.0000
     23 C19       -1.2868    3.9213   12.0991 C.ar      1 RES1    0.0000
     24 C20       -0.5735    2.8351   11.6661 C.ar      1 RES1    0.0000
     25 C21       -0.6737    2.4408   10.3461 C.ar      1 RES1    0.0000
     26 N3         0.0986    1.2743    9.9646 N.pl3     1 RES1    0.0000
     27 O3         0.0267    0.8666    8.8049 O.2       1 RES1    0.0000
     28 O4         0.7972    0.7321   10.8020 O.2       1 RES1    0.0000
     29 N4        -1.1959    4.3103   13.4954 N.pl3     1 RES1    0.0000
     30 O5        -0.3970    3.7594   14.2107 O.2       1 RES1    0.0000
     31 O6        -1.9735    5.1606   13.9017 O.2       1 RES1    0.0000
     32 H1        -2.0831    1.2219    6.2222 H         1 RES1    0.0000
     33 H2         0.3464    1.4123    5.7663 H         1 RES1    0.0000
     34 H3         0.0887    2.9580    5.7072 H         1 RES1    0.0000
     35 H4         0.2907    1.5399    3.3991 H         1 RES1    0.0000
     36 H5        -0.5524    4.0733    3.6070 H         1 RES1    0.0000
     37 H6        -2.0815    3.8939    1.8617 H         1 RES1    0.0000
     38 H7        -1.5392    2.4781    1.4592 H         1 RES1    0.0000
     39 H8        -4.1549    3.9691    3.4029 H         1 RES1    0.0000
     40 H9        -3.8719    4.4955    5.5355 H         1 RES1    0.0000
     41 H10       -2.1856    0.6686    3.8531 H         1 RES1    0.0000
     42 H11       -5.7469    1.9912    0.1698 H         1 RES1    0.0000
     43 H12       -6.4848    1.3727    1.4058 H         1 RES1    0.0000
     44 H13       -5.2614    0.6278    0.7706 H         1 RES1    0.0000
     45 H14       -5.1778    1.2889    0.1583 Du        2 SUP2    0.0000
     46 H15       -6.4013    2.0337    0.7935 Du        2 SUP2    0.0000
     47 H16       -5.9158    0.6698    1.3944 Du        2 SUP2    0.0000
     48 H17        0.9845    2.8625    1.7110 H         1 RES1    0.0000
     49 H18       -0.1922    4.5287    0.6543 H         1 RES1    0.0000
     50 H19        1.3306    4.8939    0.7172 H         1 RES1    0.0000
     51 H20        0.3216    5.5695    1.7091 H         1 RES1    0.0000
     52 H21        2.7138    4.1315    2.6361 H         1 RES1    0.0000
     53 H22        2.0861    3.2102    3.7386 H         1 RES1    0.0000
     54 H23        1.7128    4.7320    3.6833 H         1 RES1    0.0000
     55 H24       -1.1527    2.0844    7.9408 H         1 RES1    0.0000
     56 H25       -2.7481    4.7640    9.3256 H         1 RES1    0.0000
     57 H26       -2.6058    5.3930   11.5459 H         1 RES1    0.0000
     58 H27       -0.0084    2.3529   12.2727 H         1 RES1    0.0000
@<TRIPOS>BOND
     1    1    2 1
     2    2    3 1
     3    3    4 1
     4    4    5 1
     5    5    6 1
     6    6    7 1
     7    7    8 2
     8    8    9 1
     9    9    1 1
    10   10    1 1
    11   11    6 1
    12   12   11 2
    13   13   11 1
    14   14   13 1
    15   15    4 1
    16   16   15 1
    17   17   15 1
    18   18    9 2
    19   19   18 1
    20   20   19 1
    21   21   20 ar
    22   22   21 ar
    23   23   22 ar
    24   24   23 ar
    25   25   20 ar
    26   26   25 1
    27   27   26 2
    28   28   26 2
    29   29   23 1
    30   30   29 2
    31   31   29 2
    32   32    1 1
    33   33    2 1
    34   34    2 1
    35   35    3 1
    36   36    4 1
    37   37    5 1
    38   38    5 1
    39   39    7 1
    40   40    8 1
    41   41   10 1
    42   42   14 1
    43   43   14 1
    44   44   14 1
    45   48   15 1
    46   49   16 1
    47   50   16 1
    48   51   16 1
    49   52   17 1
    50   53   17 1
    51   54   17 1
    52   55   19 1
    53   56   21 1
    54   57   22 1
    55   58   24 1
    56    3   10 1
    57    6   10 1
    58   24   25 ar
@<TRIPOS>SUBSTRUCTURE
     1 RES1 1
     2 SUP2 45

@<TRIPOS>CRYSIN
  19.0170    5.8240   20.3340  90.0000 110.2700  90.0000  14 2

