# MOL2 file generated by ConQuest
# Please check atom types

@<TRIPOS>MOLECULE
KASQEA
    55    57     1
SMALL
NO_CHARGES
****
Generated from CSD

@<TRIPOS>ATOM
      1 C1        -0.5017    0.5530    1.8707 C.3       1 RES1    0.0000
      2 H1        -1.0882   -0.0961    2.3384 H         1 RES1    0.0000
      3 H2        -0.7383    0.5569    0.8727 H         1 RES1    0.0000
      4 H3         0.4274    0.2866    2.0140 H         1 RES1    0.0000
      5 C2        -0.2734    3.0353    1.6395 C.3       1 RES1    0.0000
      6 C3        -0.1883    4.1541    2.7082 C.3       1 RES1    0.0000
      7 C4        -0.8598    3.5513    3.9338 C.3       1 RES1    0.0000
      8 C5        -0.5307    2.0530    3.8198 C.3       1 RES1    0.0000
      9 C6         1.0361    2.7928    0.9046 C.ar      1 RES1    0.0000
     10 C7         2.2203    2.4711    1.5618 C.ar      1 RES1    0.0000
     11 C8         3.3640    2.1395    0.8500 C.ar      1 RES1    0.0000
     12 C9         3.3660    2.1267   -0.5301 C.ar      1 RES1    0.0000
     13 C10        2.2056    2.4937   -1.1725 C.ar      1 RES1    0.0000
     14 C11        1.0572    2.8266   -0.4743 C.ar      1 RES1    0.0000
     15 C12        4.5961    1.7160   -1.3035 C.3       1 RES1    0.0000
     16 H4         4.3642    1.5807   -2.2254 H         1 RES1    0.0000
     17 H5         4.9457    0.8995   -0.9387 H         1 RES1    0.0000
     18 H6         5.2600    2.4061   -1.2386 H         1 RES1    0.0000
     19 C13       -2.1721    5.5364    2.0822 C.3       1 RES1    0.0000
     20 H7        -2.5598    4.7274    1.8797 H         1 RES1    0.0000
     21 H8        -2.3284    6.2144    1.4769 H         1 RES1    0.0000
     22 H9        -2.5422    5.7889    2.9874 H         1 RES1    0.0000
     23 C14        0.0481    6.4631    1.8411 C.2       1 RES1    0.0000
     24 C15        1.5357    6.3368    1.9300 C.3       1 RES1    0.0000
     25 H10        1.9038    7.1338    1.6335 H         1 RES1    0.0000
     26 H11        1.8426    6.1486    2.8643 H         1 RES1    0.0000
     27 H12        1.8555    5.5418    1.4657 H         1 RES1    0.0000
     28 C16       -1.3520    1.1107    4.6591 C.ar      1 RES1    0.0000
     29 C17       -2.7123    0.9531    4.4456 C.ar      1 RES1    0.0000
     30 C18       -3.4402    0.0420    5.1893 C.ar      1 RES1    0.0000
     31 C19       -2.8360   -0.7375    6.1607 C.ar      1 RES1    0.0000
     32 C20       -1.4855   -0.5659    6.3541 C.ar      1 RES1    0.0000
     33 C21       -0.7526    0.3389    5.6253 C.ar      1 RES1    0.0000
     34 C22       -3.6459   -1.7294    6.9627 C.3       1 RES1    0.0000
     35 H13       -3.1882   -2.5738    6.9851 H         1 RES1    0.0000
     36 H14       -4.5073   -1.8439    6.5554 H         1 RES1    0.0000
     37 H15       -3.7565   -1.4028    7.8589 H         1 RES1    0.0000
     38 N1        -0.8008    1.8771    2.3920 N.3       1 RES1    0.0000
     39 N2        -0.7307    5.4323    2.2664 N.am      1 RES1    0.0000
     40 N3        -0.3680    4.1370    5.2249 N.pl3     1 RES1    0.0000
     41 O1        -0.4690    7.4730    1.3827 O.2       1 RES1    0.0000
     42 O2         0.4732    5.0192    5.1999 O.2       1 RES1    0.0000
     43 O3        -0.8450    3.6875    6.2573 O.2       1 RES1    0.0000
     44 H16       -0.9626    3.2861    0.9488 H         1 RES1    0.0000
     45 H17        0.7154    4.2979    2.9102 H         1 RES1    0.0000
     46 H18       -1.8088    3.6847    3.9474 H         1 RES1    0.0000
     47 H19        0.4493    1.9220    4.0537 H         1 RES1    0.0000
     48 H20        2.2776    2.4570    2.5286 H         1 RES1    0.0000
     49 H21        4.1630    1.8471    1.3426 H         1 RES1    0.0000
     50 H22        2.1703    2.5567   -2.1594 H         1 RES1    0.0000
     51 H23        0.2361    3.0732   -0.9387 H         1 RES1    0.0000
     52 H24       -3.1571    1.4917    3.7851 H         1 RES1    0.0000
     53 H25       -4.3484   -0.0131    5.0125 H         1 RES1    0.0000
     54 H26       -0.9754   -1.1639    6.9594 H         1 RES1    0.0000
     55 H27        0.2436    0.4325    5.7398 H         1 RES1    0.0000
@<TRIPOS>BOND
     1    1    2 1
     2    3    1 1
     3    4    1 1
     4    5    6 1
     5    6    7 1
     6    7    8 1
     7    8   28 1
     8    9    5 1
     9   10    9 ar
    10   11   10 ar
    11   12   11 ar
    12   13   12 ar
    13   14    9 ar
    14   15   12 1
    15   16   15 1
    16   17   15 1
    17   18   15 1
    18   19   20 1
    19   21   19 1
    20   22   19 1
    21   23   24 1
    22   24   25 1
    23   26   24 1
    24   27   24 1
    25   28   29 ar
    26   29   30 ar
    27   30   31 ar
    28   31   32 ar
    29   32   33 ar
    30   33   28 ar
    31   34   31 1
    32   35   34 1
    33   36   34 1
    34   37   34 1
    35   38    1 1
    36   39    6 1
    37   40    7 1
    38   41   23 2
    39   42   40 2
    40   43   40 2
    41   44    5 1
    42   45    6 1
    43   46    7 1
    44   47    8 1
    45   48   10 1
    46   49   11 1
    47   50   13 1
    48   51   14 1
    49   52   29 1
    50   53   30 1
    51   54   32 1
    52   55   33 1
    53    5   38 1
    54    8   38 1
    55   13   14 ar
    56   19   39 1
    57   23   39 1
@<TRIPOS>SUBSTRUCTURE
     1 RES1 1

@<TRIPOS>CRYSIN
   7.4990   12.4740   12.4890 109.5300 103.6400  99.1400   2 1

