# MOL2 file generated by ConQuest
# Please check atom types

@<TRIPOS>MOLECULE
KASWUX
    37    37     1
SMALL
NO_CHARGES
****
Generated from CSD

@<TRIPOS>ATOM
      1 O1         1.6530    5.5382    1.1949 O.2       1 RES1    0.0000
      2 O2         4.2073    2.9855   -0.5411 O.2       1 RES1    0.0000
      3 O3         4.9292    3.4286    8.0715 O.3       1 RES1    0.0000
      4 O4         3.0061    4.4589    7.5371 O.2       1 RES1    0.0000
      5 N1         4.6009    3.8558    3.4563 N.2       1 RES1    0.0000
      6 N2         3.9375    5.2346    5.1543 N.3       1 RES1    0.0000
      7 N3         2.6998    5.2936    3.2027 N.am      1 RES1    0.0000
      8 N4         3.4022    3.8605   -0.0230 N.2       1 RES1    0.0000
      9 N5         5.3752    2.5864    1.7454 N.3       1 RES1    0.0000
     10 C1         3.7579    4.7674    3.9146 C.2       1 RES1    0.0000
     11 C2         1.6850    6.1090    3.8762 C.3       1 RES1    0.0000
     12 C3         2.5458    5.0013    1.8347 C.2       1 RES1    0.0000
     13 C4         3.4888    4.0300    1.2909 C.2       1 RES1    0.0000
     14 C5         4.4941    3.4587    2.1753 C.2       1 RES1    0.0000
     15 C6         4.9104    4.6738    6.0870 C.3       1 RES1    0.0000
     16 C7         4.1638    4.1675    7.3104 C.2       1 RES1    0.0000
     17 C8         5.9478    5.7261    6.5321 C.3       1 RES1    0.0000
     18 C9         6.8144    6.3085    5.4111 C.3       1 RES1    0.0000
     19 C10        7.5544    5.2376    4.6473 C.3       1 RES1    0.0000
     20 C11        7.7923    7.3137    6.0193 C.3       1 RES1    0.0000
     21 H1         3.4454    5.9138    5.4210 H         1 RES1    0.0000
     22 H2         1.3329    5.6191    4.6484 H         1 RES1    0.0000
     23 H3         0.9543    6.3033    3.2524 H         1 RES1    0.0000
     24 H4         2.0890    6.9493    4.1783 H         1 RES1    0.0000
     25 H5         5.9997    2.2879    2.2891 H         1 RES1    0.0000
     26 H6         5.3418    2.2998    0.9139 H         1 RES1    0.0000
     27 H7         5.3833    3.9088    5.6500 H         1 RES1    0.0000
     28 H8         4.5612    3.3220    8.8191 H         1 RES1    0.0000
     29 H9         5.4683    6.4704    6.9759 H         1 RES1    0.0000
     30 H10        6.5444    5.3126    7.2060 H         1 RES1    0.0000
     31 H11        6.2178    6.7953    4.7723 H         1 RES1    0.0000
     32 H12        8.1359    5.6560    3.9778 H         1 RES1    0.0000
     33 H13        6.9097    4.6508    4.1991 H         1 RES1    0.0000
     34 H14        8.0991    4.7113    5.2687 H         1 RES1    0.0000
     35 H15        8.4342    6.8414    6.5902 H         1 RES1    0.0000
     36 H16        7.2977    7.9676    6.5562 H         1 RES1    0.0000
     37 H17        8.2737    7.7781    5.3026 H         1 RES1    0.0000
@<TRIPOS>BOND
     1    1   12 2
     2    2    8 2
     3    3   16 1
     4    4   16 2
     5    5   10 2
     6    6   10 1
     7    7   10 1
     8    8   13 1
     9    9   14 1
    10   11    7 1
    11   12    7 1
    12   13   12 1
    13   14    5 1
    14   15    6 1
    15   16   15 1
    16   17   15 1
    17   18   17 1
    18   19   18 1
    19   20   18 1
    20   21    6 1
    21   22   11 1
    22   23   11 1
    23   24   11 1
    24   25    9 1
    25   26    9 1
    26   27   15 1
    27   28    3 1
    28   29   17 1
    29   30   17 1
    30   31   18 1
    31   32   19 1
    32   33   19 1
    33   34   19 1
    34   35   20 1
    35   36   20 1
    36   37   20 1
    37   13   14 2
@<TRIPOS>SUBSTRUCTURE
     1 RES1 1

@<TRIPOS>CRYSIN
   9.4395   13.1565   10.9581  90.0000  90.0000  90.0000  19 1

