# MOL2 file generated by ConQuest
# Please check atom types

@<TRIPOS>MOLECULE
KATBEO
    28    29     1
SMALL
NO_CHARGES
****
Generated from CSD

@<TRIPOS>ATOM
      1 N1        -0.8381    6.1909    1.8004 N.ar      1 RES1    0.0000
      2 C1        -0.3538    5.3026    2.6812 C.ar      1 RES1    0.0000
      3 C2         0.9555    4.8553    2.6612 C.ar      1 RES1    0.0000
      4 C3         1.8080    5.3337    1.6758 C.ar      1 RES1    0.0000
      5 C4         1.3186    6.2319    0.7443 C.ar      1 RES1    0.0000
      6 C5        -0.0006    6.6262    0.8393 C.ar      1 RES1    0.0000
      7 C6        -1.3049    4.7740    3.7128 C.2       1 RES1    0.0000
      8 N2        -2.0019    3.6950    3.5784 N.2       1 RES1    0.0000
      9 O1        -1.8054    3.0876    2.3452 O.3       1 RES1    0.0000
     10 H1         1.2621    4.2210    3.3177 H         1 RES1    0.0000
     11 H2         2.6976    5.0557    1.6636 H         1 RES1    0.0000
     12 H3         1.8828    6.5714    0.0322 H         1 RES1    0.0000
     13 H4        -0.3501    7.2339    0.2011 H         1 RES1    0.0000
     14 H5        -2.3029    2.3925    2.3940 H         1 RES1    0.0000
     15 N1B       -1.9235    4.0641    6.9051 N.ar      1 RES1    0.0000
     16 C1B       -2.4078    4.9524    6.0243 C.ar      1 RES1    0.0000
     17 C2B       -3.7170    5.3997    6.0443 C.ar      1 RES1    0.0000
     18 C3B       -4.5696    4.9213    7.0297 C.ar      1 RES1    0.0000
     19 C4B       -4.0802    4.0231    7.9612 C.ar      1 RES1    0.0000
     20 C5B       -2.7609    3.6288    7.8662 C.ar      1 RES1    0.0000
     21 C6B       -1.4566    5.4810    4.9927 C.2       1 RES1    0.0000
     22 N2B       -0.7597    6.5600    5.1271 N.2       1 RES1    0.0000
     23 O1B       -0.9561    7.1674    6.3603 O.3       1 RES1    0.0000
     24 H1B       -4.0237    6.0340    5.3878 H         1 RES1    0.0000
     25 H2B       -5.4591    5.1993    7.0419 H         1 RES1    0.0000
     26 H3B       -4.6443    3.6836    8.6733 H         1 RES1    0.0000
     27 H4B       -2.4115    3.0211    8.5044 H         1 RES1    0.0000
     28 H5B       -0.4587    7.8625    6.3115 H         1 RES1    0.0000
@<TRIPOS>BOND
     1    1    2 ar
     2    2    3 ar
     3    3    4 ar
     4    4    5 ar
     5    5    6 ar
     6    6    1 ar
     7    7    2 1
     8    8    7 2
     9    9    8 1
    10   10    3 1
    11   11    4 1
    12   12    5 1
    13   13    6 1
    14   14    9 1
    15   15   16 ar
    16   16   17 ar
    17   17   18 ar
    18   18   19 ar
    19   19   20 ar
    20   20   15 ar
    21   21    7 1
    22   22   21 2
    23   23   22 1
    24   24   17 1
    25   25   18 1
    26   26   19 1
    27   27   20 1
    28   28   23 1
    29   16   21 1
@<TRIPOS>SUBSTRUCTURE
     1 RES1 1

@<TRIPOS>CRYSIN
   6.2640   10.2550    9.1330  90.0000 107.6000  90.0000 231 1

