# MOL2 file generated by ConQuest
# Please check atom types

@<TRIPOS>MOLECULE
KATGAO
    32    33     1
SMALL
NO_CHARGES
****
Generated from CSD

@<TRIPOS>ATOM
      1 O1         8.7831    5.4999    4.3628 O.3       1 RES1    0.0000
      2 O2        12.1349    1.5999    7.8627 O.2       1 RES1    0.0000
      3 O3        10.1553    1.0204    8.4569 O.2       1 RES1    0.0000
      4 O4         4.2465    1.5870    7.2580 O.2       1 RES1    0.0000
      5 N1        10.9199    1.7147    7.7999 N.pl3     1 RES1    0.0000
      6 N2         6.2201    3.1859    6.3724 N.2       1 RES1    0.0000
      7 N3         4.8812    3.5115    6.2738 N.am      1 RES1    0.0000
      8 C1         9.3392    4.6000    5.1831 C.ar      1 RES1    0.0000
      9 C2        10.7114    4.3979    5.2590 C.ar      1 RES1    0.0000
     10 C3        11.2343    3.4519    6.1132 C.ar      1 RES1    0.0000
     11 C4        10.3668    2.7086    6.9055 C.ar      1 RES1    0.0000
     12 C5         8.9977    2.8877    6.8549 C.ar      1 RES1    0.0000
     13 C6         8.4657    3.8327    5.9911 C.ar      1 RES1    0.0000
     14 C7         7.0180    4.0498    5.9056 C.2       1 RES1    0.0000
     15 C8         3.9533    2.6659    6.7371 C.2       1 RES1    0.0000
     16 C9         2.5297    3.0803    6.5835 C.ar      1 RES1    0.0000
     17 C10        1.5747    2.4469    7.3514 C.ar      1 RES1    0.0000
     18 C11        0.2388    2.7792    7.2354 C.ar      1 RES1    0.0000
     19 C12       -0.1481    3.7420    6.3418 C.ar      1 RES1    0.0000
     20 C13        0.7888    4.3710    5.5696 C.ar      1 RES1    0.0000
     21 C14        2.1217    4.0493    5.6752 C.ar      1 RES1    0.0000
     22 H1         9.3997    5.8725    3.9004 H         1 RES1    0.0000
     23 H2         4.6243    4.2783    6.0120 H         1 RES1    0.0000
     24 H3        11.2826    4.9049    4.7285 H         1 RES1    0.0000
     25 H4        12.1531    3.3127    6.1595 H         1 RES1    0.0000
     26 H5         8.4385    2.3788    7.3959 H         1 RES1    0.0000
     27 H6         6.6886    4.8223    5.5077 H         1 RES1    0.0000
     28 H7         1.8346    1.7882    7.9552 H         1 RES1    0.0000
     29 H8        -0.3959    2.3504    7.7633 H         1 RES1    0.0000
     30 H9        -1.0458    3.9676    6.2607 H         1 RES1    0.0000
     31 H10        0.5199    5.0245    4.9649 H         1 RES1    0.0000
     32 H11        2.7474    4.4805    5.1403 H         1 RES1    0.0000
@<TRIPOS>BOND
     1    1    8 1
     2    2    5 2
     3    3    5 2
     4    4   15 2
     5    5   11 1
     6    6    7 1
     7    7   15 1
     8    8    9 ar
     9    9   10 ar
    10   10   11 ar
    11   11   12 ar
    12   12   13 ar
    13   13    8 ar
    14   14    6 2
    15   15   16 1
    16   16   17 ar
    17   17   18 ar
    18   18   19 ar
    19   19   20 ar
    20   20   21 ar
    21   21   16 ar
    22   22    1 1
    23   23    7 1
    24   24    9 1
    25   25   10 1
    26   26   12 1
    27   27   14 1
    28   28   17 1
    29   29   18 1
    30   30   19 1
    31   31   20 1
    32   32   21 1
    33   13   14 1
@<TRIPOS>SUBSTRUCTURE
     1 RES1 1

@<TRIPOS>CRYSIN
  30.2240    4.8017    8.7257  90.0000  90.0000  90.0000  29 1

