# MOL2 file generated by ConQuest
# Please check atom types

@<TRIPOS>MOLECULE
KATGOC
   124   128     1
SMALL
NO_CHARGES
****
Generated from CSD

@<TRIPOS>ATOM
      1 C1         2.5335    2.2717   11.9892 C.3       1 RES1    0.0000
      2 H1         2.6238    3.2467   11.8471 H         1 RES1    0.0000
      3 H2         1.7410    1.9582   11.4870 H         1 RES1    0.0000
      4 C2         3.7833    1.5568   11.4797 C.ar      1 RES1    0.0000
      5 C3         4.8633    2.2575   10.9166 C.ar      1 RES1    0.0000
      6 C4         6.0513    1.6138   10.5567 C.ar      1 RES1    0.0000
      7 C5         6.1165    0.2280   10.6925 C.ar      1 RES1    0.0000
      8 H3         6.9046   -0.2399   10.4406 H         1 RES1    0.0000
      9 C6         5.0387   -0.4572   11.1902 C.ar      1 RES1    0.0000
     10 C7         3.8857    0.1829   11.6184 C.ar      1 RES1    0.0000
     11 H4         3.1746   -0.3159   12.0022 H         1 RES1    0.0000
     12 O1         4.7872    3.6278   10.7836 O.3       1 RES1    0.0000
     13 C8         4.1309    4.0708    9.5734 C.3       1 RES1    0.0000
     14 H5         3.1801    3.7941    9.5779 H         1 RES1    0.0000
     15 H6         4.5707    3.6742    8.7793 H         1 RES1    0.0000
     16 C9         4.2372    5.5777    9.5315 C.3       1 RES1    0.0000
     17 H7         5.1923    5.8378    9.5333 H         1 RES1    0.0000
     18 H8         3.8170    5.9566   10.3444 H         1 RES1    0.0000
     19 C10        3.5594    6.1572    8.2997 C.3       1 RES1    0.0000
     20 H9         3.9410    5.7238    7.4940 H         1 RES1    0.0000
     21 H10        2.5954    5.9352    8.3318 H         1 RES1    0.0000
     22 C11        3.7107    7.6606    8.1625 C.3       1 RES1    0.0000
     23 H11        3.2974    8.0988    8.9486 H         1 RES1    0.0000
     24 H12        4.6731    7.8886    8.1589 H         1 RES1    0.0000
     25 C12        3.0794    8.1962    6.9200 C.3       1 RES1    0.0000
     26 H13        3.2118    9.1664    6.8772 H         1 RES1    0.0000
     27 H14        2.1193    7.9979    6.9289 H         1 RES1    0.0000
     28 H15        3.4920    7.7758    6.1357 H         1 RES1    0.0000
     29 N1         5.1174   -1.9238   11.2827 N.pl3     1 RES1    0.0000
     30 O2         4.3161   -2.5104   11.9808 O.2       1 RES1    0.0000
     31 O3         5.9804   -2.4950   10.6431 O.2       1 RES1    0.0000
     32 C13        7.2867    2.3786   10.0927 C.3       1 RES1    0.0000
     33 H16        7.5013    2.1363    9.1572 H         1 RES1    0.0000
     34 H17        7.1122    3.3523   10.1287 H         1 RES1    0.0000
     35 C14        8.4539    2.0295   10.9975 C.ar      1 RES1    0.0000
     36 C15        8.4514    2.4712   12.3325 C.ar      1 RES1    0.0000
     37 C16        2.3497    1.9843   13.4684 C.ar      1 RES1    0.0000
     38 C17        1.3541    1.1293   13.9113 C.ar      1 RES1    0.0000
     39 H18        0.7057    0.7968   13.3017 H         1 RES1    0.0000
     40 C18        1.3067    0.7624   15.2510 C.ar      1 RES1    0.0000
     41 C19        9.4659    1.1828   10.5720 C.ar      1 RES1    0.0000
     42 H19        9.5078    0.8954    9.6670 H         1 RES1    0.0000
     43 O4         7.4388    3.3061   12.7334 O.3       1 RES1    0.0000
     44 C20        7.8035    4.6645   13.0664 C.3       1 RES1    0.0000
     45 H20        7.1039    5.0493   13.6511 H         1 RES1    0.0000
     46 H21        8.6510    4.6515   13.5798 H         1 RES1    0.0000
     47 C21        7.9680    5.5005   11.9362 C.3       1 RES1    0.0000
     48 H22        7.1246    5.5041   11.4175 H         1 RES1    0.0000
     49 H23        8.6757    5.1217   11.3587 H         1 RES1    0.0000
     50 C22        8.3394    6.9517   12.2945 C.3       1 RES1    0.0000
     51 H24        7.5085    7.3863   12.6136 H         1 RES1    0.0000
     52 H25        8.9486    6.9042   13.0735 H         1 RES1    0.0000
     53 C23        8.8708    7.7485   11.4674 C.3       1 RES1    0.0000
     54 H26        8.2407    7.8186   10.7062 H         1 RES1    0.0000
     55 H27        9.6771    7.2913   11.1198 H         1 RES1    0.0000
     56 C24        9.2952    9.1700   11.8008 C.3       1 RES1    0.0000
     57 H28        9.6510    9.6022   10.9950 H         1 RES1    0.0000
     58 H29        9.9894    9.1498   12.4924 H         1 RES1    0.0000
     59 H30        8.5216    9.6746   12.1287 H         1 RES1    0.0000
     60 N2         0.2288   -0.1235   15.7130 N.pl3     1 RES1    0.0000
     61 O5         0.1945   -0.4394   16.8945 O.2       1 RES1    0.0000
     62 O6        -0.5858   -0.5130   14.8962 O.2       1 RES1    0.0000
     63 C1B        9.1910    2.2717   14.7497 C.3       1 RES1    0.0000
     64 H1B        9.1007    3.2467   14.8918 H         1 RES1    0.0000
     65 H2B        9.9835    1.9582   15.2518 H         1 RES1    0.0000
     66 C2B        7.9412    1.5568   15.2592 C.ar      1 RES1    0.0000
     67 C3B        6.8613    2.2575   15.8223 C.ar      1 RES1    0.0000
     68 C4B        5.6732    1.6138   16.1822 C.ar      1 RES1    0.0000
     69 C5B        5.6080    0.2280   16.0463 C.ar      1 RES1    0.0000
     70 H3B        4.8199   -0.2399   16.2982 H         1 RES1    0.0000
     71 C6B        6.6859   -0.4572   15.5486 C.ar      1 RES1    0.0000
     72 C7B        7.8388    0.1829   15.1205 C.ar      1 RES1    0.0000
     73 H4B        8.5500   -0.3159   14.7367 H         1 RES1    0.0000
     74 O1B        6.9373    3.6278   15.9553 O.3       1 RES1    0.0000
     75 C8B        7.5936    4.0708   17.1655 C.3       1 RES1    0.0000
     76 H5B        8.5445    3.7941   17.1610 H         1 RES1    0.0000
     77 H6B        7.1539    3.6742   17.9596 H         1 RES1    0.0000
     78 C9B        7.4873    5.5777   17.2073 C.3       1 RES1    0.0000
     79 H7B        6.5322    5.8378   17.2056 H         1 RES1    0.0000
     80 H8B        7.9076    5.9566   16.3945 H         1 RES1    0.0000
     81 C10B       8.1651    6.1572   18.4391 C.3       1 RES1    0.0000
     82 H9B        7.7836    5.7238   19.2448 H         1 RES1    0.0000
     83 H10B       9.1292    5.9352   18.4070 H         1 RES1    0.0000
     84 C11B       8.0138    7.6606   18.5764 C.3       1 RES1    0.0000
     85 H11B       8.4271    8.0988   17.7903 H         1 RES1    0.0000
     86 H12B       7.0514    7.8886   18.5799 H         1 RES1    0.0000
     87 C12B       8.6451    8.1962   19.8188 C.3       1 RES1    0.0000
     88 H13B       8.5127    9.1664   19.8616 H         1 RES1    0.0000
     89 H14B       9.6052    7.9979   19.8099 H         1 RES1    0.0000
     90 H15B       8.2326    7.7758   20.6032 H         1 RES1    0.0000
     91 N1B        6.6072   -1.9238   15.4561 N.pl3     1 RES1    0.0000
     92 O2B        7.4084   -2.5104   14.7581 O.2       1 RES1    0.0000
     93 O3B        5.7441   -2.4950   16.0957 O.2       1 RES1    0.0000
     94 C13B       4.4378    2.3786   16.6462 C.3       1 RES1    0.0000
     95 H16B       4.2232    2.1363   17.5817 H         1 RES1    0.0000
     96 H17B       4.6123    3.3523   16.6102 H         1 RES1    0.0000
     97 C14B       3.2707    2.0295   15.7413 C.ar      1 RES1    0.0000
     98 C15B       3.2731    2.4712   14.4064 C.ar      1 RES1    0.0000
     99 C16B       9.3748    1.9843   13.2705 C.ar      1 RES1    0.0000
    100 C17B      10.3705    1.1293   12.8275 C.ar      1 RES1    0.0000
    101 H18B      11.0188    0.7968   13.4372 H         1 RES1    0.0000
    102 C18B      10.4179    0.7624   11.4879 C.ar      1 RES1    0.0000
    103 C19B       2.2586    1.1828   16.1668 C.ar      1 RES1    0.0000
    104 H19B       2.2168    0.8954   17.0719 H         1 RES1    0.0000
    105 O4B        4.2858    3.3061   14.0055 O.3       1 RES1    0.0000
    106 C20B       3.9210    4.6645   13.6725 C.3       1 RES1    0.0000
    107 H20B       4.6206    5.0493   13.0878 H         1 RES1    0.0000
    108 H21B       3.0735    4.6515   13.1591 H         1 RES1    0.0000
    109 C21B       3.7566    5.5005   14.8026 C.3       1 RES1    0.0000
    110 H22B       4.5999    5.5041   15.3214 H         1 RES1    0.0000
    111 H23B       3.0488    5.1217   15.3802 H         1 RES1    0.0000
    112 C22B       3.3852    6.9517   14.4443 C.3       1 RES1    0.0000
    113 H24B       4.2160    7.3863   14.1252 H         1 RES1    0.0000
    114 H25B       2.7759    6.9042   13.6653 H         1 RES1    0.0000
    115 C23B       2.8538    7.7485   15.2715 C.3       1 RES1    0.0000
    116 H26B       3.4838    7.8186   16.0326 H         1 RES1    0.0000
    117 H27B       2.0475    7.2913   15.6191 H         1 RES1    0.0000
    118 C24B       2.4294    9.1700   14.9381 C.3       1 RES1    0.0000
    119 H28B       2.0736    9.6022   15.7438 H         1 RES1    0.0000
    120 H29B       1.7351    9.1498   14.2465 H         1 RES1    0.0000
    121 H30B       3.2030    9.6746   14.6101 H         1 RES1    0.0000
    122 N2B       11.4957   -0.1235   11.0259 N.pl3     1 RES1    0.0000
    123 O5B       11.5300   -0.4394    9.8444 O.2       1 RES1    0.0000
    124 O6B       12.3103   -0.5130   11.8426 O.2       1 RES1    0.0000
@<TRIPOS>BOND
     1    1    2 1
     2    3    1 1
     3    4    1 1
     4    5    4 ar
     5    6    5 ar
     6    7    6 ar
     7    8    7 1
     8    9    7 ar
     9   10    4 ar
    10   11   10 1
    11   12    5 1
    12   13   12 1
    13   14   13 1
    14   15   13 1
    15   16   13 1
    16   17   16 1
    17   18   16 1
    18   19   16 1
    19   20   19 1
    20   21   19 1
    21   22   19 1
    22   23   22 1
    23   24   22 1
    24   25   22 1
    25   26   25 1
    26   27   25 1
    27   28   25 1
    28   29    9 1
    29   30   29 2
    30   31   29 2
    31   32    6 1
    32   33   32 1
    33   34   32 1
    34   35   32 1
    35   36   35 ar
    36   37    1 1
    37   38   37 ar
    38   39   38 1
    39   40   38 ar
    40   41   35 ar
    41   42   41 1
    42   43   36 1
    43   44   43 1
    44   45   44 1
    45   46   44 1
    46   47   44 1
    47   48   47 1
    48   49   47 1
    49   50   47 1
    50   51   50 1
    51   52   50 1
    52   53   50 1
    53   54   53 1
    54   55   53 1
    55   56   53 1
    56   57   56 1
    57   58   56 1
    58   59   56 1
    59   60   40 1
    60   61   60 2
    61   62   60 2
    62   63   64 1
    63   65   63 1
    64   66   63 1
    65   67   66 ar
    66   68   67 ar
    67   69   68 ar
    68   70   69 1
    69   71   69 ar
    70   72   66 ar
    71   73   72 1
    72   74   67 1
    73   75   74 1
    74   76   75 1
    75   77   75 1
    76   78   75 1
    77   79   78 1
    78   80   78 1
    79   81   78 1
    80   82   81 1
    81   83   81 1
    82   84   81 1
    83   85   84 1
    84   86   84 1
    85   87   84 1
    86   88   87 1
    87   89   87 1
    88   90   87 1
    89   91   71 1
    90   92   91 2
    91   93   91 2
    92   94   68 1
    93   95   94 1
    94   96   94 1
    95   97   94 1
    96   98   37 ar
    97   99   36 ar
    98  100   99 ar
    99  101  100 1
   100  102   41 ar
   101  103   40 ar
   102  104  103 1
   103  105   98 1
   104  106  105 1
   105  107  106 1
   106  108  106 1
   107  109  106 1
   108  110  109 1
   109  111  109 1
   110  112  109 1
   111  113  112 1
   112  114  112 1
   113  115  112 1
   114  116  115 1
   115  117  115 1
   116  118  115 1
   117  119  118 1
   118  120  118 1
   119  121  118 1
   120  122  102 1
   121  123  122 2
   122  124  122 2
   123    9   10 ar
   124   63   99 1
   125   71   72 ar
   126   97   98 ar
   127   97  103 ar
   128  100  102 ar
@<TRIPOS>SUBSTRUCTURE
     1 RES1 1

@<TRIPOS>CRYSIN
  22.5587   11.8751   19.2336  90.0000 112.0570  90.0000  15 1

