# MOL2 file generated by ConQuest
# Please check atom types

@<TRIPOS>MOLECULE
KATNUP
    96   100     2
SMALL
NO_CHARGES
****
Generated from CSD

@<TRIPOS>ATOM
      1 C1        -2.8937    5.9053   10.8153 C.3       1 RES1    0.0000
      2 C2        -2.8833    5.7805    9.2875 C.3       1 RES1    0.0000
      3 C3        -2.2908    7.0410    8.6501 C.3       1 RES1    0.0000
      4 C4        -3.0340    8.2976    9.0973 C.3       1 RES1    0.0000
      5 C5        -3.0388    8.4151   10.6131 C.3       1 RES1    0.0000
      6 C6        -3.6387    7.1669   11.2501 C.3       1 RES1    0.0000
      7 N1        -3.5388    4.7220   11.3830 N.2       1 RES1    0.0000
      8 C7        -2.8539    4.0445   12.1967 C.2       1 RES1    0.0000
      9 C8        -3.3690    2.8424   12.8806 C.ar      1 RES1    0.0000
     10 C9        -2.5301    2.1561   13.7542 C.ar      1 RES1    0.0000
     11 C10       -3.0080    1.0906   14.4982 C.ar      1 RES1    0.0000
     12 C11       -4.3241    0.7175   14.3456 C.ar      1 RES1    0.0000
     13 C12       -5.1614    1.3309   13.4326 C.ar      1 RES1    0.0000
     14 C13       -4.6778    2.4000   12.7064 C.ar      1 RES1    0.0000
     15 N2        -4.8644   -0.3398   15.2189 N.pl3     1 RES1    0.0000
     16 O1        -4.1648   -0.7373   16.1404 O.2       1 RES1    0.0000
     17 O2        -6.0020   -0.7431   15.0010 O.2       1 RES1    0.0000
     18 N3        -2.0690    4.6289    8.9077 N.2       1 RES1    0.0000
     19 C14       -2.5664    3.8140    8.0818 C.2       1 RES1    0.0000
     20 C15       -1.8099    2.6466    7.5740 C.ar      1 RES1    0.0000
     21 C16       -0.6050    2.2499    8.1567 C.ar      1 RES1    0.0000
     22 C17        0.1091    1.1762    7.6502 C.ar      1 RES1    0.0000
     23 C18       -0.4024    0.5267    6.5328 C.ar      1 RES1    0.0000
     24 C19       -1.5921    0.8854    5.9433 C.ar      1 RES1    0.0000
     25 C20       -2.3078    1.9454    6.4752 C.ar      1 RES1    0.0000
     26 N4         0.3753   -0.5692    5.9300 N.pl3     1 RES1    0.0000
     27 O3         1.4166   -0.9060    6.4840 O.2       1 RES1    0.0000
     28 O4        -0.0437   -1.0810    4.8998 O.2       1 RES1    0.0000
     29 C21        4.2926   10.2690    9.1805 C.3       2 RES2    0.0000
     30 C22        4.4749   10.4458    7.6680 C.3       2 RES2    0.0000
     31 C23        5.2505   11.7175    7.3500 C.3       2 RES2    0.0000
     32 C24        4.6045   12.9464    7.9795 C.3       2 RES2    0.0000
     33 C25        4.4505   12.7661    9.4803 C.3       2 RES2    0.0000
     34 C26        3.6397   11.5111    9.7880 C.3       2 RES2    0.0000
     35 N5         3.4393    9.1097    9.4223 N.2       2 RES2    0.0000
     36 C27        3.8170    8.2964   10.3135 C.2       2 RES2    0.0000
     37 C28        3.0188    7.1182   10.7010 C.ar      2 RES2    0.0000
     38 C29        3.3424    6.4654   11.8905 C.ar      2 RES2    0.0000
     39 C30        2.5914    5.3857   12.3281 C.ar      2 RES2    0.0000
     40 C31        1.5504    4.9521   11.5419 C.ar      2 RES2    0.0000
     41 C32        1.2141    5.5514   10.3340 C.ar      2 RES2    0.0000
     42 C33        1.9533    6.6522    9.9284 C.ar      2 RES2    0.0000
     43 N6         0.7432    3.8103   12.0191 N.pl3     2 RES2    0.0000
     44 O5         0.8382    3.4922   13.1987 O.2       2 RES2    0.0000
     45 O6        -0.0006    3.2523   11.2210 O.2       2 RES2    0.0000
     46 N7         5.1948    9.2779    7.1458 N.2       2 RES2    0.0000
     47 C34        4.5469    8.5274    6.3623 C.2       2 RES2    0.0000
     48 C35        5.1263    7.3171    5.7426 C.ar      2 RES2    0.0000
     49 C36        6.4238    6.8982    6.0206 C.ar      2 RES2    0.0000
     50 C37        6.9635    5.8088    5.3703 C.ar      2 RES2    0.0000
     51 C38        6.1959    5.1589    4.4147 C.ar      2 RES2    0.0000
     52 C39        4.8973    5.5301    4.1370 C.ar      2 RES2    0.0000
     53 C40        4.3620    6.6064    4.8227 C.ar      2 RES2    0.0000
     54 N8         6.8024    4.0739    3.6239 N.pl3     2 RES2    0.0000
     55 O7         7.8953    3.6401    3.9722 O.2       2 RES2    0.0000
     56 O8         6.2034    3.6798    2.6364 O.2       2 RES2    0.0000
     57 H1        -1.9508    5.9525   11.1461 H         1 RES1    0.0000
     58 H2        -3.8193    5.6494    8.9589 H         1 RES1    0.0000
     59 H3        -1.3370    7.1176    8.9026 H         1 RES1    0.0000
     60 H4        -2.3405    6.9642    7.6635 H         1 RES1    0.0000
     61 H5        -2.5965    9.0952    8.7055 H         1 RES1    0.0000
     62 H6        -3.9666    8.2647    8.7656 H         1 RES1    0.0000
     63 H7        -3.5672    9.2091   10.8814 H         1 RES1    0.0000
     64 H8        -2.1126    8.5382   10.9377 H         1 RES1    0.0000
     65 H9        -4.5907    7.0916   10.9903 H         1 RES1    0.0000
     66 H10       -3.5968    7.2494   12.2350 H         1 RES1    0.0000
     67 H11       -1.9634    4.3211   12.3777 H         1 RES1    0.0000
     68 H12       -1.6220    2.4207   13.8402 H         1 RES1    0.0000
     69 H13       -2.4396    0.6260   15.1018 H         1 RES1    0.0000
     70 H14       -6.0500    1.0224   13.3070 H         1 RES1    0.0000
     71 H15       -5.2422    2.8386   12.0811 H         1 RES1    0.0000
     72 H16       -3.4557    3.9543    7.7762 H         1 RES1    0.0000
     73 H17       -0.2715    2.7220    8.9101 H         1 RES1    0.0000
     74 H18        0.9204    0.8933    8.0540 H         1 RES1    0.0000
     75 H19       -1.9173    0.4144    5.1854 H         1 RES1    0.0000
     76 H20       -3.1394    2.1955    6.0903 H         1 RES1    0.0000
     77 H21        5.1849   10.1203    9.6067 H         2 RES2    0.0000
     78 H22        3.5755   10.4952    7.2336 H         2 RES2    0.0000
     79 H23        5.2924   11.8378    6.3681 H         2 RES2    0.0000
     80 H24        6.1783   11.6279    7.6861 H         2 RES2    0.0000
     81 H25        5.1641   13.7427    7.7987 H         2 RES2    0.0000
     82 H26        3.7163   13.0970    7.5716 H         2 RES2    0.0000
     83 H27        3.9938   13.5571    9.8639 H         2 RES2    0.0000
     84 H28        5.3449   12.6934    9.8995 H         2 RES2    0.0000
     85 H29        2.7248   11.6136    9.4245 H         2 RES2    0.0000
     86 H30        3.5677   11.3983   10.7688 H         2 RES2    0.0000
     87 H31        4.6470    8.4503   10.7500 H         2 RES2    0.0000
     88 H32        4.0819    6.7633   12.4059 H         2 RES2    0.0000
     89 H33        2.7912    4.9561   13.1512 H         2 RES2    0.0000
     90 H34        0.5010    5.2180    9.8038 H         2 RES2    0.0000
     91 H35        1.7319    7.0933    9.1167 H         2 RES2    0.0000
     92 H36        3.6445    8.7517    6.1635 H         2 RES2    0.0000
     93 H37        6.9414    7.3669    6.6648 H         2 RES2    0.0000
     94 H38        7.8428    5.5095    5.5721 H         2 RES2    0.0000
     95 H39        4.3823    5.0592    3.4920 H         2 RES2    0.0000
     96 H40        3.4618    6.8628    4.6635 H         2 RES2    0.0000
@<TRIPOS>BOND
     1    1    2 1
     2    2    3 1
     3    3    4 1
     4    4    5 1
     5    5    6 1
     6    6    1 1
     7    7    1 1
     8    8    7 2
     9    9    8 1
    10   10    9 ar
    11   11   10 ar
    12   12   11 ar
    13   13   12 ar
    14   14    9 ar
    15   15   12 1
    16   16   15 2
    17   17   15 2
    18   18    2 1
    19   19   18 2
    20   20   19 1
    21   21   20 ar
    22   22   21 ar
    23   23   22 ar
    24   24   23 ar
    25   25   20 ar
    26   26   23 1
    27   27   26 2
    28   28   26 2
    29   29   30 1
    30   30   31 1
    31   31   32 1
    32   32   33 1
    33   33   34 1
    34   34   29 1
    35   35   29 1
    36   36   35 2
    37   37   36 1
    38   38   37 ar
    39   39   38 ar
    40   40   39 ar
    41   41   40 ar
    42   42   37 ar
    43   43   40 1
    44   44   43 2
    45   45   43 2
    46   46   30 1
    47   47   46 2
    48   48   47 1
    49   49   48 ar
    50   50   49 ar
    51   51   50 ar
    52   52   51 ar
    53   53   48 ar
    54   54   51 1
    55   55   54 2
    56   56   54 2
    57   57    1 1
    58   58    2 1
    59   59    3 1
    60   60    3 1
    61   61    4 1
    62   62    4 1
    63   63    5 1
    64   64    5 1
    65   65    6 1
    66   66    6 1
    67   67    8 1
    68   68   10 1
    69   69   11 1
    70   70   13 1
    71   71   14 1
    72   72   19 1
    73   73   21 1
    74   74   22 1
    75   75   24 1
    76   76   25 1
    77   77   29 1
    78   78   30 1
    79   79   31 1
    80   80   31 1
    81   81   32 1
    82   82   32 1
    83   83   33 1
    84   84   33 1
    85   85   34 1
    86   86   34 1
    87   87   36 1
    88   88   38 1
    89   89   39 1
    90   90   41 1
    91   91   42 1
    92   92   47 1
    93   93   49 1
    94   94   50 1
    95   95   52 1
    96   96   53 1
    97   13   14 ar
    98   24   25 ar
    99   41   42 ar
   100   52   53 ar
@<TRIPOS>SUBSTRUCTURE
     1 RES1 1
     2 RES2 29

@<TRIPOS>CRYSIN
  22.4197    8.9687   21.2076  90.0000 117.7179  90.0000  14 1

