# MOL2 file generated by ConQuest
# Please check atom types

@<TRIPOS>MOLECULE
KATXAG
   126   132     2
SMALL
NO_CHARGES
****
Generated from CSD

@<TRIPOS>ATOM
      1 O1         4.9123    0.0410   -6.2534 O.3       1 RES1    0.0000
      2 H1         4.2333    0.0922   -6.7100 H         1 RES1    0.0000
      3 O2         0.7417   -1.5773    6.2281 O.3       1 RES1    0.0000
      4 O3        -0.4358   -4.0092    6.6187 O.2       1 RES1    0.0000
      5 O4        -1.9971   -3.1011    7.8816 O.3       1 RES1    0.0000
      6 H2        -2.3472   -3.9944    8.0566 H         1 RES1    0.0000
      7 N1         0.5270   -0.7943    5.0609 N.2       1 RES1    0.0000
      8 C1         4.7734   -0.7591   -2.5877 C.3       1 RES1    0.0000
      9 H3         5.1991    0.0398   -2.2396 H         1 RES1    0.0000
     10 H4         5.1312   -1.5181   -2.1000 H         1 RES1    0.0000
     11 C2         5.1464   -0.9047   -4.0525 C.3       1 RES1    0.0000
     12 H5         6.1121   -0.9047   -4.1388 H         1 RES1    0.0000
     13 H6         4.8147   -1.7525   -4.3861 H         1 RES1    0.0000
     14 C3         4.5729    0.2105   -4.8733 C.3       1 RES1    0.0000
     15 H7         4.9455    1.0606   -4.5577 H         1 RES1    0.0000
     16 C4         3.0654    0.2458   -4.7162 C.3       1 RES1    0.0000
     17 H8         2.7128    1.0106   -5.1976 H         1 RES1    0.0000
     18 H9         2.6848   -0.5553   -5.1103 H         1 RES1    0.0000
     19 C5         2.6449    0.3369   -3.2701 C.2       1 RES1    0.0000
     20 C6         1.7573    1.2313   -2.8771 C.2       1 RES1    0.0000
     21 H10        1.4272    1.8151   -3.5222 H         1 RES1    0.0000
     22 C7         1.2373    1.3872   -1.4802 C.3       1 RES1    0.0000
     23 H11        0.2707    1.4578   -1.5124 H         1 RES1    0.0000
     24 H12        1.5824    2.2123   -1.1052 H         1 RES1    0.0000
     25 C8         1.6188    0.2299   -0.5613 C.3       1 RES1    0.0000
     26 H13        1.0179   -0.5246   -0.7359 H         1 RES1    0.0000
     27 C9         3.0552   -0.2083   -0.8467 C.3       1 RES1    0.0000
     28 H14        3.6047    0.5952   -0.7388 H         1 RES1    0.0000
     29 C10        3.2621   -0.6691   -2.3117 C.3       1 RES1    0.0000
     30 C11        3.5720   -1.2086    0.1928 C.3       1 RES1    0.0000
     31 H15        4.5217   -1.3440    0.0465 H         1 RES1    0.0000
     32 H16        3.1299   -2.0609    0.0494 H         1 RES1    0.0000
     33 C12        3.3522   -0.7761    1.6675 C.3       1 RES1    0.0000
     34 H17        3.6294   -1.4931    2.2599 H         1 RES1    0.0000
     35 H18        3.8989    0.0011    1.8615 H         1 RES1    0.0000
     36 C13        1.8887   -0.4450    1.9223 C.3       1 RES1    0.0000
     37 C14        1.4846    0.6361    0.8970 C.3       1 RES1    0.0000
     38 H19        2.1181    1.3724    1.0267 H         1 RES1    0.0000
     39 C15        0.1373    1.1539    1.4176 C.3       1 RES1    0.0000
     40 H20       -0.5946    0.6293    1.0587 H         1 RES1    0.0000
     41 H21        0.0077    2.0837    1.1721 H         1 RES1    0.0000
     42 C16        0.2185    1.0003    2.9501 C.3       1 RES1    0.0000
     43 H22       -0.5228    0.4677    3.2779 H         1 RES1    0.0000
     44 H23        0.1896    1.8698    3.3797 H         1 RES1    0.0000
     45 C17        1.5661    0.2947    3.2448 C.3       1 RES1    0.0000
     46 H24        2.2355    1.0049    3.3361 H         1 RES1    0.0000
     47 C18        1.0153   -1.6956    1.8280 C.3       1 RES1    0.0000
     48 H25        1.2977   -2.3341    2.4868 H         1 RES1    0.0000
     49 H26        1.1011   -2.0814    0.9540 H         1 RES1    0.0000
     50 H27        0.0988   -1.4589    1.9836 H         1 RES1    0.0000
     51 C19        2.5864   -2.0370   -2.5813 C.3       1 RES1    0.0000
     52 H28        1.6460   -1.9722   -2.3995 H         1 RES1    0.0000
     53 H29        2.9770   -2.7050   -2.0127 H         1 RES1    0.0000
     54 H30        2.7186   -2.2840   -3.4990 H         1 RES1    0.0000
     55 C20        1.6269   -0.5076    4.5111 C.2       1 RES1    0.0000
     56 C21        2.9471   -0.9332    5.0579 C.3       1 RES1    0.0000
     57 H31        2.8116   -1.4328    5.8665 H         1 RES1    0.0000
     58 H32        3.4805   -0.1582    5.2470 H         1 RES1    0.0000
     59 H33        3.3975   -1.4840    4.4152 H         1 RES1    0.0000
     60 C22       -0.4589   -1.6342    6.9645 C.3       1 RES1    0.0000
     61 H34       -1.1445   -1.1278    6.5006 H         1 RES1    0.0000
     62 H35       -0.3222   -1.2279    7.8356 H         1 RES1    0.0000
     63 C23       -0.9202   -3.0442    7.1425 C.2       1 RES1    0.0000
     64 O5         3.6121    5.8039    8.1532 O.3       2 RES2    0.0000
     65 H36        2.9901    5.7674    7.6204 H         2 RES2    0.0000
     66 O6         1.6943    7.5985   21.1253 O.3       2 RES2    0.0000
     67 O7         3.2742    9.6116   20.1885 O.2       2 RES2    0.0000
     68 O8         4.6084    9.4865   21.9644 O.3       2 RES2    0.0000
     69 H37        5.1495   10.0600   21.3487 H         2 RES2    0.0000
     70 N2         2.2371    6.7393   20.1309 N.2       2 RES2    0.0000
     71 C24        1.6317    6.2898   11.3410 C.3       2 RES2    0.0000
     72 H38        1.2208    5.4135   11.3957 H         2 RES2    0.0000
     73 H39        0.9589    6.9453   11.5847 H         2 RES2    0.0000
     74 C25        2.0568    6.5401    9.9010 C.3       2 RES2    0.0000
     75 H40        1.2888    6.4525    9.3160 H         2 RES2    0.0000
     76 H41        2.3997    7.4437    9.8163 H         2 RES2    0.0000
     77 C26        3.1148    5.5603    9.4929 C.3       2 RES2    0.0000
     78 H42        2.7447    4.6533    9.5371 H         2 RES2    0.0000
     79 C27        4.2922    5.6514   10.4129 C.3       2 RES2    0.0000
     80 H43        4.7128    6.5185   10.3049 H         2 RES2    0.0000
     81 H44        4.9417    4.9742   10.1653 H         2 RES2    0.0000
     82 C28        3.9074    5.4636   11.8645 C.2       2 RES2    0.0000
     83 C29        4.5419    4.5850   12.6216 C.2       2 RES2    0.0000
     84 H45        5.1955    4.0581   12.2217 H         2 RES2    0.0000
     85 C30        4.2804    4.3848   14.0738 C.3       2 RES2    0.0000
     86 H46        5.1276    4.3187   14.5427 H         2 RES2    0.0000
     87 H47        3.8073    3.5472   14.1966 H         2 RES2    0.0000
     88 C31        3.4625    5.5102   14.6872 C.3       2 RES2    0.0000
     89 H48        4.0392    6.2966   14.7812 H         2 RES2    0.0000
     90 C32        2.3088    5.8676   13.7617 C.3       2 RES2    0.0000
     91 H49        1.8202    5.0334   13.6032 H         2 RES2    0.0000
     92 C33        2.7794    6.3615   12.3581 C.3       2 RES2    0.0000
     93 C34        1.3052    6.8281   14.4272 C.3       2 RES2    0.0000
     94 H50        0.5061    6.8668   13.8795 H         2 RES2    0.0000
     95 H51        1.6928    7.7168   14.4409 H         2 RES2    0.0000
     96 C35        0.8922    6.4537   15.8646 C.3       2 RES2    0.0000
     97 H52        0.3590    7.1695   16.2442 H         2 RES2    0.0000
     98 H53        0.3466    5.6525   15.8428 H         2 RES2    0.0000
     99 C36        2.1105    6.2113   16.7479 C.3       2 RES2    0.0000
    100 C37        2.9364    5.1347   16.0548 C.3       2 RES2    0.0000
    101 H54        2.3204    4.3882   15.9039 H         2 RES2    0.0000
    102 C38        3.9141    4.6476   17.1074 C.3       2 RES2    0.0000
    103 H55        4.7143    5.1962   17.1167 H         2 RES2    0.0000
    104 H56        4.1665    3.7258   16.9451 H         2 RES2    0.0000
    105 C39        3.1442    4.7808   18.4247 C.3       2 RES2    0.0000
    106 H57        3.6750    5.2667   19.0742 H         2 RES2    0.0000
    107 H58        2.9427    3.9034   18.7862 H         2 RES2    0.0000
    108 C40        1.8474    5.5410   18.1237 C.3       2 RES2    0.0000
    109 H59        1.1452    4.8707   17.9893 H         2 RES2    0.0000
    110 C41        2.8900    7.5211   16.9667 C.3       2 RES2    0.0000
    111 H60        3.0627    7.9365   16.1191 H         2 RES2    0.0000
    112 H61        3.7221    7.3288   17.4047 H         2 RES2    0.0000
    113 H62        2.3710    8.1151   17.5123 H         2 RES2    0.0000
    114 C42        3.3293    7.7999   12.4436 C.3       2 RES2    0.0000
    115 H63        3.6133    8.0867   11.5731 H         2 RES2    0.0000
    116 H64        4.0754    7.8227   13.0477 H         2 RES2    0.0000
    117 H65        2.6407    8.3871   12.7656 H         2 RES2    0.0000
    118 C43        1.3837    6.4502   19.2403 C.2       2 RES2    0.0000
    119 C44       -0.0247    6.9749   19.2371 C.3       2 RES2    0.0000
    120 H66       -0.1639    7.5222   20.0136 H         2 RES2    0.0000
    121 H67       -0.6409    6.2386   19.2516 H         2 RES2    0.0000
    122 H68       -0.1694    7.4995   18.4459 H         2 RES2    0.0000
    123 C45        2.7611    8.0605   21.9158 C.3       2 RES2    0.0000
    124 H69        3.3470    7.3163   22.1252 H         2 RES2    0.0000
    125 H70        2.4111    8.4076   22.7506 H         2 RES2    0.0000
    126 C46        3.5541    9.1303   21.2341 C.2       2 RES2    0.0000
@<TRIPOS>BOND
     1    1    2 1
     2    3    7 1
     3    4   63 2
     4    5    6 1
     5    7   55 2
     6    8    9 1
     7   10    8 1
     8   11    8 1
     9   12   11 1
    10   13   11 1
    11   14    1 1
    12   15   14 1
    13   16   14 1
    14   17   16 1
    15   18   16 1
    16   19   16 1
    17   20   19 2
    18   21   20 1
    19   22   20 1
    20   23   22 1
    21   24   22 1
    22   25   22 1
    23   26   25 1
    24   27   25 1
    25   28   27 1
    26   29    8 1
    27   30   27 1
    28   31   30 1
    29   32   30 1
    30   33   30 1
    31   34   33 1
    32   35   33 1
    33   36   33 1
    34   37   25 1
    35   38   37 1
    36   39   37 1
    37   40   39 1
    38   41   39 1
    39   42   39 1
    40   43   42 1
    41   44   42 1
    42   45   36 1
    43   46   45 1
    44   47   36 1
    45   48   47 1
    46   49   47 1
    47   50   47 1
    48   51   29 1
    49   52   51 1
    50   53   51 1
    51   54   51 1
    52   55   45 1
    53   56   55 1
    54   57   56 1
    55   58   56 1
    56   59   56 1
    57   60    3 1
    58   61   60 1
    59   62   60 1
    60   63    5 1
    61   64   65 1
    62   66   70 1
    63   67  126 2
    64   68   69 1
    65   70  118 2
    66   71   72 1
    67   73   71 1
    68   74   71 1
    69   75   74 1
    70   76   74 1
    71   77   64 1
    72   78   77 1
    73   79   77 1
    74   80   79 1
    75   81   79 1
    76   82   79 1
    77   83   82 2
    78   84   83 1
    79   85   83 1
    80   86   85 1
    81   87   85 1
    82   88   85 1
    83   89   88 1
    84   90   88 1
    85   91   90 1
    86   92   71 1
    87   93   90 1
    88   94   93 1
    89   95   93 1
    90   96   93 1
    91   97   96 1
    92   98   96 1
    93   99   96 1
    94  100   88 1
    95  101  100 1
    96  102  100 1
    97  103  102 1
    98  104  102 1
    99  105  102 1
   100  106  105 1
   101  107  105 1
   102  108   99 1
   103  109  108 1
   104  110   99 1
   105  111  110 1
   106  112  110 1
   107  113  110 1
   108  114   92 1
   109  115  114 1
   110  116  114 1
   111  117  114 1
   112  118  108 1
   113  119  118 1
   114  120  119 1
   115  121  119 1
   116  122  119 1
   117  123   66 1
   118  124  123 1
   119  125  123 1
   120  126   68 1
   121   11   14 1
   122   19   29 1
   123   27   29 1
   124   36   37 1
   125   42   45 1
   126   60   63 1
   127   74   77 1
   128   82   92 1
   129   90   92 1
   130   99  100 1
   131  105  108 1
   132  123  126 1
@<TRIPOS>SUBSTRUCTURE
     1 RES1 1
     2 RES2 64

@<TRIPOS>CRYSIN
   6.5950   11.3801   29.2570  90.0000  96.2090  90.0000   4 1

