# MOL2 file generated by ConQuest
# Please check atom types

@<TRIPOS>MOLECULE
KATZEN
    27    29     1
SMALL
NO_CHARGES
****
Generated from CSD

@<TRIPOS>ATOM
      1 C1         3.2741    1.0410   11.3648 C.2       1 RES1    0.0000
      2 C2         3.2807    0.8175    9.8821 C.3       1 RES1    0.0000
      3 H1         2.3706    0.5968    9.5610 H         1 RES1    0.0000
      4 H2         3.8896    0.0736    9.6465 H         1 RES1    0.0000
      5 C3         3.7773    2.1565    9.2473 C.3       1 RES1    0.0000
      6 H3         4.6217    2.0209    8.7476 H         1 RES1    0.0000
      7 H4         3.0969    2.5325    8.6335 H         1 RES1    0.0000
      8 C4         3.9916    3.0619   10.4359 C.ar      1 RES1    0.0000
      9 C5         4.3963    4.4125   10.4914 C.ar      1 RES1    0.0000
     10 C6         4.5451    5.0604   11.7280 C.ar      1 RES1    0.0000
     11 C7         4.9352    6.4792   12.0536 C.3       1 RES1    0.0000
     12 H5         4.3489    7.1236   11.5839 H         1 RES1    0.0000
     13 H6         5.8759    6.6551   11.8000 H         1 RES1    0.0000
     14 C8         4.7522    6.5761   13.5603 C.3       1 RES1    0.0000
     15 H7         5.5368    7.0204   13.9685 H         1 RES1    0.0000
     16 H8         3.9464    7.1128   13.7689 H         1 RES1    0.0000
     17 C9         4.6013    5.1906   14.1141 C.3       1 RES1    0.0000
     18 H9         3.8494    5.1457   14.7564 H         1 RES1    0.0000
     19 H10        5.4311    4.8989   14.5688 H         1 RES1    0.0000
     20 C10        4.3249    4.3425   12.9015 C.ar      1 RES1    0.0000
     21 C11        3.9143    3.0296   12.8670 C.ar      1 RES1    0.0000
     22 H11        3.7590    2.5468   13.6699 H         1 RES1    0.0000
     23 C12        3.7320    2.4221   11.6244 C.ar      1 RES1    0.0000
     24 N1         4.6698    5.1376    9.2563 N.pl3     1 RES1    0.0000
     25 O1         2.9226    0.2369   12.2097 O.2       1 RES1    0.0000
     26 O2         4.7318    4.5175    8.2118 O.2       1 RES1    0.0000
     27 O3         4.8266    6.3410    9.2848 O.2       1 RES1    0.0000
@<TRIPOS>BOND
     1    1    2 1
     2    2    3 1
     3    4    2 1
     4    5    2 1
     5    6    5 1
     6    7    5 1
     7    8    5 1
     8    9    8 ar
     9   10    9 ar
    10   11   10 1
    11   12   11 1
    12   13   11 1
    13   14   11 1
    14   15   14 1
    15   16   14 1
    16   17   14 1
    17   18   17 1
    18   19   17 1
    19   20   10 ar
    20   21   20 ar
    21   22   21 1
    22   23    1 1
    23   24    9 1
    24   25    1 2
    25   26   24 2
    26   27   24 2
    27    8   23 ar
    28   17   20 1
    29   21   23 ar
@<TRIPOS>SUBSTRUCTURE
     1 RES1 1

@<TRIPOS>CRYSIN
   7.2920    8.9740   15.0070  90.0000  90.0000  90.0000  33 4

