# MOL2 file generated by ConQuest
# Please check atom types

@<TRIPOS>MOLECULE
KATZAJ
    54    58     2
SMALL
NO_CHARGES
****
Generated from CSD

@<TRIPOS>ATOM
      1 C1         8.5383    3.5727   15.5479 C.2       1 RES1    0.0000
      2 C2        10.0156    3.5256   15.2034 C.3       1 RES1    0.0000
      3 H1        10.5261    3.0934   15.9333 H         1 RES1    0.0000
      4 H2        10.3685    4.4403   15.0698 H         1 RES1    0.0000
      5 C3        10.1397    2.7177   13.9222 C.3       1 RES1    0.0000
      6 H3        10.4765    3.2837   13.1829 H         1 RES1    0.0000
      7 H4        10.7571    1.9546   14.0476 H         1 RES1    0.0000
      8 C4         8.7467    2.2340   13.6310 C.ar      1 RES1    0.0000
      9 C5         8.3154    1.4338   12.5742 C.ar      1 RES1    0.0000
     10 H5         8.9266    1.1460   11.9064 H         1 RES1    0.0000
     11 C6         6.9870    1.0663   12.5149 C.ar      1 RES1    0.0000
     12 C7         6.2820    0.1878   11.5156 C.3       1 RES1    0.0000
     13 H6         6.8262   -0.6100   11.2972 H         1 RES1    0.0000
     14 H7         6.0872    0.6835   10.6816 H         1 RES1    0.0000
     15 C8         4.9891   -0.2087   12.2324 C.3       1 RES1    0.0000
     16 H8         5.1119   -1.0543   12.7324 H         1 RES1    0.0000
     17 H9         4.2509   -0.3260   11.5837 H         1 RES1    0.0000
     18 C9         4.6900    0.9487   13.1897 C.3       1 RES1    0.0000
     19 H10        4.1087    1.6263   12.7621 H         1 RES1    0.0000
     20 H11        4.2553    0.6250   14.0179 H         1 RES1    0.0000
     21 C10        6.0581    1.5061   13.4753 C.ar      1 RES1    0.0000
     22 C11        6.5017    2.3051   14.4995 C.ar      1 RES1    0.0000
     23 C12        7.8457    2.6760   14.5942 C.ar      1 RES1    0.0000
     24 N1         5.5528    2.7036   15.5515 N.pl3     1 RES1    0.0000
     25 O1         8.0318    4.2497   16.4124 O.2       1 RES1    0.0000
     26 O2         5.7720    2.3347   16.6900 O.2       1 RES1    0.0000
     27 O3         4.5741    3.3490   15.2222 O.2       1 RES1    0.0000
     28 C13        3.3003    0.7010   17.4538 C.2       2 RES2    0.0000
     29 C14        3.0145    1.8540   18.3919 C.3       2 RES2    0.0000
     30 H12        2.0382    1.9666   18.5120 H         2 RES2    0.0000
     31 H13        3.3872    2.6951   18.0267 H         2 RES2    0.0000
     32 C15        3.6812    1.5104   19.7286 C.3       2 RES2    0.0000
     33 H14        4.3556    2.1941   19.9705 H         2 RES2    0.0000
     34 H15        3.0085    1.4541   20.4532 H         2 RES2    0.0000
     35 C16        4.3337    0.1724   19.4980 C.ar      2 RES2    0.0000
     36 C17        5.0516   -0.6028   20.4007 C.ar      2 RES2    0.0000
     37 H16        5.1754   -0.3109   21.2960 H         2 RES2    0.0000
     38 C18        5.5811   -1.8031   19.9763 C.ar      2 RES2    0.0000
     39 C19        6.3777   -2.8144   20.7623 C.3       2 RES2    0.0000
     40 H17        5.8280   -3.2034   21.4883 H         2 RES2    0.0000
     41 H18        7.1805   -2.3950   21.1605 H         2 RES2    0.0000
     42 C20        6.7709   -3.8789   19.7638 C.3       2 RES2    0.0000
     43 H19        6.4801   -4.7684   20.0866 H         2 RES2    0.0000
     44 H20        7.7553   -3.8930   19.6568 H         2 RES2    0.0000
     45 C21        6.1056   -3.5665   18.4252 C.3       2 RES2    0.0000
     46 H21        6.7791   -3.4978   17.7028 H         2 RES2    0.0000
     47 H22        5.4481   -4.2664   18.1855 H         2 RES2    0.0000
     48 C22        5.4265   -2.2482   18.6528 C.ar      2 RES2    0.0000
     49 C23        4.7187   -1.4516   17.7754 C.ar      2 RES2    0.0000
     50 C24        4.1553   -0.2512   18.1873 C.ar      2 RES2    0.0000
     51 N2         4.5992   -1.8645   16.3685 N.pl3     2 RES2    0.0000
     52 O4         2.8789    0.5791   16.3241 O.2       2 RES2    0.0000
     53 O5         3.8164   -2.7360   16.0891 O.2       2 RES2    0.0000
     54 O6         5.3142   -1.3020   15.5603 O.2       2 RES2    0.0000
@<TRIPOS>BOND
     1    1    2 1
     2    2    3 1
     3    4    2 1
     4    5    2 1
     5    6    5 1
     6    7    5 1
     7    8    5 1
     8    9    8 ar
     9   10    9 1
    10   11    9 ar
    11   12   11 1
    12   13   12 1
    13   14   12 1
    14   15   12 1
    15   16   15 1
    16   17   15 1
    17   18   15 1
    18   19   18 1
    19   20   18 1
    20   21   11 ar
    21   22   21 ar
    22   23    1 1
    23   24   22 1
    24   25    1 2
    25   26   24 2
    26   27   24 2
    27   28   29 1
    28   29   30 1
    29   31   29 1
    30   32   29 1
    31   33   32 1
    32   34   32 1
    33   35   32 1
    34   36   35 ar
    35   37   36 1
    36   38   36 ar
    37   39   38 1
    38   40   39 1
    39   41   39 1
    40   42   39 1
    41   43   42 1
    42   44   42 1
    43   45   42 1
    44   46   45 1
    45   47   45 1
    46   48   38 ar
    47   49   48 ar
    48   50   28 1
    49   51   49 1
    50   52   28 2
    51   53   51 2
    52   54   51 2
    53    8   23 ar
    54   18   21 1
    55   22   23 ar
    56   35   50 ar
    57   45   48 1
    58   49   50 ar
@<TRIPOS>SUBSTRUCTURE
     1 RES1 1
     2 RES2 28

@<TRIPOS>CRYSIN
   8.8200    8.9621   12.9701  93.1330  94.4960  93.8890   2 1

