# MOL2 file generated by ConQuest
# Please check atom types

@<TRIPOS>MOLECULE
KATZIR
    41    36     2
SMALL
NO_CHARGES
****
Generated from CSD

@<TRIPOS>ATOM
      1 C1        11.7448    1.6656   -2.4572 C.2       1 RES1    0.0000
      2 C2        13.1676    1.6656   -1.9407 C.3       1 RES1    0.0000
      3 H1        13.6393    2.4532   -2.2545 H         1 RES1    0.0000
      4 C3        13.0964    1.6657   -0.4257 C.3       1 RES1    0.0000
      5 H2        13.5339    0.8601   -0.0536 H         1 RES1    0.0000
      6 C4        11.6242    1.6657   -0.1171 C.2       1 RES1    0.0000
      7 C5        11.0092    1.6657    1.1261 C.2       1 RES1    0.0000
      8 C6        11.7258    1.6657    2.4011 C.3       1 RES1    0.0000
      9 H3        12.1596    2.5171    2.5698 H         1 RES1    0.0000
     10 C7        10.6181    1.3505    3.3833 C.3       1 RES1    0.0000
     11 H4        10.6457    0.4391    3.7144 H         1 RES1    0.0000
     12 H5        10.6798    1.9555    4.1385 H         1 RES1    0.0000
     13 C8         9.2846    1.6657    2.6723 C.3       1 RES1    0.0000
     14 H6         8.6411    0.9634    2.8552 H         1 RES1    0.0000
     15 C9         9.6158    1.6657    1.2146 C.2       1 RES1    0.0000
     16 C10        8.8736    1.6657    0.0188 C.2       1 RES1    0.0000
     17 C11        9.4668    1.6657   -1.2217 C.2       1 RES1    0.0000
     18 H7         8.9438    1.6656   -2.0148 H         1 RES1    0.0000
     19 C12       10.8564    1.6657   -1.2787 C.2       1 RES1    0.0000
     20 N1         7.4062    1.6657    0.0615 N.2       1 RES1    0.0000
     21 O1        11.4002    1.6656   -3.6165 O.2       1 RES1    0.0000
     22 O2         6.8481    1.6657    1.1477 O.2       1 RES1    0.0000
     23 O3         6.8016    1.6657   -0.9865 O.2       1 RES1    0.0000
     24 C13       11.5502    1.6657    2.5745 Du        2 SUP2    0.0000
     25 H8        12.2905    2.2886    2.6423 Du        2 SUP2    0.0000
     26 H9        11.8568    0.7802    2.8236 Du        2 SUP2    0.0000
     27 C14       10.3628    2.0288    3.4464 Du        2 SUP2    0.0000
     28 H10       10.4188    1.6657    4.3229 Du        2 SUP2    0.0000
     29 H11       10.3695    2.9922    3.5583 Du        2 SUP2    0.0000
     30 C15        9.0995    1.6657    2.6392 Du        2 SUP2    0.0000
     31 H12        8.3744    2.2973    2.7669 Du        2 SUP2    0.0000
     32 H13        8.8148    0.7829    2.9214 Du        2 SUP2    0.0000
     33 H14       12.3855    0.9554    2.4437 Du        2 SUP2    0.0000
     34 H15        8.8954    2.5185    2.9229 Du        2 SUP2    0.0000
     35 H1E       13.6393    0.8781   -2.2545 H         1 RES1    0.0000
     36 H2E       13.5339    2.4712   -0.0536 H         1 RES1    0.0000
     37 H3E       12.1596    0.8142    2.5698 H         1 RES1    0.0000
     38 C7E       10.6181    1.9808    3.3833 C.3       1 RES1    0.0000
     39 H4E       10.6457    2.8922    3.7144 H         1 RES1    0.0000
     40 H5E       10.6798    1.3758    4.1385 H         1 RES1    0.0000
     41 H6E        8.6411    2.3679    2.8552 H         1 RES1    0.0000
@<TRIPOS>BOND
     1    1    2 1
     2    2    3 1
     3    4    2 1
     4    5    4 1
     5    6    4 1
     6    7    6 1
     7    8    7 1
     8    9    8 1
     9   10    8 1
    10   11   10 1
    11   12   10 1
    12   13   10 1
    13   14   13 1
    14   15    7 1
    15   16   15 1
    16   17   16 1
    17   18   17 1
    18   19    1 1
    19   20   16 1
    20   21    1 1
    21   22   20 1
    22   23   20 1
    23   35    2 1
    24   36    4 1
    25   37    8 1
    26   38    8 1
    27   39   38 1
    28   40   10 1
    29   41   13 1
    30    6   19 1
    31   10   38 1
    32   12   38 1
    33   13   15 1
    34   13   38 1
    35   17   19 1
    36   38   40 1
@<TRIPOS>SUBSTRUCTURE
     1 RES1 1
     2 SUP2 24

@<TRIPOS>CRYSIN
   9.4915    6.6626   15.7656  90.0000  90.0000  90.0000  62 1

