# MOL2 file generated by ConQuest
# Please check atom types

@<TRIPOS>MOLECULE
KAVTAC
    30    32     1
SMALL
NO_CHARGES
****
Generated from CSD

@<TRIPOS>ATOM
      1 C1         3.2309    7.4597    3.5913 C.3       1 RES1    0.0000
      2 O1         4.0733    6.2841    3.4612 O.3       1 RES1    0.0000
      3 C2         4.3424    6.0389    2.1628 C.2       1 RES1    0.0000
      4 O2         5.1483    5.2221    1.8388 O.2       1 RES1    0.0000
      5 C3         3.4419    6.8549    1.2677 C.3       1 RES1    0.0000
      6 C4         4.1519    7.9144    0.4281 C.3       1 RES1    0.0000
      7 N1         3.8585    9.2159    1.0418 N.3       1 RES1    0.0000
      8 C5         4.8175    9.6917    2.0055 C.3       1 RES1    0.0000
      9 O3         5.1491    8.7904    3.0533 O.3       1 RES1    0.0000
     10 C6         4.0913    8.6183    4.0194 C.3       1 RES1    0.0000
     11 C7         2.5750    7.6603    2.2089 C.3       1 RES1    0.0000
     12 O4         2.5949    9.0072    1.7229 O.3       1 RES1    0.0000
     13 C8         4.8233    8.3975    5.3402 C.3       1 RES1    0.0000
     14 O5         3.9842    7.7780    6.3513 O.3       1 RES1    0.0000
     15 C9         2.9480    8.5176    6.8160 C.2       1 RES1    0.0000
     16 O6         2.6981    9.6121    6.4128 O.2       1 RES1    0.0000
     17 C10        2.1895    7.7723    7.8614 C.3       1 RES1    0.0000
     18 H1         2.5609    7.3639    4.2571 H         1 RES1    0.0000
     19 H2         3.0044    6.2516    0.6740 H         1 RES1    0.0000
     20 H3         3.8364    7.8917   -0.4730 H         1 RES1    0.0000
     21 H4         5.0893    7.7536    0.4375 H         1 RES1    0.0000
     22 H5         4.4733   10.4897    2.4005 H         1 RES1    0.0000
     23 H6         5.6202    9.8889    1.5373 H         1 RES1    0.0000
     24 H7         3.4834    9.3450    4.1033 H         1 RES1    0.0000
     25 H8         1.6574    7.4208    2.2704 H         1 RES1    0.0000
     26 H9         5.1263    9.2394    5.6642 H         1 RES1    0.0000
     27 H10        5.5684    7.8348    5.1794 H         1 RES1    0.0000
     28 H11        2.6067    6.9255    7.9938 H         1 RES1    0.0000
     29 H12        1.2934    7.6400    7.5799 H         1 RES1    0.0000
     30 H13        2.1967    8.2651    8.6797 H         1 RES1    0.0000
@<TRIPOS>BOND
     1    1    2 1
     2    2    3 1
     3    3    4 2
     4    5    3 1
     5    6    5 1
     6    7    6 1
     7    8    7 1
     8    9    8 1
     9   10    1 1
    10   11    1 1
    11   12    7 1
    12   13   10 1
    13   14   13 1
    14   15   14 1
    15   16   15 2
    16   17   15 1
    17   18    1 1
    18   19    5 1
    19   20    6 1
    20   21    6 1
    21   22    8 1
    22   23    8 1
    23   24   10 1
    24   25   11 1
    25   26   13 1
    26   27   13 1
    27   28   17 1
    28   29   17 1
    29   30   17 1
    30    5   11 1
    31    9   10 1
    32   11   12 1
@<TRIPOS>SUBSTRUCTURE
     1 RES1 1

@<TRIPOS>CRYSIN
   5.5580    8.1190   11.9470  90.0000  98.1900  90.0000   4 1

