# MOL2 file generated by ConQuest
# Please check atom types

@<TRIPOS>MOLECULE
KAVTEG
    28    29     1
SMALL
NO_CHARGES
****
Generated from CSD

@<TRIPOS>ATOM
      1 N1        -1.6791    6.2294   12.0915 N.3       1 RES1    0.0000
      2 C1        -2.6410    5.1597   11.9681 C.3       1 RES1    0.0000
      3 O1        -2.5907    4.4312   10.7632 O.3       1 RES1    0.0000
      4 C2        -2.7948    5.2729    9.6339 C.3       1 RES1    0.0000
      5 C3        -1.6700    6.2951    9.5795 C.3       1 RES1    0.0000
      6 C4        -1.5609    7.0722   10.8839 C.3       1 RES1    0.0000
      7 C5        -0.1826    7.6522   11.1002 C.3       1 RES1    0.0000
      8 C6         0.5441    6.5020   11.7173 C.2       1 RES1    0.0000
      9 O2         1.7193    6.3037   11.8261 O.2       1 RES1    0.0000
     10 O3        -0.3439    5.6077   12.1857 O.3       1 RES1    0.0000
     11 C7        -2.7765    4.4038    8.4064 C.3       1 RES1    0.0000
     12 O4        -3.8014    3.3867    8.4409 O.3       1 RES1    0.0000
     13 C8        -5.0099    3.7084    7.9672 C.2       1 RES1    0.0000
     14 O5        -5.2542    4.8129    7.5638 O.2       1 RES1    0.0000
     15 C9        -5.9730    2.5959    8.0495 C.3       1 RES1    0.0000
     16 H1        -3.5115    5.5369   12.0357 H         1 RES1    0.0000
     17 H2        -2.4936    4.5483   12.6860 H         1 RES1    0.0000
     18 H3        -3.6200    5.7311    9.6870 H         1 RES1    0.0000
     19 H4        -1.8133    6.8911    8.8510 H         1 RES1    0.0000
     20 H5        -0.8469    5.8226    9.4481 H         1 RES1    0.0000
     21 H6        -2.2524    7.7082   10.7751 H         1 RES1    0.0000
     22 H7        -0.2158    8.3939   11.6907 H         1 RES1    0.0000
     23 H8         0.2287    7.9196   10.2841 H         1 RES1    0.0000
     24 H9        -1.9154    3.9827    8.3600 H         1 RES1    0.0000
     25 H10       -2.8881    4.9426    7.6302 H         1 RES1    0.0000
     26 H11       -6.5611    2.6170    7.2984 H         1 RES1    0.0000
     27 H12       -6.4828    2.6856    8.8377 H         1 RES1    0.0000
     28 H13       -5.5022    1.7713    8.0681 H         1 RES1    0.0000
@<TRIPOS>BOND
     1    1    2 1
     2    2    3 1
     3    3    4 1
     4    4    5 1
     5    5    6 1
     6    6    1 1
     7    7    6 1
     8    8    7 1
     9    9    8 2
    10   10    1 1
    11   11    4 1
    12   12   11 1
    13   13   12 1
    14   14   13 2
    15   15   13 1
    16   16    2 1
    17   17    2 1
    18   18    4 1
    19   19    5 1
    20   20    5 1
    21   21    6 1
    22   22    7 1
    23   23    7 1
    24   24   11 1
    25   25   11 1
    26   26   15 1
    27   27   15 1
    28   28   15 1
    29    8   10 1
@<TRIPOS>SUBSTRUCTURE
     1 RES1 1

@<TRIPOS>CRYSIN
  27.1920    5.7140   15.2570  90.0000 119.5700  90.0000  15 1

