# MOL2 file generated by ConQuest
# Please check atom types

@<TRIPOS>MOLECULE
KAVYOY
    78    84     2
SMALL
NO_CHARGES
****
Generated from CSD

@<TRIPOS>ATOM
      1 O1         9.3642    5.3283   20.2037 O.2       1 RES1    0.0000
      2 O2        12.5649   -2.9457   17.2846 O.3       1 RES1    0.0000
      3 O3        12.8440   -2.8582   19.5823 O.3       1 RES1    0.0000
      4 O4        11.5332    4.9282   18.9504 O.3       1 RES1    0.0000
      5 H1        11.0323    5.3020   19.5110 H         1 RES1    0.0000
      6 O5         7.6708    3.9579   20.0756 O.3       1 RES1    0.0000
      7 O6         9.2815    0.4636   15.1142 O.2       1 RES1    0.0000
      8 O7         8.6703   -0.2528   17.0543 O.2       1 RES1    0.0000
      9 C1        11.7538    3.1577   17.4308 C.3       1 RES1    0.0000
     10 H2        12.6648    3.0176   17.7909 H         1 RES1    0.0000
     11 H3        11.8319    3.7711   16.6580 H         1 RES1    0.0000
     12 N1         9.1528    0.6002   16.3292 N.pl3     1 RES1    0.0000
     13 C2         8.9299    4.2670   19.7576 C.2       1 RES1    0.0000
     14 C3         9.7008    3.4045   18.8709 C.2       1 RES1    0.0000
     15 C4        10.9335    3.8298   18.4802 C.2       1 RES1    0.0000
     16 C5        11.2207    1.8160   16.9293 C.3       1 RES1    0.0000
     17 H4        11.5206    1.7082   15.9812 H         1 RES1    0.0000
     18 C6        11.7251    0.6169   17.7074 C.ar      1 RES1    0.0000
     19 C7        11.9560   -0.5714   17.0145 C.ar      1 RES1    0.0000
     20 H5        11.8468   -0.6169   16.0728 H         1 RES1    0.0000
     21 C8        12.3454   -1.6675   17.7332 C.ar      1 RES1    0.0000
     22 C9        12.9440   -3.7112   18.4256 C.3       1 RES1    0.0000
     23 H6        13.8722   -4.0382   18.3219 H         1 RES1    0.0000
     24 H7        12.3443   -4.4922   18.5260 H         1 RES1    0.0000
     25 C10       12.5396   -1.6112   19.1064 C.ar      1 RES1    0.0000
     26 C11       12.3856   -0.4480   19.7990 C.ar      1 RES1    0.0000
     27 H8        12.5603   -0.4013   20.7314 H         1 RES1    0.0000
     28 C12       11.9629    0.6720   19.0831 C.ar      1 RES1    0.0000
     29 H9        11.8331    1.4926   19.5423 H         1 RES1    0.0000
     30 C13        7.1240    2.6726   19.6928 C.3       1 RES1    0.0000
     31 H10        6.1348    2.7145   19.7214 H         1 RES1    0.0000
     32 H11        7.4204    1.9838   20.3399 H         1 RES1    0.0000
     33 C14        7.5674    2.2820   18.3051 C.3       1 RES1    0.0000
     34 H12        7.2940    2.9756   17.6534 H         1 RES1    0.0000
     35 H13        7.1469    1.4255   18.0429 H         1 RES1    0.0000
     36 C15        9.0862    2.1395   18.3090 C.3       1 RES1    0.0000
     37 H14        9.3332    1.3728   18.9029 H         1 RES1    0.0000
     38 C16        9.6709    1.8903   16.9264 C.3       1 RES1    0.0000
     39 H15        9.3941    2.6438   16.3290 H         1 RES1    0.0000
     40 O8         4.3748    5.1163   17.9654 O.3       2 RES2    0.0000
     41 O9         5.3973    5.3152   11.1652 O.2       2 RES2    0.0000
     42 O10        3.6131    3.6369   19.5683 O.3       2 RES2    0.0000
     43 O11        1.8508    1.0685   14.4203 O.2       2 RES2    0.0000
     44 O12        3.1765   -0.6313   14.3485 O.2       2 RES2    0.0000
     45 O13        3.2857    4.8312   11.0535 O.3       2 RES2    0.0000
     46 O14        7.0229    4.0094   12.5936 O.3       2 RES2    0.0000
     47 H16        6.7850    4.5928   12.0390 H         2 RES2    0.0000
     48 C17        3.6280    5.0169   19.1866 C.3       2 RES2    0.0000
     49 H17        4.0543    5.5631   19.8942 H         2 RES2    0.0000
     50 H18        2.7044    5.3439   19.0508 H         2 RES2    0.0000
     51 C18        4.3288    3.8405   17.4366 C.ar      2 RES2    0.0000
     52 C19        4.7217    3.4320   16.1815 C.ar      2 RES2    0.0000
     53 H19        5.0089    4.0538   15.5230 H         2 RES2    0.0000
     54 C20        4.6792    2.0616   15.9214 C.ar      2 RES2    0.0000
     55 C21        5.1480    1.4818   14.5944 C.3       2 RES2    0.0000
     56 H20        5.4604    0.5498   14.7775 H         2 RES2    0.0000
     57 C22        4.0198    1.3824   13.5376 C.3       2 RES2    0.0000
     58 H21        4.3805    0.8925   12.7450 H         2 RES2    0.0000
     59 C23        3.5074    2.7360   13.0623 C.3       2 RES2    0.0000
     60 H22        3.0731    3.2104   13.8279 H         2 RES2    0.0000
     61 C24        4.6873    3.5506   12.5779 C.2       2 RES2    0.0000
     62 C25        4.4793    4.6048   11.5704 C.2       2 RES2    0.0000
     63 C26        3.8865    2.9577   18.3934 C.ar      2 RES2    0.0000
     64 N2         2.9181    0.5439   14.1454 N.pl3     2 RES2    0.0000
     65 C27        2.1414    4.0238   11.4526 C.3       2 RES2    0.0000
     66 H23        1.5176    3.9531   10.6874 H         2 RES2    0.0000
     67 H24        1.6658    4.4850   12.1889 H         2 RES2    0.0000
     68 C28        2.5148    2.6318   11.9090 C.3       2 RES2    0.0000
     69 H25        2.9215    2.1299   11.1602 H         2 RES2    0.0000
     70 H26        1.7049    2.1467   12.2056 H         2 RES2    0.0000
     71 C29        5.9533    3.3266   13.0053 C.2       2 RES2    0.0000
     72 C30        6.3267    2.2341   13.9551 C.3       2 RES2    0.0000
     73 H27        6.8781    2.6246   14.6796 H         2 RES2    0.0000
     74 H28        6.8907    1.5801   13.4718 H         2 RES2    0.0000
     75 C31        4.2438    1.1740   16.9039 C.ar      2 RES2    0.0000
     76 H29        4.2312    0.2444   16.7101 H         2 RES2    0.0000
     77 C32        3.8256    1.6064   18.1678 C.ar      2 RES2    0.0000
     78 H30        3.5177    0.9991   18.8301 H         2 RES2    0.0000
@<TRIPOS>BOND
     1    1   13 2
     2    2   21 1
     3    3   22 1
     4    4    5 1
     5    6   13 1
     6    7   12 2
     7    8   12 2
     8    9   10 1
     9   11    9 1
    10   12   38 1
    11   13   14 1
    12   14   15 2
    13   15    4 1
    14   16    9 1
    15   17   16 1
    16   18   16 1
    17   19   18 ar
    18   20   19 1
    19   21   19 ar
    20   22    2 1
    21   23   22 1
    22   24   22 1
    23   25    3 1
    24   26   25 ar
    25   27   26 1
    26   28   18 ar
    27   29   28 1
    28   30    6 1
    29   31   30 1
    30   32   30 1
    31   33   30 1
    32   34   33 1
    33   35   33 1
    34   36   14 1
    35   37   36 1
    36   38   16 1
    37   39   38 1
    38   40   48 1
    39   41   62 2
    40   42   48 1
    41   43   64 2
    42   44   64 2
    43   45   62 1
    44   46   47 1
    45   48   49 1
    46   50   48 1
    47   51   40 1
    48   52   51 ar
    49   53   52 1
    50   54   52 ar
    51   55   54 1
    52   56   55 1
    53   57   55 1
    54   58   57 1
    55   59   57 1
    56   60   59 1
    57   61   59 1
    58   62   61 1
    59   63   42 1
    60   64   57 1
    61   65   45 1
    62   66   65 1
    63   67   65 1
    64   68   59 1
    65   69   68 1
    66   70   68 1
    67   71   46 1
    68   72   55 1
    69   73   72 1
    70   74   72 1
    71   75   54 ar
    72   76   75 1
    73   77   63 ar
    74   78   77 1
    75    9   15 1
    76   21   25 ar
    77   26   28 ar
    78   33   36 1
    79   36   38 1
    80   51   63 ar
    81   61   71 2
    82   65   68 1
    83   71   72 1
    84   75   77 ar
@<TRIPOS>SUBSTRUCTURE
     1 RES1 1
     2 RES2 40

@<TRIPOS>CRYSIN
  11.4884   11.9792   20.8251  90.0000  90.0000  90.0000  19 1

