# MOL2 file generated by ConQuest
# Please check atom types

@<TRIPOS>MOLECULE
KAWQEF
    18    19     1
SMALL
NO_CHARGES
****
Generated from CSD

@<TRIPOS>ATOM
      1 O1        -3.0493    1.8775    3.4081 O.2       1 RES1    0.0000
      2 O2        -3.1641    3.3523    5.1584 O.3       1 RES1    0.0000
      3 O3         3.8114   -0.7922    5.4936 O.3       1 RES1    0.0000
      4 H1         4.4429   -0.8855    6.0302 H         1 RES1    0.0000
      5 N1        -2.4938    2.3209    4.4172 N.pl3     1 RES1    0.0000
      6 N2        -2.3631    3.7389    6.2170 N.2       1 RES1    0.0000
      7 N3         2.9203    0.2000    5.9794 N.2       1 RES1    0.0000
      8 C1        -1.3314    2.1055    5.0316 C.2       1 RES1    0.0000
      9 C2        -1.2749    2.9853    6.1339 C.2       1 RES1    0.0000
     10 C3        -0.1188    2.9806    6.9780 C.2       1 RES1    0.0000
     11 H2        -0.0530    3.5514    7.7088 H         1 RES1    0.0000
     12 C4         0.8747    2.1137    6.6738 C.2       1 RES1    0.0000
     13 H3         1.6345    2.0967    7.2102 H         1 RES1    0.0000
     14 C5         0.7978    1.2099    5.5398 C.2       1 RES1    0.0000
     15 C6        -0.2969    1.2035    4.7115 C.2       1 RES1    0.0000
     16 H4        -0.3524    0.6341    3.9780 H         1 RES1    0.0000
     17 C7         1.8659    0.2622    5.2699 C.2       1 RES1    0.0000
     18 H5         1.7756   -0.3210    4.5508 H         1 RES1    0.0000
@<TRIPOS>BOND
     1    1    5 1
     2    2    5 1
     3    3    4 1
     4    5    8 2
     5    6    2 1
     6    7    3 1
     7    8    9 1
     8    9    6 2
     9   10    9 1
    10   11   10 1
    11   12   10 2
    12   13   12 1
    13   14   12 1
    14   15    8 1
    15   16   15 1
    16   17    7 2
    17   18   17 1
    18   14   15 2
    19   14   17 1
@<TRIPOS>SUBSTRUCTURE
     1 RES1 1

@<TRIPOS>CRYSIN
   7.0120   15.8120    7.4530  90.0000 112.8500  90.0000  14 1

