# MOL2 file generated by ConQuest
# Please check atom types

@<TRIPOS>MOLECULE
KAWTEK
    21    21     1
SMALL
NO_CHARGES
****
Generated from CSD

@<TRIPOS>ATOM
      1 O1         3.9869    0.9394   12.3759 O.2       1 RES1    0.0000
      2 O2         2.3903    0.7661   13.8361 O.2       1 RES1    0.0000
      3 N1         3.1751    1.3926   13.1492 N.pl3     1 RES1    0.0000
      4 C1         3.1092    2.8980   13.3318 C.3       1 RES1    0.0000
      5 H1         2.1539    3.1909   13.3798 H         1 RES1    0.0000
      6 N2         3.7992    3.1851   14.6529 N.pl3     1 RES1    0.0000
      7 O3         4.8012    2.5487   14.9018 O.2       1 RES1    0.0000
      8 O4         3.2847    4.0410   15.3386 O.2       1 RES1    0.0000
      9 C2         3.8070    3.6366   12.2427 C.2       1 RES1    0.0000
     10 N3         5.0144    4.0845   12.2057 N.2       1 RES1    0.0000
     11 N4         5.1235    4.7569   10.9776 N.2       1 RES1    0.0000
     12 C3         3.9697    4.6304   10.4171 C.2       1 RES1    0.0000
     13 O5         3.0728    3.9372   11.1526 O.3       1 RES1    0.0000
     14 C4         3.5888    5.1404    9.0768 C.3       1 RES1    0.0000
     15 H2         4.3810    5.6002    8.6760 H         1 RES1    0.0000
     16 N5         2.4458    6.1399    9.1681 N.pl3     1 RES1    0.0000
     17 O6         1.5986    6.1183    8.2951 O.2       1 RES1    0.0000
     18 O7         2.5313    6.9223   10.0884 O.2       1 RES1    0.0000
     19 N6         3.1815    4.0015    8.1675 N.pl3     1 RES1    0.0000
     20 O8         2.1554    3.4044    8.4504 O.2       1 RES1    0.0000
     21 O9         3.9392    3.7485    7.2552 O.2       1 RES1    0.0000
@<TRIPOS>BOND
     1    1    3 2
     2    2    3 2
     3    3    4 1
     4    4    5 1
     5    6    4 1
     6    7    6 2
     7    8    6 2
     8    9    4 1
     9   10    9 2
    10   11   10 1
    11   12   11 2
    12   13    9 1
    13   14   12 1
    14   15   14 1
    15   16   14 1
    16   17   16 2
    17   18   16 2
    18   19   14 1
    19   20   19 2
    20   21   19 2
    21   12   13 1
@<TRIPOS>SUBSTRUCTURE
     1 RES1 1

@<TRIPOS>CRYSIN
   4.9142   10.5346   17.9739  90.0000  90.0000  90.0000  19 1

