# MOL2 file generated by ConQuest
# Please check atom types

@<TRIPOS>MOLECULE
KAXFUL
    33    32     2
SMALL
NO_CHARGES
****
Generated from CSD

@<TRIPOS>ATOM
      1 C1         0.5239    5.9432    6.6685 C.ar      1 RES1    0.0000
      2 C2         1.6792    6.4152    7.2870 C.ar      1 RES1    0.0000
      3 C3         1.7256    7.0810    8.4918 C.ar      1 RES1    0.0000
      4 H1         2.5447    7.3831    8.8657 H         1 RES1    0.0000
      5 C4         0.5179    7.2839    9.1267 C.ar      1 RES1    0.0000
      6 C5        -0.6808    6.8803    8.5894 C.ar      1 RES1    0.0000
      7 H2        -1.5015    7.0494    9.0377 H         1 RES1    0.0000
      8 C6        -0.6537    6.2223    7.3790 C.ar      1 RES1    0.0000
      9 C7         1.2913    3.0689    6.4205 C.3       1 RES1    0.0000
     10 H3         1.5207    2.1710    6.1015 H         1 RES1    0.0000
     11 H4         0.5197    3.0143    7.0215 H         1 RES1    0.0000
     12 H5         2.0555    3.4478    6.9027 H         1 RES1    0.0000
     13 C8         0.9618    3.9245    5.2776 C.2       1 RES1    0.0000
     14 C9         0.5986    5.2367    5.3583 C.3       1 RES1    0.0000
     15 H6         1.5536    5.5150    5.2529 H         1 RES1    0.0000
     16 C10        0.2396    5.9755    4.1605 C.2       1 RES1    0.0000
     17 O1        -0.0676    7.2470    4.3901 O.3       1 RES1    0.0000
     18 C11       -0.4337    8.0288    3.2465 C.3       1 RES1    0.0000
     19 H7        -0.6367    8.9452    3.5275 H         1 RES1    0.0000
     20 H8        -1.2239    7.6352    2.8201 H         1 RES1    0.0000
     21 H9         0.3093    8.0411    2.6076 H         1 RES1    0.0000
     22 O2         1.0451    3.3049    4.0924 O.2       1 RES1    0.0000
     23 O3         0.2123    5.4712    3.0316 O.2       1 RES1    0.0000
     24 N1         2.9665    6.2338    6.5861 N.pl3     1 RES1    0.0000
     25 N2         0.5146    7.9443   10.4460 N.pl3     1 RES1    0.0000
     26 O4         3.3122    7.1186    5.8329 O.2       1 RES1    0.0000
     27 O5         3.5979    5.2221    6.8396 O.2       1 RES1    0.0000
     28 O6         1.5611    8.4263   10.8422 O.2       1 RES1    0.0000
     29 O7        -0.5371    7.9543   11.0748 O.2       1 RES1    0.0000
     30 O8        -2.9496    6.2484    7.3856 O.2       1 RES1    0.0000
     31 N3        -1.9697    5.8387    6.8421 N.pl3     1 RES1    0.0000
     32 O9        -2.1042    5.6818    5.5786 O.2       1 RES1    0.0000
     33 O10       -1.9283    4.4864    6.4217 Du        2 SUP2    0.0000
@<TRIPOS>BOND
     1    1    2 ar
     2    2    3 ar
     3    3    4 1
     4    5    3 ar
     5    6    5 ar
     6    7    6 1
     7    8    1 ar
     8    9   10 1
     9   11    9 1
    10   12    9 1
    11   13    9 1
    12   14    1 1
    13   15   14 1
    14   16   14 1
    15   17   16 1
    16   18   17 1
    17   19   18 1
    18   20   18 1
    19   21   18 1
    20   22   13 2
    21   23   16 2
    22   24    2 1
    23   25    5 1
    24   26   24 2
    25   27   24 2
    26   28   25 2
    27   29   25 2
    28   30   31 2
    29   31    8 1
    30   32   31 2
    31    6    8 ar
    32   13   14 1
@<TRIPOS>SUBSTRUCTURE
     1 RES1 1
     2 SUP2 33

@<TRIPOS>CRYSIN
  12.7844    7.6875   14.7081  90.0000 108.0845  90.0000 231 1

