# MOL2 file generated by ConQuest
# Please check atom types

@<TRIPOS>MOLECULE
KAXHAS10
    36    37     1
SMALL
USER_CHARGES
****
Generated from CSD

@<TRIPOS>ATOM
      1 O1         0.4986   -0.4243   10.6365 O.2       1 RES1    0.0000
      2 O2         2.4918    3.3515    8.8492 O.2       1 RES1   -1.0000
      3 N1         1.1026    0.3847    9.8528 N.3       1 RES1    0.0000
      4 N2         2.0134    2.1762    8.9985 N.pl3     1 RES1    1.0000
      5 C1         1.4102    1.6727   10.1048 C.2       1 RES1    0.0000
      6 C2         1.1522    2.4032   11.3435 C.ar      1 RES1    0.0000
      7 C3         0.7378    1.7313   12.5011 C.ar      1 RES1    0.0000
      8 C4         0.4897    2.4108   13.6635 C.ar      1 RES1    0.0000
      9 C5         0.6213    3.7773   13.6733 C.ar      1 RES1    0.0000
     10 C6         0.9989    4.4803   12.5651 C.ar      1 RES1    0.0000
     11 C7         1.2707    3.7887   11.3977 C.ar      1 RES1    0.0000
     12 N3         0.3127    4.5100   14.9146 N.pl3     1 RES1    0.0000
     13 O3        -0.0225    3.8694   15.8948 O.2       1 RES1    0.0000
     14 O4         0.3933    5.7341   14.8998 O.2       1 RES1    0.0000
     15 C8         1.7041   -0.1173    8.5655 C.3       1 RES1    0.0000
     16 C9         1.9381    1.2340    7.8341 C.3       1 RES1    0.0000
     17 C10        2.9743   -0.8295    8.9571 C.3       1 RES1    0.0000
     18 C11        0.7250   -1.0610    7.9006 C.3       1 RES1    0.0000
     19 C12        0.7605    1.6978    6.9943 C.3       1 RES1    0.0000
     20 C13        3.2356    1.3086    7.0435 C.3       1 RES1    0.0000
     21 H1         0.7618    0.9278   12.4690 H         1 RES1    0.0000
     22 H2         0.2671    1.8875   14.4343 H         1 RES1    0.0000
     23 H3         1.1354    5.4157   12.5208 H         1 RES1    0.0000
     24 H4         1.4486    4.2312   10.6761 H         1 RES1    0.0000
     25 H5         2.7751   -1.5912    9.5433 H         1 RES1    0.0000
     26 H6         3.6359   -0.2696    9.4324 H         1 RES1    0.0000
     27 H7         3.4844   -1.1464    8.2257 H         1 RES1    0.0000
     28 H8        -0.2450   -0.5248    7.8439 H         1 RES1    0.0000
     29 H9         0.7088   -1.7786    8.3069 H         1 RES1    0.0000
     30 H10        0.9783   -1.2842    7.0263 H         1 RES1    0.0000
     31 H11        0.9267    2.4946    6.7332 H         1 RES1    0.0000
     32 H12       -0.1486    1.6064    7.3933 H         1 RES1    0.0000
     33 H13        0.6070    1.2370    6.2456 H         1 RES1    0.0000
     34 H14        3.3874    2.1449    6.6766 H         1 RES1    0.0000
     35 H15        4.1074    1.2279    7.5336 H         1 RES1    0.0000
     36 H16        3.0909    0.8737    6.2825 H         1 RES1    0.0000
@<TRIPOS>BOND
     1    1    3 1
     2    2    4 1
     3    3    5 1
     4    4    5 2
     5    5    6 1
     6    6    7 ar
     7    7    8 ar
     8    8    9 ar
     9    9   10 ar
    10   10   11 ar
    11   11    6 ar
    12   12    9 1
    13   13   12 2
    14   14   12 2
    15   15    3 1
    16   16    4 1
    17   17   15 1
    18   18   15 1
    19   19   16 1
    20   20   16 1
    21   21    7 1
    22   22    8 1
    23   23   10 1
    24   24   11 1
    25   25   17 1
    26   26   17 1
    27   27   17 1
    28   28   18 1
    29   29   18 1
    30   30   18 1
    31   31   19 1
    32   32   19 1
    33   33   19 1
    34   34   20 1
    35   35   20 1
    36   36   20 1
    37   15   16 1
@<TRIPOS>SUBSTRUCTURE
     1 RES1 1

@<TRIPOS>CRYSIN
   7.3040    7.6170   24.6770  90.0000  93.6200  90.0000  14 1

