# MOL2 file generated by ConQuest
# Please check atom types

@<TRIPOS>MOLECULE
KAXHAS11
    36    37     1
SMALL
USER_CHARGES
****
Generated from CSD

@<TRIPOS>ATOM
      1 O1         2.7450    4.6323    6.5797 O.2       1 RES1    0.0000
      2 O2         1.7666    0.9522    3.9739 O.2       1 RES1   -1.0000
      3 N1         2.1255    3.6563    6.0547 N.3       1 RES1    0.0000
      4 N2         1.6920    1.8710    4.8640 N.pl3     1 RES1    1.0000
      5 C1         2.6058    2.8327    5.0916 C.2       1 RES1    0.0000
      6 C2         3.8393    3.0231    4.3462 C.ar      1 RES1    0.0000
      7 C3         4.3426    4.3109    4.1363 C.ar      1 RES1    0.0000
      8 C4         5.4249    4.5156    3.3048 C.ar      1 RES1    0.0000
      9 C5         5.9836    3.4183    2.6860 C.ar      1 RES1    0.0000
     10 C6         5.5501    2.1328    2.9038 C.ar      1 RES1    0.0000
     11 C7         4.4716    1.9329    3.7339 C.ar      1 RES1    0.0000
     12 N3         7.0986    3.6301    1.7437 N.pl3     1 RES1    0.0000
     13 O3         7.5943    4.7418    1.6694 O.2       1 RES1    0.0000
     14 O4         7.4630    2.6899    1.0747 O.2       1 RES1    0.0000
     15 C8         0.6723    3.3683    6.3488 C.3       1 RES1    0.0000
     16 C9         0.5733    1.9067    5.8598 C.3       1 RES1    0.0000
     17 C10       -0.1243    4.3657    5.4972 C.3       1 RES1    0.0000
     18 C11        0.3949    3.5968    7.8187 C.3       1 RES1    0.0000
     19 C12        0.9253    0.8688    6.9370 C.3       1 RES1    0.0000
     20 C13       -0.7273    1.5354    5.1646 C.3       1 RES1    0.0000
     21 H1         3.9074    5.0226    4.5190 H         1 RES1    0.0000
     22 H2         5.7457    5.3559    3.1040 H         1 RES1    0.0000
     23 H3         5.9764    1.4282    2.4780 H         1 RES1    0.0000
     24 H4         4.1358    1.0236    3.8669 H         1 RES1    0.0000
     25 H5        -1.0607    4.3323    5.7646 H         1 RES1    0.0000
     26 H6         0.0932    4.2609    4.5386 H         1 RES1    0.0000
     27 H7         0.1507    5.2369    5.8298 H         1 RES1    0.0000
     28 H8         0.5792    4.4513    8.0599 H         1 RES1    0.0000
     29 H9        -0.6209    3.3564    8.0208 H         1 RES1    0.0000
     30 H10        0.9113    3.0469    8.3403 H         1 RES1    0.0000
     31 H11        1.7878    1.1188    7.3948 H         1 RES1    0.0000
     32 H12        1.0331    0.0238    6.4493 H         1 RES1    0.0000
     33 H13        0.1673    0.8569    7.5643 H         1 RES1    0.0000
     34 H14       -0.6831    0.5951    4.8777 H         1 RES1    0.0000
     35 H15       -0.9247    2.2614    4.3821 H         1 RES1    0.0000
     36 H16       -1.4763    1.7615    5.7776 H         1 RES1    0.0000
@<TRIPOS>BOND
     1    1    3 1
     2    2    4 1
     3    3    5 1
     4    4    5 2
     5    5    6 1
     6    6    7 ar
     7    7    8 ar
     8    8    9 ar
     9    9   10 ar
    10   10   11 ar
    11   11    6 ar
    12   12    9 1
    13   13   12 2
    14   14   12 2
    15   15    3 1
    16   16    4 1
    17   17   15 1
    18   18   15 1
    19   19   16 1
    20   20   16 1
    21   21    7 1
    22   22    8 1
    23   23   10 1
    24   24   11 1
    25   25   17 1
    26   26   17 1
    27   27   17 1
    28   28   18 1
    29   29   18 1
    30   30   18 1
    31   31   19 1
    32   32   19 1
    33   33   19 1
    34   34   20 1
    35   35   20 1
    36   36   20 1
    37   15   16 1
@<TRIPOS>SUBSTRUCTURE
     1 RES1 1

@<TRIPOS>CRYSIN
   8.9630   23.8040    6.7280  90.0000 104.2500  90.0000  14 1

