# MOL2 file generated by ConQuest
# Please check atom types

@<TRIPOS>MOLECULE
KAXHAS05
    24    25     1
SMALL
NO_CHARGES
****
Generated from CSD

@<TRIPOS>ATOM
      1 O1         4.2753    4.4967    0.6660 O.2       1 RES1    0.0000
      2 O2         3.5481    1.0995   -2.3804 O.2       1 RES1    0.0000
      3 N1         3.7134    3.5767   -0.0143 N.3       1 RES1    0.0000
      4 N2         3.4026    1.9305   -1.4181 N.pl3     1 RES1    0.0000
      5 C1         4.2693    2.8876   -1.0415 C.2       1 RES1    0.0000
      6 C2         2.2551    3.2487    0.1378 C.3       1 RES1    0.0000
      7 C3         2.2235    1.8351   -0.4871 C.3       1 RES1    0.0000
      8 C4         1.8577    3.3163    1.6046 C.3       1 RES1    0.0000
      9 C5         0.9725    1.5076   -1.2772 C.3       1 RES1    0.0000
     10 C6         1.5178    4.3016   -0.6885 C.3       1 RES1    0.0000
     11 C7         2.5525    0.7141    0.4933 C.3       1 RES1    0.0000
     12 C8         5.5252    3.2139   -1.7112 C.ar      1 RES1    0.0000
     13 C9         6.0204    4.5213   -1.6751 C.ar      1 RES1    0.0000
     14 C10        6.1874    2.2527   -2.4839 C.ar      1 RES1    0.0000
     15 C11        7.0973    4.8755   -2.4577 C.ar      1 RES1    0.0000
     16 C12        7.2647    2.6124   -3.2616 C.ar      1 RES1    0.0000
     17 C13        7.6809    3.9192   -3.2560 C.ar      1 RES1    0.0000
     18 N3         8.7729    4.3168   -4.1621 N.pl3     1 RES1    0.0000
     19 O3         9.1951    5.4476   -4.0991 O.2       1 RES1    0.0000
     20 O4         9.1986    3.4886   -4.9460 O.2       1 RES1    0.0000
     21 H1         5.5714    5.1877   -1.1600 H         1 RES1    0.0000
     22 H2         5.8751    1.3476   -2.4758 H         1 RES1    0.0000
     23 H3         7.4266    5.7505   -2.4883 H         1 RES1    0.0000
     24 H4         7.7386    2.0045   -3.7854 H         1 RES1    0.0000
@<TRIPOS>BOND
     1    1    3 1
     2    2    4 1
     3    3    5 1
     4    4    5 2
     5    5   12 1
     6    6    3 1
     7    7    4 1
     8    8    6 1
     9    9    7 1
    10   10    6 1
    11   11    7 1
    12   12   13 ar
    13   13   15 ar
    14   14   12 ar
    15   15   17 ar
    16   16   14 ar
    17   17   16 ar
    18   18   17 1
    19   19   18 2
    20   20   18 2
    21   21   13 1
    22   22   14 1
    23   23   15 1
    24   24   16 1
    25    6    7 1
@<TRIPOS>SUBSTRUCTURE
     1 RES1 1

@<TRIPOS>CRYSIN
   9.1930   12.1050    6.4710  97.3500 104.4400  82.2200   2 1

