# MOL2 file generated by ConQuest
# Please check atom types

@<TRIPOS>MOLECULE
KAXJUO
    39    43     1
SMALL
NO_CHARGES
****
Generated from CSD

@<TRIPOS>ATOM
      1 O1         6.0079    6.0974    3.6536 O.3       1 RES1    0.0000
      2 O2         7.5035    2.1319    5.0907 O.3       1 RES1    0.0000
      3 N1         6.3391    3.9456    4.1926 N.3       1 RES1    0.0000
      4 N2         4.7389    5.4630    3.8952 N.2       1 RES1    0.0000
      5 N3         8.7373    1.5362    4.8055 N.2       1 RES1    0.0000
      6 C1         7.0261    5.2165    4.1423 C.3       1 RES1    0.0000
      7 C2         8.1956    5.2232    3.2354 C.2       1 RES1    0.0000
      8 C3         8.6807    4.1401    2.6840 C.2       1 RES1    0.0000
      9 C4         8.1344    2.7641    2.9032 C.3       1 RES1    0.0000
     10 C5         6.9423    2.7111    3.8571 C.3       1 RES1    0.0000
     11 C6         4.9985    4.2318    4.1434 C.2       1 RES1    0.0000
     12 C7         3.9262    3.2813    4.4555 C.ar      1 RES1    0.0000
     13 C8         2.6708    3.4648    3.9131 C.ar      1 RES1    0.0000
     14 C9         1.6274    2.6425    4.3045 C.ar      1 RES1    0.0000
     15 C10        1.8406    1.6423    5.2059 C.ar      1 RES1    0.0000
     16 C11        3.0724    1.4390    5.7382 C.ar      1 RES1    0.0000
     17 C12        4.1249    2.2524    5.3658 C.ar      1 RES1    0.0000
     18 C13        9.0941    1.8413    3.6111 C.2       1 RES1    0.0000
     19 C14       10.3412    1.3063    3.0665 C.ar      1 RES1    0.0000
     20 C15       10.7121    1.5594    1.7714 C.ar      1 RES1    0.0000
     21 C16       11.8770    1.0245    1.2648 C.ar      1 RES1    0.0000
     22 C17       12.6656    0.2299    2.0208 C.ar      1 RES1    0.0000
     23 C18       12.2959   -0.0508    3.3025 C.ar      1 RES1    0.0000
     24 C19       11.1516    0.4808    3.8247 C.ar      1 RES1    0.0000
     25 H1         4.9865    2.0888    5.6812 H         1 RES1    0.0000
     26 H2         3.2318    0.8178    6.3186 H         1 RES1    0.0000
     27 H3         7.8777    2.3762    2.0801 H         1 RES1    0.0000
     28 H4         6.2474    2.0999    3.5787 H         1 RES1    0.0000
     29 H5         7.2397    5.5260    5.0102 H         1 RES1    0.0000
     30 H6         9.4081    4.1777    2.1360 H         1 RES1    0.0000
     31 H7         8.5220    6.1007    3.0642 H         1 RES1    0.0000
     32 H8         1.0851    1.0610    5.4128 H         1 RES1    0.0000
     33 H9         0.7722    2.8404    3.8695 H         1 RES1    0.0000
     34 H10       10.2253    2.1109    1.2637 H         1 RES1    0.0000
     35 H11        2.5469    4.1666    3.2544 H         1 RES1    0.0000
     36 H12       12.8280   -0.6410    3.8135 H         1 RES1    0.0000
     37 H13       12.1368    1.3041    0.4473 H         1 RES1    0.0000
     38 H14       13.4413   -0.0884    1.7111 H         1 RES1    0.0000
     39 H15       10.8819    0.2763    4.7977 H         1 RES1    0.0000
@<TRIPOS>BOND
     1    1    4 1
     2    2    5 1
     3    3    6 1
     4    4   11 2
     5    5   18 2
     6    6    1 1
     7    7    6 1
     8    8    7 2
     9    9    8 1
    10   10    2 1
    11   11    3 1
    12   12   11 1
    13   13   12 ar
    14   14   13 ar
    15   15   14 ar
    16   16   15 ar
    17   17   12 ar
    18   18    9 1
    19   19   18 1
    20   20   19 ar
    21   21   20 ar
    22   22   21 ar
    23   23   22 ar
    24   24   19 ar
    25   25   17 1
    26   26   16 1
    27   27    9 1
    28   28   10 1
    29   29    6 1
    30   30    8 1
    31   31    7 1
    32   32   15 1
    33   33   14 1
    34   34   20 1
    35   35   13 1
    36   36   23 1
    37   37   21 1
    38   38   22 1
    39   39   24 1
    40    3   10 1
    41    9   10 1
    42   16   17 ar
    43   23   24 ar
@<TRIPOS>SUBSTRUCTURE
     1 RES1 1

@<TRIPOS>CRYSIN
  13.2160   11.0520   11.6300  90.0000 105.9300  90.0000  14 1

