# MOL2 file generated by ConQuest
# Please check atom types

@<TRIPOS>MOLECULE
KAXKOJ
   116   126     2
SMALL
NO_CHARGES
****
Generated from CSD

@<TRIPOS>ATOM
      1 C1        13.8986   21.3298    7.1284 C.3       1 RES1    0.0000
      2 N1        13.3871   21.5948    9.4115 N.3       1 RES1    0.0000
      3 O1        13.0307   22.0316    8.0858 O.3       1 RES1    0.0000
      4 C2        14.8363   21.3585    9.3504 C.3       1 RES1    0.0000
      5 C3        15.0534   20.7374    7.9456 C.3       1 RES1    0.0000
      6 C4        14.8494   19.2339    7.8695 C.2       1 RES1    0.0000
      7 C5        13.7463   19.0102    6.9211 C.2       1 RES1    0.0000
      8 C6        13.2369   20.1475    6.4811 C.2       1 RES1    0.0000
      9 C7        12.5801   20.4970    9.8649 C.ar      1 RES1    0.0000
     10 C8        12.9074   19.9391   11.1071 C.ar      1 RES1    0.0000
     11 C9        12.1448   18.8978   11.6321 C.ar      1 RES1    0.0000
     12 C10       11.0610   18.4110   10.9088 C.ar      1 RES1    0.0000
     13 C11       10.7189   18.9952    9.7292 C.ar      1 RES1    0.0000
     14 C12       11.4542   20.0595    9.1968 C.ar      1 RES1    0.0000
     15 C13       15.6188   22.6306    9.5577 C.ar      1 RES1    0.0000
     16 C14       17.0047   22.5432    9.6576 C.ar      1 RES1    0.0000
     17 C15       17.7857   23.6721    9.9096 C.ar      1 RES1    0.0000
     18 C16       17.1762   24.8973   10.0543 C.ar      1 RES1    0.0000
     19 C17       15.8051   25.0122    9.9559 C.ar      1 RES1    0.0000
     20 C18       15.0168   23.8764    9.6919 C.ar      1 RES1    0.0000
     21 C19       15.5489   18.2820    8.5183 C.2       1 RES1    0.0000
     22 C20       16.7867   18.5954    9.2878 C.ar      1 RES1    0.0000
     23 C21       16.8793   18.3526   10.6568 C.ar      1 RES1    0.0000
     24 C22       18.0587   18.6031   11.3368 C.ar      1 RES1    0.0000
     25 C23       19.1779   19.0542   10.6553 C.ar      1 RES1    0.0000
     26 C24       19.0965   19.2921    9.3012 C.ar      1 RES1    0.0000
     27 C25       17.9164   19.0721    8.6167 C.ar      1 RES1    0.0000
     28 C26       15.1386   16.8450    8.4810 C.ar      1 RES1    0.0000
     29 C27       13.8292   16.4714    8.7956 C.ar      1 RES1    0.0000
     30 C28       13.4415   15.1353    8.7032 C.ar      1 RES1    0.0000
     31 C29       14.3474   14.1801    8.3378 C.ar      1 RES1    0.0000
     32 C30       15.6366   14.5229    8.0485 C.ar      1 RES1    0.0000
     33 C31       16.0591   15.8560    8.1290 C.ar      1 RES1    0.0000
     34 C32       11.3484   14.7508   16.5146 C.3       2 RES2    0.0000
     35 N2        12.7315   15.8015   14.9144 N.3       2 RES2    0.0000
     36 O2        12.5745   15.5424   16.3311 O.3       2 RES2    0.0000
     37 C33       11.3650   15.9532   14.4253 C.3       2 RES2    0.0000
     38 C34       10.5632   14.8690   15.1918 C.3       2 RES2    0.0000
     39 C35       10.6537   13.4714   14.5848 C.2       2 RES2    0.0000
     40 C36       11.2859   12.6161   15.5885 C.2       2 RES2    0.0000
     41 C37       11.6358   13.2913   16.6577 C.2       2 RES2    0.0000
     42 C38       14.4503   14.0565   14.9666 C.ar      2 RES2    0.0000
     43 C39       13.7780   15.0304   12.8952 C.ar      2 RES2    0.0000
     44 C40       14.7302   14.2585   12.2360 C.ar      2 RES2    0.0000
     45 C41       15.5408   13.3966   12.9459 C.ar      2 RES2    0.0000
     46 C42       15.3899   13.2983   14.2955 C.ar      2 RES2    0.0000
     47 C43       13.6196   14.9062   14.2657 C.ar      2 RES2    0.0000
     48 C44       10.8566   17.3672   14.6311 C.ar      2 RES2    0.0000
     49 C45       11.6158   18.3205   15.3126 C.ar      2 RES2    0.0000
     50 C46       11.1436   19.6223   15.4170 C.ar      2 RES2    0.0000
     51 C47        9.9477   19.9883   14.8488 C.ar      2 RES2    0.0000
     52 C48        9.1881   19.0427   14.1777 C.ar      2 RES2    0.0000
     53 C49        9.6451   17.7420   14.1016 C.ar      2 RES2    0.0000
     54 C50       10.2794   13.0740   13.3560 C.2       2 RES2    0.0000
     55 C51        9.5227   13.9501   12.4210 C.ar      2 RES2    0.0000
     56 C52        8.2887   14.4812   12.7669 C.ar      2 RES2    0.0000
     57 C53        7.5796   15.2723   11.8632 C.ar      2 RES2    0.0000
     58 C54        8.1201   15.5705   10.6269 C.ar      2 RES2    0.0000
     59 C55        9.3329   15.0460   10.2780 C.ar      2 RES2    0.0000
     60 C56       10.0278   14.2305   11.1459 C.ar      2 RES2    0.0000
     61 C57       10.6588   11.7237   12.8415 C.ar      2 RES2    0.0000
     62 C58        9.6895   10.7640   12.5746 C.ar      2 RES2    0.0000
     63 C59       10.0581    9.5192   12.1108 C.ar      2 RES2    0.0000
     64 C60       11.3802    9.2256   11.8722 C.ar      2 RES2    0.0000
     65 C61       12.3393   10.1639   12.0974 C.ar      2 RES2    0.0000
     66 C62       11.9876   11.4170   12.5984 C.ar      2 RES2    0.0000
     67 H1        15.1290   20.7021   10.1110 H         1 RES1    0.0000
     68 H2         9.6253   15.1744   15.3454 H         2 RES2    0.0000
     69 H3        13.6749   20.2854   11.6321 H         1 RES1    0.0000
     70 H4        13.9901   23.9347    9.6039 H         1 RES1    0.0000
     71 H5        14.1949   22.0895    6.5020 H         1 RES1    0.0000
     72 H6        12.4689   18.0136   15.6735 H         2 RES2    0.0000
     73 H7        19.9479   19.6074    8.8135 H         1 RES1    0.0000
     74 H8        12.1213   12.9597   17.5078 H         2 RES2    0.0000
     75 H9        13.4940   18.1284    6.6959 H         1 RES1    0.0000
     76 H10       15.9245   20.9570    7.5310 H         1 RES1    0.0000
     77 H11       10.9324   15.2371   17.3437 H         2 RES2    0.0000
     78 H12        9.6947   20.9861   14.9427 H         2 RES2    0.0000
     79 H13       10.5352   17.6207   11.2891 H         1 RES1    0.0000
     80 H14       13.2182   15.6699   12.3628 H         2 RES2    0.0000
     81 H15       20.0355   19.2605   11.2443 H         1 RES1    0.0000
     82 H16       17.4129   21.6209    9.5592 H         1 RES1    0.0000
     83 H17        8.3227   19.3394   13.8243 H         2 RES2    0.0000
     84 H18        8.7006   11.0049   12.7058 H         2 RES2    0.0000
     85 H19       16.0572   17.9961   11.1549 H         1 RES1    0.0000
     86 H20       14.7932   14.2767   11.1996 H         2 RES2    0.0000
     87 H21       12.7001   12.1153   12.7953 H         2 RES2    0.0000
     88 H22        9.8666   18.5902    9.1267 H         1 RES1    0.0000
     89 H23       18.1387   18.4222   12.3777 H         1 RES1    0.0000
     90 H24       11.6591   20.2236   15.8226 H         2 RES2    0.0000
     91 H25       13.1986   17.2349    9.1416 H         1 RES1    0.0000
     92 H26       10.9022   13.7631   10.8417 H         2 RES2    0.0000
     93 H27       15.9155   12.6369   14.7489 H         2 RES2    0.0000
     94 H28       13.2535    9.9392   11.8110 H         2 RES2    0.0000
     95 H29        9.7994   15.3448    9.4548 H         2 RES2    0.0000
     96 H30        6.6239   15.5499   12.0645 H         2 RES2    0.0000
     97 H31       16.1681   12.7956   12.4374 H         2 RES2    0.0000
     98 H32       18.8138   23.5422    9.9767 H         1 RES1    0.0000
     99 H33       11.3248   15.7259   13.5558 H         2 RES2    0.0000
    100 H34        9.0959   17.0983   13.6602 H         2 RES2    0.0000
    101 H35        7.6698   16.2264   10.0513 H         2 RES2    0.0000
    102 H36       12.4972   20.3018    5.9204 H         1 RES1    0.0000
    103 H37       17.6616   25.6753   10.1259 H         1 RES1    0.0000
    104 H38       11.3856   11.6305   15.4498 H         2 RES2    0.0000
    105 H39       17.8297   19.2401    7.5758 H         1 RES1    0.0000
    106 H40       15.3512   25.9470   10.0960 H         1 RES1    0.0000
    107 H41       16.3601   13.8831    7.8144 H         1 RES1    0.0000
    108 H42       14.4261   14.0365   16.0016 H         2 RES2    0.0000
    109 H43       11.2063   20.4791    8.3811 H         1 RES1    0.0000
    110 H44        7.9305   14.2486   13.6602 H         2 RES2    0.0000
    111 H45       11.6317    8.3410   11.5426 H         2 RES2    0.0000
    112 H46       17.0951   16.2055    8.0977 H         1 RES1    0.0000
    113 H47       12.4242   14.8858    8.9627 H         1 RES1    0.0000
    114 H48       12.4665   18.4661   12.5716 H         1 RES1    0.0000
    115 H49       14.1089   13.2318    8.3960 H         1 RES1    0.0000
    116 H50        9.3135    8.7861   11.7812 H         2 RES2    0.0000
@<TRIPOS>BOND
     1    1    3 1
     2    2    3 1
     3    4    2 1
     4    5    1 1
     5    6    5 1
     6    7    6 1
     7    8    1 1
     8    9    2 1
     9   10    9 ar
    10   11   10 ar
    11   12   11 ar
    12   13   12 ar
    13   14    9 ar
    14   15    4 1
    15   16   15 ar
    16   17   16 ar
    17   18   17 ar
    18   19   18 ar
    19   20   15 ar
    20   21    6 2
    21   22   21 1
    22   23   22 ar
    23   24   23 ar
    24   25   24 ar
    25   26   25 ar
    26   27   22 ar
    27   28   21 1
    28   29   28 ar
    29   30   29 ar
    30   31   30 ar
    31   32   31 ar
    32   33   28 ar
    33   34   36 1
    34   35   36 1
    35   37   35 1
    36   38   34 1
    37   39   38 1
    38   40   39 1
    39   41   34 1
    40   42   46 ar
    41   43   44 ar
    42   44   45 ar
    43   45   46 ar
    44   46   93 1
    45   47   35 1
    46   48   37 1
    47   49   48 ar
    48   50   49 ar
    49   51   50 ar
    50   52   51 ar
    51   53   48 ar
    52   54   39 2
    53   55   54 1
    54   56   55 ar
    55   57   56 ar
    56   58   57 ar
    57   59   58 ar
    58   60   55 ar
    59   61   54 1
    60   62   61 ar
    61   63   62 ar
    62   64   63 ar
    63   65   64 ar
    64   66   61 ar
    65   67    4 1
    66   68   38 1
    67   69   10 1
    68   70   20 1
    69   71    1 1
    70   72   49 1
    71   73   26 1
    72   74   41 1
    73   75    7 1
    74   76    5 1
    75   77   34 1
    76   78   51 1
    77   79   12 1
    78   80   43 1
    79   81   25 1
    80   82   16 1
    81   83   52 1
    82   84   62 1
    83   85   23 1
    84   86   44 1
    85   87   66 1
    86   88   13 1
    87   89   24 1
    88   90   50 1
    89   91   29 1
    90   92   60 1
    91   94   65 1
    92   95   59 1
    93   96   57 1
    94   97   45 1
    95   98   17 1
    96   99   37 1
    97  100   53 1
    98  101   58 1
    99  102    8 1
   100  103   18 1
   101  104   40 1
   102  105   27 1
   103  106   19 1
   104  107   32 1
   105  108   42 1
   106  109   14 1
   107  110   56 1
   108  111   64 1
   109  112   33 1
   110  113   30 1
   111  114   11 1
   112  115   31 1
   113  116   63 1
   114    4    5 1
   115    7    8 2
   116   13   14 ar
   117   19   20 ar
   118   26   27 ar
   119   32   33 ar
   120   37   38 1
   121   40   41 2
   122   42   47 ar
   123   43   47 ar
   124   52   53 ar
   125   59   60 ar
   126   65   66 ar
@<TRIPOS>SUBSTRUCTURE
     1 RES1 1
     2 RES2 34

@<TRIPOS>CRYSIN
  12.1740   12.9580   16.2350  72.7300  77.4100  97.8500   2 1

