# MOL2 file generated by ConQuest
# Please check atom types

@<TRIPOS>MOLECULE
KAXLOK
    60    60     2
SMALL
NO_CHARGES
****
Generated from CSD

@<TRIPOS>ATOM
      1 C1         6.7285    4.9586   22.4999 C.3       1 RES1    0.0000
      2 C2         7.4080    6.2687   22.9852 C.3       1 RES1    0.0000
      3 C3         7.1079    6.2966   24.3867 C.3       1 RES1    0.0000
      4 C4         7.0854    4.8570   24.9184 C.3       1 RES1    0.0000
      5 C5         5.9557    4.6029   25.8727 C.3       1 RES1    0.0000
      6 C6         7.1289    2.7588   23.6396 C.2       1 RES1    0.0000
      7 C7         6.9415    1.8691   22.6090 C.2       1 RES1    0.0000
      8 C8         6.3312    2.0613   21.2266 C.3       1 RES1    0.0000
      9 C9         5.0001    3.0218   27.2687 C.3       1 RES1    0.0000
     10 N1         6.9267    4.0759   23.6451 N.pl3     1 RES1    0.0000
     11 N2         7.3800    0.5251   22.8680 N.pl3     1 RES1    0.0000
     12 O1         7.8955    0.2401   23.9804 O.2       1 RES1    0.0000
     13 O2         7.2502   -0.3198   21.9873 O.2       1 RES1    0.0000
     14 O3         6.0544    3.3217   26.4317 O.3       1 RES1    0.0000
     15 C10        3.1084   -0.4742   22.3390 C.3       2 RES2    0.0000
     16 C11        3.4785   -1.8412   22.8789 C.3       2 RES2    0.0000
     17 C12        3.0501   -1.7674   24.3104 C.3       2 RES2    0.0000
     18 C13        3.4249   -0.3776   24.7712 C.3       2 RES2    0.0000
     19 C14        4.8314   -0.2560   25.2974 C.3       2 RES2    0.0000
     20 C15        3.1108    1.7356   23.5687 C.2       2 RES2    0.0000
     21 C16        2.8324    2.6342   22.5762 C.2       2 RES2    0.0000
     22 C17        2.5253    2.4180   21.1475 C.3       2 RES2    0.0000
     23 C18        6.1251   -0.9186   27.1351 C.3       2 RES2    0.0000
     24 N3         3.2709    0.4174   23.5306 N.pl3     2 RES2    0.0000
     25 N4         2.8433    4.0141   22.9852 N.pl3     2 RES2    0.0000
     26 O4         2.9514    4.2950   24.2095 O.2       2 RES2    0.0000
     27 O5         2.7609    4.8460   22.0855 O.2       2 RES2    0.0000
     28 O6         4.8718   -0.8708   26.5653 O.3       2 RES2    0.0000
     29 H1         7.1064    4.8420   21.5947 H         1 RES1    0.0000
     30 H2         5.8235    5.3501   22.1945 H         1 RES1    0.0000
     31 H3         8.3892    6.2767   22.7944 H         1 RES1    0.0000
     32 H4         7.0286    7.0638   22.4672 H         1 RES1    0.0000
     33 H5         7.7517    6.8745   24.8393 H         1 RES1    0.0000
     34 H6         6.2045    6.7151   24.4576 H         1 RES1    0.0000
     35 H7         7.8839    4.5929   25.4392 H         1 RES1    0.0000
     36 H8         4.9916    4.6826   25.6573 H         1 RES1    0.0000
     37 H9         5.8002    5.0512   26.7207 H         1 RES1    0.0000
     38 H10        7.4485    2.3413   24.6485 H         1 RES1    0.0000
     39 H11        6.3911    1.2354   20.6949 H         1 RES1    0.0000
     40 H12        6.8809    2.7000   20.6404 H         1 RES1    0.0000
     41 H13        5.4814    2.4110   21.2402 H         1 RES1    0.0000
     42 H14        4.0430    2.9789   26.9115 H         1 RES1    0.0000
     43 H15        5.0071    2.1520   27.6750 H         1 RES1    0.0000
     44 H16        4.7583    3.5269   28.0022 H         1 RES1    0.0000
     45 H17        2.1692   -0.5280   22.0309 H         2 RES2    0.0000
     46 H18        3.7009   -0.1893   21.5674 H         2 RES2    0.0000
     47 H19        2.9856   -2.5605   22.3581 H         2 RES2    0.0000
     48 H20        4.5251   -2.0026   22.7126 H         2 RES2    0.0000
     49 H21        3.5143   -2.4509   24.8121 H         2 RES2    0.0000
     50 H22        1.9982   -1.8930   24.3485 H         2 RES2    0.0000
     51 H23        2.8301   -0.0498   25.5482 H         2 RES2    0.0000
     52 H24        5.6913   -0.4981   24.8121 H         2 RES2    0.0000
     53 H25        5.2637    0.6775   25.6573 H         2 RES2    0.0000
     54 H26        3.2266    2.1620   24.5667 H         2 RES2    0.0000
     55 H27        2.3247    3.1981   20.5858 H         2 RES2    0.0000
     56 H28        1.7727    1.7734   20.9403 H         2 RES2    0.0000
     57 H29        3.2888    1.9727   20.5586 H         2 RES2    0.0000
     58 H30        6.1578   -1.1856   28.0294 H         2 RES2    0.0000
     59 H31        6.5621    0.1793   27.2387 H         2 RES2    0.0000
     60 H32        6.8187   -1.2753   26.5844 H         2 RES2    0.0000
@<TRIPOS>BOND
     1    1    2 1
     2    2    3 1
     3    3    4 1
     4    4    5 1
     5    5   14 1
     6    6    7 2
     7    7    8 1
     8    8   39 1
     9    9   14 1
    10   10    1 1
    11   11    7 1
    12   12   11 2
    13   13   11 2
    14   15   16 1
    15   16   17 1
    16   17   18 1
    17   18   19 1
    18   19   28 1
    19   20   21 2
    20   21   22 1
    21   22   55 1
    22   23   28 1
    23   24   15 1
    24   25   21 1
    25   26   25 2
    26   27   25 2
    27   29    1 1
    28   30    1 1
    29   31    2 1
    30   32    2 1
    31   33    3 1
    32   34    3 1
    33   35    4 1
    34   36    5 1
    35   37    5 1
    36   38    6 1
    37   40    8 1
    38   41    8 1
    39   42    9 1
    40   43    9 1
    41   44    9 1
    42   45   15 1
    43   46   15 1
    44   47   16 1
    45   48   16 1
    46   49   17 1
    47   50   17 1
    48   51   18 1
    49   52   19 1
    50   53   19 1
    51   54   20 1
    52   56   22 1
    53   57   22 1
    54   58   23 1
    55   59   23 1
    56   60   23 1
    57    4   10 1
    58    6   10 1
    59   18   24 1
    60   20   24 1
@<TRIPOS>SUBSTRUCTURE
     1 RES1 1
     2 RES2 15

@<TRIPOS>CRYSIN
   7.7750    9.9630   27.2660  90.0000  90.0000  90.0000  19 1

