# MOL2 file generated by ConQuest
# Please check atom types

@<TRIPOS>MOLECULE
KAXLOL
    24    24     1
SMALL
NO_CHARGES
****
Generated from CSD

@<TRIPOS>ATOM
      1 O1         1.4831    1.4036    3.8740 O.2       1 RES1    0.0000
      2 O2         2.1352    2.8751    2.4303 O.2       1 RES1    0.0000
      3 O3         4.6791    3.1492    3.8315 O.2       1 RES1    0.0000
      4 O4         4.3050    5.1166    3.0227 O.2       1 RES1    0.0000
      5 O5         2.3184    7.5913    7.3435 O.2       1 RES1    0.0000
      6 O6         1.5797    6.1024    8.7295 O.2       1 RES1    0.0000
      7 N1         1.8138    2.5366    3.5535 N.pl3     1 RES1    0.0000
      8 N2         4.0656    4.1969    3.7799 N.pl3     1 RES1    0.0000
      9 N3         1.9680    6.4552    7.6246 N.pl3     1 RES1    0.0000
     10 C1         0.7404    3.6745    5.4692 C.ar      1 RES1    0.0000
     11 C2         1.8348    3.5549    4.6200 C.ar      1 RES1    0.0000
     12 C3         2.9408    4.3820    4.7242 C.ar      1 RES1    0.0000
     13 C4         3.0842    5.3600    5.7038 C.ar      1 RES1    0.0000
     14 C5         1.9782    5.4369    6.5530 C.ar      1 RES1    0.0000
     15 C6         0.8547    4.6549    6.4579 C.ar      1 RES1    0.0000
     16 H1         0.1584    4.7805    7.0605 H         1 RES1    0.0000
     17 C7        -0.5148    2.8528    5.3540 C.3       1 RES1    0.0000
     18 H2        -0.8343    2.8805    4.4492 H         1 RES1    0.0000
     19 H3        -1.1863    3.2099    5.9414 H         1 RES1    0.0000
     20 H4        -0.3262    1.9440    5.5996 H         1 RES1    0.0000
     21 C8         4.3329    6.1601    5.8483 C.3       1 RES1    0.0000
     22 H5         5.0875    5.6239    5.5956 H         1 RES1    0.0000
     23 H6         4.4299    6.4384    6.7622 H         1 RES1    0.0000
     24 H7         4.2848    6.9331    5.2822 H         1 RES1    0.0000
@<TRIPOS>BOND
     1    1    7 2
     2    2    7 2
     3    3    8 2
     4    4    8 2
     5    5    9 2
     6    6    9 2
     7    7   11 1
     8    8   12 1
     9    9   14 1
    10   10   11 ar
    11   11   12 ar
    12   12   13 ar
    13   13   14 ar
    14   14   15 ar
    15   15   10 ar
    16   16   15 1
    17   17   10 1
    18   18   17 1
    19   19   17 1
    20   20   17 1
    21   21   13 1
    22   22   21 1
    23   23   21 1
    24   24   21 1
@<TRIPOS>SUBSTRUCTURE
     1 RES1 1

