# MOL2 file generated by ConQuest
# Please check atom types

@<TRIPOS>MOLECULE
KAXMOM02
   106   110     1
SMALL
NO_CHARGES
****
Generated from CSD

@<TRIPOS>ATOM
      1 C1         4.3725   11.2863    5.9544 C.3       1 RES1    0.0000
      2 H1         4.6675   11.7917    6.7526 H         1 RES1    0.0000
      3 H2         5.1630   11.1836    5.3670 H         1 RES1    0.0000
      4 C2         3.9500    9.8932    6.4153 C.ar      1 RES1    0.0000
      5 C3         3.2404    8.9826    5.5950 C.ar      1 RES1    0.0000
      6 C4         2.9055    7.6830    6.0306 C.ar      1 RES1    0.0000
      7 C5         3.2767    7.2952    7.3243 C.ar      1 RES1    0.0000
      8 H3         3.0606    6.4292    7.6495 H         1 RES1    0.0000
      9 C6         3.9674    8.1981    8.1243 C.ar      1 RES1    0.0000
     10 C7         4.3113    9.4785    7.6947 C.ar      1 RES1    0.0000
     11 H4         4.7892   10.0637    8.2701 H         1 RES1    0.0000
     12 O1         2.7696    9.3947    4.3646 O.3       1 RES1    0.0000
     13 C8         3.7140    9.3642    3.2953 C.3       1 RES1    0.0000
     14 H5         4.0183    8.4345    3.1412 H         1 RES1    0.0000
     15 H6         4.5027    9.9164    3.5258 H         1 RES1    0.0000
     16 C9         3.0586    9.9021    2.0525 C.2       1 RES1    0.0000
     17 H7         3.5757    9.9041    1.2557 H         1 RES1    0.0000
     18 C10        1.8327   10.3689    1.9732 C.2       1 RES1    0.0000
     19 H8         1.2800   10.3856    2.7454 H         1 RES1    0.0000
     20 H9         1.4995   10.6901    1.1433 H         1 RES1    0.0000
     21 N1         4.3530    7.7879    9.4818 N.pl3     1 RES1    0.0000
     22 O2         5.2216    8.4484   10.0664 O.2       1 RES1    0.0000
     23 O3         3.7974    6.8076    9.9799 O.2       1 RES1    0.0000
     24 C11        2.1394    6.7116    5.1333 C.3       1 RES1    0.0000
     25 H10        2.2551    6.9822    4.1887 H         1 RES1    0.0000
     26 H11        2.5207    5.8042    5.2381 H         1 RES1    0.0000
     27 C12        0.6490    6.6700    5.4631 C.ar      1 RES1    0.0000
     28 C13       -0.2961    7.3834    4.7085 C.ar      1 RES1    0.0000
     29 C14       -1.6422    7.4514    5.0968 C.ar      1 RES1    0.0000
     30 C15       -2.0536    6.7004    6.2017 C.ar      1 RES1    0.0000
     31 H12       -2.9668    6.7258    6.4608 H         1 RES1    0.0000
     32 C16       -1.1582    5.9077    6.9418 C.ar      1 RES1    0.0000
     33 C17        0.1909    5.9346    6.5631 C.ar      1 RES1    0.0000
     34 H13        0.8181    5.4350    7.0722 H         1 RES1    0.0000
     35 O4         0.1385    8.1015    3.5856 O.3       1 RES1    0.0000
     36 C18       -0.2012    7.4897    2.3447 C.3       1 RES1    0.0000
     37 H14        0.0419    8.0971    1.6021 H         1 RES1    0.0000
     38 H15       -1.1793    7.3411    2.3093 H         1 RES1    0.0000
     39 C19        0.4983    6.1964    2.1693 C.1       1 RES1    0.0000
     40 N2         1.0567    5.2003    2.0608 N.1       1 RES1    0.0000
     41 C20       -1.5963    5.0573    8.1468 C.3       1 RES1    0.0000
     42 C21       -1.1206    3.5976    7.9372 C.3       1 RES1    0.0000
     43 H16       -0.1470    3.5843    7.8268 H         1 RES1    0.0000
     44 H17       -1.5452    3.2275    7.1350 H         1 RES1    0.0000
     45 H18       -1.3695    3.0586    8.7165 H         1 RES1    0.0000
     46 C22       -0.9183    5.5901    9.4191 C.3       1 RES1    0.0000
     47 H19        0.0535    5.5966    9.2928 H         1 RES1    0.0000
     48 H20       -1.1451    5.0122   10.1773 H         1 RES1    0.0000
     49 H21       -1.2299    6.5022    9.5979 H         1 RES1    0.0000
     50 C23       -3.1180    5.0391    8.3268 C.3       1 RES1    0.0000
     51 H22       -3.3490    4.4881    9.1041 H         1 RES1    0.0000
     52 H23       -3.5375    4.6631    7.5247 H         1 RES1    0.0000
     53 H24       -3.4413    5.9526    8.4670 H         1 RES1    0.0000
     54 C1A       -2.6639    8.3075    4.3548 C.3       1 RES1    0.0000
     55 H1A       -2.9589    7.8022    3.5567 H         1 RES1    0.0000
     56 H2A       -3.4544    8.4103    4.9423 H         1 RES1    0.0000
     57 C2A       -2.2414    9.7007    3.8939 C.ar      1 RES1    0.0000
     58 C3A       -1.5318   10.6113    4.7142 C.ar      1 RES1    0.0000
     59 C4A       -1.1969   11.9109    4.2787 C.ar      1 RES1    0.0000
     60 C5A       -1.5681   12.2987    2.9849 C.ar      1 RES1    0.0000
     61 H3A       -1.3520   13.1646    2.6598 H         1 RES1    0.0000
     62 C6A       -2.2588   11.3957    2.1849 C.ar      1 RES1    0.0000
     63 C7A       -2.6027   10.1154    2.6145 C.ar      1 RES1    0.0000
     64 H4A       -3.0806    9.5302    2.0392 H         1 RES1    0.0000
     65 O1A       -1.0610   10.1991    5.9446 O.3       1 RES1    0.0000
     66 C8A       -2.0054   10.2296    7.0140 C.3       1 RES1    0.0000
     67 H5A       -2.3097   11.1594    7.1680 H         1 RES1    0.0000
     68 H6A       -2.7941    9.6775    6.7835 H         1 RES1    0.0000
     69 C9A       -1.3500    9.6918    8.2568 C.2       1 RES1    0.0000
     70 H7A       -1.8671    9.6898    9.0536 H         1 RES1    0.0000
     71 C10A      -0.1241    9.2250    8.3361 C.2       1 RES1    0.0000
     72 H8A        0.4286    9.2083    7.5639 H         1 RES1    0.0000
     73 H9A        0.2091    8.9037    9.1660 H         1 RES1    0.0000
     74 N1A       -2.6444   11.8060    0.8274 N.pl3     1 RES1    0.0000
     75 O2A       -3.5130   11.1454    0.2429 O.2       1 RES1    0.0000
     76 O3A       -2.0888   12.7863    0.3294 O.2       1 RES1    0.0000
     77 C11A      -0.4308   12.8823    5.1760 C.3       1 RES1    0.0000
     78 H10A      -0.5465   12.6117    6.1206 H         1 RES1    0.0000
     79 H11A      -0.8121   13.7897    5.0711 H         1 RES1    0.0000
     80 C12A       1.0596   12.9239    4.8462 C.ar      1 RES1    0.0000
     81 C13A       2.0047   12.2105    5.6007 C.ar      1 RES1    0.0000
     82 C14A       3.3508   12.1425    5.2125 C.ar      1 RES1    0.0000
     83 C15A       3.7622   12.8935    4.1075 C.ar      1 RES1    0.0000
     84 H12A       4.6754   12.8680    3.8484 H         1 RES1    0.0000
     85 C16A       2.8668   13.6861    3.3674 C.ar      1 RES1    0.0000
     86 C17A       1.5177   13.6592    3.7462 C.ar      1 RES1    0.0000
     87 H13A       0.8905   14.1589    3.2371 H         1 RES1    0.0000
     88 O4A        1.5701   11.4924    6.7237 O.3       1 RES1    0.0000
     89 C18A       1.9098   12.1042    7.9645 C.3       1 RES1    0.0000
     90 H14A       1.6667   11.4967    8.7072 H         1 RES1    0.0000
     91 H15A       2.8879   12.2527    8.0000 H         1 RES1    0.0000
     92 C19A       1.2103   13.3975    8.1400 C.1       1 RES1    0.0000
     93 N2A        0.6519   14.3935    8.2484 N.1       1 RES1    0.0000
     94 C20A       3.3049   14.5366    2.1625 C.3       1 RES1    0.0000
     95 C21A       2.8292   15.9962    2.3721 C.3       1 RES1    0.0000
     96 H16A       1.8556   16.0096    2.4825 H         1 RES1    0.0000
     97 H17A       3.2538   16.3663    3.1742 H         1 RES1    0.0000
     98 H18A       3.0781   16.5353    1.5928 H         1 RES1    0.0000
     99 C22A       2.6269   14.0038    0.8902 C.3       1 RES1    0.0000
    100 H19A       1.6551   13.9972    1.0165 H         1 RES1    0.0000
    101 H20A       2.8537   14.5817    0.1320 H         1 RES1    0.0000
    102 H21A       2.9385   13.0917    0.7113 H         1 RES1    0.0000
    103 C23A       4.8266   14.5548    1.9825 C.3       1 RES1    0.0000
    104 H22A       5.0576   15.1058    1.2052 H         1 RES1    0.0000
    105 H23A       5.2461   14.9308    2.7845 H         1 RES1    0.0000
    106 H24A       5.1499   13.6413    1.8423 H         1 RES1    0.0000
@<TRIPOS>BOND
     1    1    2 1
     2    3    1 1
     3    4    1 1
     4    5    4 ar
     5    6    5 ar
     6    7    6 ar
     7    8    7 1
     8    9    7 ar
     9   10    4 ar
    10   11   10 1
    11   12    5 1
    12   13   12 1
    13   14   13 1
    14   15   13 1
    15   16   13 1
    16   17   16 1
    17   18   16 2
    18   19   18 1
    19   20   18 1
    20   21    9 1
    21   22   21 2
    22   23   21 2
    23   24    6 1
    24   25   24 1
    25   26   24 1
    26   27   24 1
    27   28   27 ar
    28   29   28 ar
    29   30   29 ar
    30   31   30 1
    31   32   30 ar
    32   33   27 ar
    33   34   33 1
    34   35   28 1
    35   36   35 1
    36   37   36 1
    37   38   36 1
    38   39   36 1
    39   40   39 3
    40   41   32 1
    41   42   41 1
    42   43   42 1
    43   44   42 1
    44   45   42 1
    45   46   41 1
    46   47   46 1
    47   48   46 1
    48   49   46 1
    49   50   41 1
    50   51   50 1
    51   52   50 1
    52   53   50 1
    53   54   29 1
    54   55   54 1
    55   56   54 1
    56   57   54 1
    57   58   57 ar
    58   59   58 ar
    59   60   59 ar
    60   61   60 1
    61   62   60 ar
    62   63   57 ar
    63   64   63 1
    64   65   58 1
    65   66   65 1
    66   67   66 1
    67   68   66 1
    68   69   66 1
    69   70   69 1
    70   71   69 2
    71   72   71 1
    72   73   71 1
    73   74   62 1
    74   75   74 2
    75   76   74 2
    76   77   59 1
    77   78   77 1
    78   79   77 1
    79   80   77 1
    80   81   80 ar
    81   82    1 1
    82   83   82 ar
    83   84   83 1
    84   85   83 ar
    85   86   80 ar
    86   87   86 1
    87   88   81 1
    88   89   88 1
    89   90   89 1
    90   91   89 1
    91   92   89 1
    92   93   92 3
    93   94   85 1
    94   95   94 1
    95   96   95 1
    96   97   95 1
    97   98   95 1
    98   99   94 1
    99  100   99 1
   100  101   99 1
   101  102   99 1
   102  103   94 1
   103  104  103 1
   104  105  103 1
   105  106  103 1
   106    9   10 ar
   107   32   33 ar
   108   62   63 ar
   109   81   82 ar
   110   85   86 ar
@<TRIPOS>SUBSTRUCTURE
     1 RES1 1

@<TRIPOS>CRYSIN
   9.7498   10.6228   11.0306  92.2240 109.7760 101.7020   2 1

