# MOL2 file generated by ConQuest
# Please check atom types

@<TRIPOS>MOLECULE
KAXMOM
   106   110     1
SMALL
NO_CHARGES
****
Generated from CSD

@<TRIPOS>ATOM
      1 C1        -4.2157    7.6464    5.1568 C.3       1 RES1    0.0000
      2 H1        -4.3323    7.3745    6.1013 H         1 RES1    0.0000
      3 H2        -4.5965    8.5545    5.0528 H         1 RES1    0.0000
      4 C2        -2.7330    7.6880    4.8299 C.ar      1 RES1    0.0000
      5 C3        -1.7923    6.9805    5.5808 C.ar      1 RES1    0.0000
      6 C4        -0.4551    6.9122    5.1921 C.ar      1 RES1    0.0000
      7 C5        -0.0467    7.6610    4.0957 C.ar      1 RES1    0.0000
      8 H3         0.8673    7.6356    3.8366 H         1 RES1    0.0000
      9 C6        -0.9345    8.4491    3.3617 C.ar      1 RES1    0.0000
     10 C7        -2.2732    8.4200    3.7329 C.ar      1 RES1    0.0000
     11 H4        -2.9004    8.9177    3.2208 H         1 RES1    0.0000
     12 C8        -0.4976    9.2945    2.1558 C.3       1 RES1    0.0000
     13 C9        -1.1674    8.7597    0.8851 C.3       1 RES1    0.0000
     14 H5        -0.8798    7.8362    0.7278 H         1 RES1    0.0000
     15 H6        -0.9104    9.3169    0.1213 H         1 RES1    0.0000
     16 H7        -2.1416    8.7843    0.9941 H         1 RES1    0.0000
     17 C10       -0.9707   10.7420    2.3634 C.3       1 RES1    0.0000
     18 H8        -0.5515   11.1103    3.1684 H         1 RES1    0.0000
     19 H9        -1.9452   10.7559    2.4662 H         1 RES1    0.0000
     20 H10       -0.7169   11.2831    1.5862 H         1 RES1    0.0000
     21 C11        1.0225    9.3150    1.9790 C.3       1 RES1    0.0000
     22 H11        1.4404    9.6832    2.7849 H         1 RES1    0.0000
     23 H12        1.2545    9.8721    1.2069 H         1 RES1    0.0000
     24 H13        1.3461    8.4018    1.8309 H         1 RES1    0.0000
     25 O1        -2.2272    6.2661    6.7004 O.3       1 RES1    0.0000
     26 C12       -1.8870    6.8706    7.9327 C.3       1 RES1    0.0000
     27 H14       -0.9099    7.0209    7.9662 H         1 RES1    0.0000
     28 H15       -2.1285    6.2611    8.6745 H         1 RES1    0.0000
     29 C13       -2.5852    8.1571    8.1111 C.1       1 RES1    0.0000
     30 N1        -3.1390    9.1505    8.2191 N.1       1 RES1    0.0000
     31 C14        0.5613    6.0619    5.9358 C.3       1 RES1    0.0000
     32 H16        0.8530    6.5696    6.7336 H         1 RES1    0.0000
     33 H17        1.3531    5.9578    5.3509 H         1 RES1    0.0000
     34 C15        0.1421    4.6748    6.3975 C.ar      1 RES1    0.0000
     35 C16       -0.5611    3.7704    5.5820 C.ar      1 RES1    0.0000
     36 C17       -4.9768    6.6816    4.2632 C.ar      1 RES1    0.0000
     37 C18       -5.3511    7.0603    2.9746 C.ar      1 RES1    0.0000
     38 H18       -5.1350    7.9264    2.6482 H         1 RES1    0.0000
     39 C19       -6.0348    6.1711    2.1807 C.ar      1 RES1    0.0000
     40 C20        0.5020    4.2657    7.6671 C.ar      1 RES1    0.0000
     41 H19        0.9793    4.8532    8.2417 H         1 RES1    0.0000
     42 N2        -6.4185    6.5727    0.8230 N.pl3     1 RES1    0.0000
     43 O2        -5.8701    7.5489    0.3260 O.2       1 RES1    0.0000
     44 O3        -7.2792    5.9146    0.2426 O.2       1 RES1    0.0000
     45 O4        -1.0290    4.1766    4.3540 O.3       1 RES1    0.0000
     46 C21       -0.0907    4.1470    3.2846 C.3       1 RES1    0.0000
     47 H20        0.2149    3.2179    3.1314 H         1 RES1    0.0000
     48 H21        0.6974    4.7001    3.5128 H         1 RES1    0.0000
     49 C22       -0.7433    4.6780    2.0499 C.2       1 RES1    0.0000
     50 H22       -0.2279    4.6740    1.2532 H         1 RES1    0.0000
     51 C23       -1.9606    5.1469    1.9687 C.2       1 RES1    0.0000
     52 H23       -2.5132    5.1703    2.7407 H         1 RES1    0.0000
     53 H24       -2.2926    5.4646    1.1370 H         1 RES1    0.0000
     54 C1A       -1.6577    1.5115    5.1235 C.3       1 RES1    0.0000
     55 H1A       -1.5411    1.7834    4.1789 H         1 RES1    0.0000
     56 H2A       -1.2769    0.6034    5.2275 H         1 RES1    0.0000
     57 C2A       -3.1404    1.4699    5.4504 C.ar      1 RES1    0.0000
     58 C3A       -4.0811    2.1774    4.6995 C.ar      1 RES1    0.0000
     59 C4A       -5.4184    2.2457    5.0882 C.ar      1 RES1    0.0000
     60 C5A       -5.8267    1.4969    6.1846 C.ar      1 RES1    0.0000
     61 H3A       -6.7407    1.5223    6.4437 H         1 RES1    0.0000
     62 C6A       -4.9390    0.7088    6.9186 C.ar      1 RES1    0.0000
     63 C7A       -3.6002    0.7379    6.5474 C.ar      1 RES1    0.0000
     64 H4A       -2.9730    0.2402    7.0595 H         1 RES1    0.0000
     65 C8A       -5.3758   -0.1366    8.1245 C.3       1 RES1    0.0000
     66 C9A       -4.7061    0.3982    9.3952 C.3       1 RES1    0.0000
     67 H5A       -4.9936    1.3217    9.5524 H         1 RES1    0.0000
     68 H6A       -4.9630   -0.1590   10.1590 H         1 RES1    0.0000
     69 H7A       -3.7318    0.3736    9.2862 H         1 RES1    0.0000
     70 C10A      -4.9027   -1.5841    7.9168 C.3       1 RES1    0.0000
     71 H8A       -5.3219   -1.9524    7.1119 H         1 RES1    0.0000
     72 H9A       -3.9282   -1.5980    7.8140 H         1 RES1    0.0000
     73 H10A      -5.1565   -2.1252    8.6940 H         1 RES1    0.0000
     74 C11A      -6.8959   -0.1571    8.3013 C.3       1 RES1    0.0000
     75 H11A      -7.3138   -0.5253    7.4954 H         1 RES1    0.0000
     76 H12A      -7.1280   -0.7142    9.0734 H         1 RES1    0.0000
     77 H13A      -7.2195    0.7561    8.4494 H         1 RES1    0.0000
     78 O1A       -3.6462    2.8918    3.5799 O.3       1 RES1    0.0000
     79 C12A      -3.9864    2.2873    2.3476 C.3       1 RES1    0.0000
     80 H14A      -4.9635    2.1370    2.3141 H         1 RES1    0.0000
     81 H15A      -3.7449    2.8968    1.6058 H         1 RES1    0.0000
     82 C13A      -3.2882    1.0008    2.1691 C.1       1 RES1    0.0000
     83 N1A       -2.7344    0.0074    2.0612 N.1       1 RES1    0.0000
     84 C14A      -6.4347    3.0960    4.3444 C.3       1 RES1    0.0000
     85 H16A      -6.7264    2.5883    3.5467 H         1 RES1    0.0000
     86 H17A      -7.2265    3.2001    4.9294 H         1 RES1    0.0000
     87 C15A      -6.0155    4.4831    3.8828 C.ar      1 RES1    0.0000
     88 C16A      -5.3124    5.3875    4.6983 C.ar      1 RES1    0.0000
     89 C17A      -0.8966    2.4763    6.0171 C.ar      1 RES1    0.0000
     90 C18A      -0.5223    2.0976    7.3057 C.ar      1 RES1    0.0000
     91 H18A      -0.7384    1.2315    7.6321 H         1 RES1    0.0000
     92 C19A       0.1613    2.9868    8.0996 C.ar      1 RES1    0.0000
     93 C20A      -6.3754    4.8922    2.6131 C.ar      1 RES1    0.0000
     94 H19A      -6.8527    4.3047    2.0386 H         1 RES1    0.0000
     95 N2A        0.5451    2.5852    9.4572 N.pl3     1 RES1    0.0000
     96 O2A       -0.0033    1.6090    9.9543 O.2       1 RES1    0.0000
     97 O3A        1.4058    3.2433   10.0377 O.2       1 RES1    0.0000
     98 O4A       -4.8444    4.9813    5.9263 O.3       1 RES1    0.0000
     99 C21A      -5.7827    5.0109    6.9957 C.3       1 RES1    0.0000
    100 H20A      -6.0883    5.9400    7.1489 H         1 RES1    0.0000
    101 H21A      -6.5708    4.4578    6.7675 H         1 RES1    0.0000
    102 C22A      -5.1301    4.4799    8.2304 C.2       1 RES1    0.0000
    103 H22A      -5.6455    4.4839    9.0271 H         1 RES1    0.0000
    104 C23A      -3.9128    4.0110    8.3116 C.2       1 RES1    0.0000
    105 H23A      -3.3602    3.9876    7.5396 H         1 RES1    0.0000
    106 H24A      -3.5808    3.6933    9.1433 H         1 RES1    0.0000
@<TRIPOS>BOND
     1    1    2 1
     2    3    1 1
     3    4    1 1
     4    5    4 ar
     5    6    5 ar
     6    7    6 ar
     7    8    7 1
     8    9    7 ar
     9   10    4 ar
    10   11   10 1
    11   12    9 1
    12   13   12 1
    13   14   13 1
    14   15   13 1
    15   16   13 1
    16   17   12 1
    17   18   17 1
    18   19   17 1
    19   20   17 1
    20   21   12 1
    21   22   21 1
    22   23   21 1
    23   24   21 1
    24   25    5 1
    25   26   25 1
    26   27   26 1
    27   28   26 1
    28   29   26 1
    29   30   29 3
    30   31    6 1
    31   32   31 1
    32   33   31 1
    33   34   31 1
    34   35   34 ar
    35   36    1 1
    36   37   36 ar
    37   38   37 1
    38   39   37 ar
    39   40   34 ar
    40   41   40 1
    41   42   39 1
    42   43   42 2
    43   44   42 2
    44   45   35 1
    45   46   45 1
    46   47   46 1
    47   48   46 1
    48   49   46 1
    49   50   49 1
    50   51   49 2
    51   52   51 1
    52   53   51 1
    53   54   55 1
    54   56   54 1
    55   57   54 1
    56   58   57 ar
    57   59   58 ar
    58   60   59 ar
    59   61   60 1
    60   62   60 ar
    61   63   57 ar
    62   64   63 1
    63   65   62 1
    64   66   65 1
    65   67   66 1
    66   68   66 1
    67   69   66 1
    68   70   65 1
    69   71   70 1
    70   72   70 1
    71   73   70 1
    72   74   65 1
    73   75   74 1
    74   76   74 1
    75   77   74 1
    76   78   58 1
    77   79   78 1
    78   80   79 1
    79   81   79 1
    80   82   79 1
    81   83   82 3
    82   84   59 1
    83   85   84 1
    84   86   84 1
    85   87   84 1
    86   88   36 ar
    87   89   35 ar
    88   90   89 ar
    89   91   90 1
    90   92   40 ar
    91   93   39 ar
    92   94   93 1
    93   95   92 1
    94   96   95 2
    95   97   95 2
    96   98   88 1
    97   99   98 1
    98  100   99 1
    99  101   99 1
   100  102   99 1
   101  103  102 1
   102  104  102 2
   103  105  104 1
   104  106  104 1
   105    9   10 ar
   106   54   89 1
   107   62   63 ar
   108   87   88 ar
   109   87   93 ar
   110   90   92 ar
@<TRIPOS>SUBSTRUCTURE
     1 RES1 1

@<TRIPOS>CRYSIN
   9.7073   10.5690   10.9986  92.1260 109.7910 101.7340   2 1

