# MOL2 file generated by ConQuest
# Please check atom types

@<TRIPOS>MOLECULE
KAXMOM01
   110   110     2
SMALL
NO_CHARGES
****
Generated from CSD

@<TRIPOS>ATOM
      1 C1         1.6747    9.8812   12.6454 C.3       1 RES1    0.0000
      2 H1         2.3384   10.3363   12.1027 H         1 RES1    0.0000
      3 H2         1.1248   10.5538   13.0760 H         1 RES1    0.0000
      4 C2         2.3708    9.0418   13.6996 C.ar      1 RES1    0.0000
      5 C3         3.4032    8.1671   13.3308 C.ar      1 RES1    0.0000
      6 C4         3.9213    7.2117   14.2120 C.ar      1 RES1    0.0000
      7 C5         3.4453    7.1998   15.5019 C.ar      1 RES1    0.0000
      8 H3         3.7595    6.5685   16.1088 H         1 RES1    0.0000
      9 C6         2.5011    8.1253   15.8943 C.ar      1 RES1    0.0000
     10 C7         1.9471    9.0337   15.0137 C.ar      1 RES1    0.0000
     11 H4         1.2954    9.6322   15.3022 H         1 RES1    0.0000
     12 N1         2.0511    8.1409   17.2864 N.pl3     1 RES1    0.0000
     13 O1         1.4009    9.0918   17.6786 O.2       1 RES1    0.0000
     14 O2         2.3588    7.2231   18.0134 O.2       1 RES1    0.0000
     15 O3         3.8590    8.2084   12.0338 O.3       1 RES1    0.0000
     16 C8         5.0038    9.0629   11.8804 C.3       1 RES1    0.0000
     17 H5         4.7609    9.9669   12.1313 H         1 RES1    0.0000
     18 H6         5.7053    8.7652   12.4799 H         1 RES1    0.0000
     19 C9         5.4885    9.0643   10.5770 C.2       1 RES1    0.0000
     20 H7         5.1322    8.3843   10.0516 H         1 RES1    0.0000
     21 C10        6.2216    9.7152   10.0230 C.2       1 RES1    0.0000
     22 H8         6.6348   10.4247   10.4591 H         1 RES1    0.0000
     23 H9         6.4132    9.5428    9.1305 H         1 RES1    0.0000
     24 C11        4.9416    6.1808   13.7582 C.3       1 RES1    0.0000
     25 H10        5.2092    6.3896   12.8487 H         1 RES1    0.0000
     26 H11        5.7283    6.2552   14.3205 H         1 RES1    0.0000
     27 C12        4.4525    4.7554   13.8016 C.ar      1 RES1    0.0000
     28 C13        3.2055    4.3938   13.3022 C.ar      1 RES1    0.0000
     29 C14        2.6992    3.0988   13.4320 C.ar      1 RES1    0.0000
     30 C15        3.5683    2.1367   13.9357 C.ar      1 RES1    0.0000
     31 H12        3.2616    1.2619   14.0123 H         1 RES1    0.0000
     32 C16        4.8740    2.4148   14.3319 C.ar      1 RES1    0.0000
     33 C17        5.2732    3.7423   14.2945 C.ar      1 RES1    0.0000
     34 H13        6.1190    3.9647   14.6101 H         1 RES1    0.0000
     35 C18        5.8345    1.2915   14.7414 C.3       1 RES1    0.0000
     36 C19        6.2748    0.5904   13.4700 C.3       1 RES1    0.0000
     37 H14        5.5021    0.3084   12.9766 H         1 RES1    0.0000
     38 H15        6.8081   -0.1756   13.6957 H         1 RES1    0.0000
     39 H16        6.7934    1.1954   12.9345 H         1 RES1    0.0000
     40 C20        5.0904    0.2290   15.5279 C.3       1 RES1    0.0000
     41 H17        4.3555   -0.1021   15.0058 H         1 RES1    0.0000
     42 H18        4.7547    0.6088   16.3446 H         1 RES1    0.0000
     43 H19        5.6871   -0.4947   15.7350 H         1 RES1    0.0000
     44 C21        6.9607    1.7655   15.5834 C.3       1 RES1    0.0000
     45 H20        7.5263    1.0230   15.8091 H         1 RES1    0.0000
     46 H21        6.6158    2.1618   16.3867 H         1 RES1    0.0000
     47 H22        7.4708    2.4189   15.0968 H         1 RES1    0.0000
     48 O4         2.4290    5.3926   12.7084 O.3       1 RES1    0.0000
     49 C22        2.4278    5.3734   11.2966 C.3       1 RES1    0.0000
     50 H23        1.9555    6.1563   10.9710 H         1 RES1    0.0000
     51 H24        1.9453    4.5893   10.9929 H         1 RES1    0.0000
     52 C23        3.7731    5.3570   10.7201 C.1       1 RES1    0.0000
     53 N2         4.8296    5.3091   10.2874 N.1       1 RES1    0.0000
     54 C24        1.2726    2.7420   13.0448 C.3       1 RES1    0.0000
     55 H25        1.2032    2.7215   12.0774 H         1 RES1    0.0000
     56 H26        1.0674    1.8533   13.3757 H         1 RES1    0.0000
     57 C25        0.2538    3.7217   13.5945 C.ar      1 RES1    0.0000
     58 C26       -0.5655    4.4842   12.7577 C.ar      1 RES1    0.0000
     59 C27       -1.3451    5.5350   13.2205 C.ar      1 RES1    0.0000
     60 C28       -1.4183    5.7406   14.5901 C.ar      1 RES1    0.0000
     61 H27       -1.9450    6.4226   14.9385 H         1 RES1    0.0000
     62 C29       -0.6929    4.9135   15.4314 C.ar      1 RES1    0.0000
     63 C30        0.1622    3.9382   14.9610 C.ar      1 RES1    0.0000
     64 H28        0.6697    3.4317   15.5531 H         1 RES1    0.0000
     65 N3        -0.8197    5.1026   16.8819 N.pl3     1 RES1    0.0000
     66 O5        -0.2267    4.3575   17.6242 O.2       1 RES1    0.0000
     67 O6        -1.5413    5.9603   17.2991 O.2       1 RES1    0.0000
     68 O7        -0.5436    4.2429   11.4026 O.3       1 RES1    0.0000
     69 C31       -1.4857    3.2060   11.0300 C.3       1 RES1    0.0000
     70 H29       -1.2699    2.4424   11.5874 H         1 RES1    0.0000
     71 H30       -2.3534    3.5207   11.3297 H         1 RES1    0.0000
     72 C32       -1.6452    2.8098   10.0465 C.2       1 RES1    0.0000
     73 H31       -1.9451    3.4146    9.4050 H         1 RES1    0.0000
     74 H32       -0.9856    2.2642    9.6828 Du        2 SUP2    0.0000
     75 C33       -1.4474    1.4570    9.5969 C.2       1 RES1    0.0000
     76 H33       -1.1479    0.8080   10.1930 H         1 RES1    0.0000
     77 H34       -1.6204    1.2314    8.7112 H         1 RES1    0.0000
     78 C34       -2.8506    3.0830    9.2332 Du        2 SUP2    0.0000
     79 H35       -3.5262    3.6255    9.5717 Du        2 SUP2    0.0000
     80 H36       -2.9331    2.7114    8.3845 Du        2 SUP2    0.0000
     81 C35       -2.0252    6.4979   12.2596 C.3       1 RES1    0.0000
     82 H37       -2.6548    7.0520   12.7476 H         1 RES1    0.0000
     83 H38       -2.5196    5.9950   11.5941 H         1 RES1    0.0000
     84 C36       -0.9994    7.3842   11.5694 C.ar      1 RES1    0.0000
     85 C37       -0.2999    8.3549   12.2901 C.ar      1 RES1    0.0000
     86 C38        0.8070    9.0070   11.7590 C.ar      1 RES1    0.0000
     87 C39        1.1239    8.7788   10.4194 C.ar      1 RES1    0.0000
     88 H39        1.8571    9.2130   10.0449 H         1 RES1    0.0000
     89 C40        0.3648    7.9121    9.6281 C.ar      1 RES1    0.0000
     90 C41       -0.6558    7.2078   10.2404 C.ar      1 RES1    0.0000
     91 H40       -1.1322    6.5870    9.7367 H         1 RES1    0.0000
     92 C42        0.6800    7.7000    8.1309 C.3       1 RES1    0.0000
     93 C43        1.8816    8.5675    7.6722 C.3       1 RES1    0.0000
     94 H41        1.6819    9.4953    7.8203 H         1 RES1    0.0000
     95 H42        2.0429    8.4216    6.7375 H         1 RES1    0.0000
     96 H43        2.6621    8.3245    8.1740 H         1 RES1    0.0000
     97 C44       -0.4728    8.2213    7.3421 C.3       1 RES1    0.0000
     98 H44       -0.6386    9.1346    7.5846 H         1 RES1    0.0000
     99 H45       -1.2530    7.6937    7.5307 H         1 RES1    0.0000
    100 H46       -0.2696    8.1694    6.4058 H         1 RES1    0.0000
    101 C45        1.0562    6.2861    7.8810 C.3       1 RES1    0.0000
    102 H47        1.2603    6.1690    6.9497 H         1 RES1    0.0000
    103 H48        0.3253    5.7125    8.1218 H         1 RES1    0.0000
    104 H49        1.8263    6.0622    8.4080 H         1 RES1    0.0000
    105 O8        -0.6589    8.6387   13.6038 O.3       1 RES1    0.0000
    106 C46       -1.7472    9.5242   13.7457 C.3       1 RES1    0.0000
    107 H50       -1.8447    9.7440   14.6859 H         1 RES1    0.0000
    108 H51       -2.5548    9.0659   13.4667 H         1 RES1    0.0000
    109 C47       -1.6301   10.7597   12.9901 C.1       1 RES1    0.0000
    110 N4        -1.5641   11.7177   12.3940 N.1       1 RES1    0.0000
@<TRIPOS>BOND
     1    1    2 1
     2    3    1 1
     3    4    1 1
     4    5    4 ar
     5    6    5 ar
     6    7    6 ar
     7    8    7 1
     8    9    7 ar
     9   10    4 ar
    10   11   10 1
    11   12    9 1
    12   13   12 2
    13   14   12 2
    14   15    5 1
    15   16   15 1
    16   17   16 1
    17   18   16 1
    18   19   16 1
    19   20   19 1
    20   21   19 2
    21   22   21 1
    22   23   21 1
    23   24    6 1
    24   25   24 1
    25   26   24 1
    26   27   24 1
    27   28   27 ar
    28   29   28 ar
    29   30   29 ar
    30   31   30 1
    31   32   30 ar
    32   33   27 ar
    33   34   33 1
    34   35   32 1
    35   36   35 1
    36   37   36 1
    37   38   36 1
    38   39   36 1
    39   40   35 1
    40   41   40 1
    41   42   40 1
    42   43   40 1
    43   44   35 1
    44   45   44 1
    45   46   44 1
    46   47   44 1
    47   48   28 1
    48   49   48 1
    49   50   49 1
    50   51   49 1
    51   52   49 1
    52   53   52 3
    53   54   29 1
    54   55   54 1
    55   56   54 1
    56   57   54 1
    57   58   57 ar
    58   59   58 ar
    59   60   59 ar
    60   61   60 1
    61   62   60 ar
    62   63   57 ar
    63   64   63 1
    64   65   62 1
    65   66   65 2
    66   67   65 2
    67   68   58 1
    68   69   68 1
    69   70   69 1
    70   71   69 1
    71   72   69 1
    72   73   72 1
    73   75   72 2
    74   76   75 1
    75   77   75 1
    76   81   59 1
    77   82   81 1
    78   83   81 1
    79   84   81 1
    80   85   84 ar
    81   86    1 1
    82   87   86 ar
    83   88   87 1
    84   89   87 ar
    85   90   84 ar
    86   91   90 1
    87   92   89 1
    88   93   92 1
    89   94   93 1
    90   95   93 1
    91   96   93 1
    92   97   92 1
    93   98   97 1
    94   99   97 1
    95  100   97 1
    96  101   92 1
    97  102  101 1
    98  103  101 1
    99  104  101 1
   100  105   85 1
   101  106  105 1
   102  107  106 1
   103  108  106 1
   104  109  106 1
   105  110  109 3
   106    9   10 ar
   107   32   33 ar
   108   62   63 ar
   109   85   86 ar
   110   89   90 ar
@<TRIPOS>SUBSTRUCTURE
     1 RES1 1
     2 SUP2 74

@<TRIPOS>CRYSIN
  10.3157   12.4728   17.7530  99.6110 103.8100  99.2450   2 1

