# MOL2 file generated by ConQuest
# Please check atom types

@<TRIPOS>MOLECULE
KAXWEM01
    48    48     1
SMALL
NO_CHARGES
****
Generated from CSD

@<TRIPOS>ATOM
      1 O1         4.3760    1.8299   14.7345 O.3       1 RES1    0.0000
      2 O2         2.7138    3.3560   10.9078 O.2       1 RES1    0.0000
      3 O3         4.2519    2.3330    9.5742 O.3       1 RES1    0.0000
      4 O4         5.0092    5.9134   11.4628 O.2       1 RES1    0.0000
      5 O5         4.1101    6.0191   13.4892 O.3       1 RES1    0.0000
      6 O6         7.2287    1.0878   18.1374 O.2       1 RES1    0.0000
      7 O7         5.0683    1.0926   18.6616 O.3       1 RES1    0.0000
      8 N1         4.4558    1.5765   16.1135 N.2       1 RES1    0.0000
      9 N2         4.8654    3.1242   11.5485 N.am      1 RES1    0.0000
     10 C1         5.7152    2.1204   14.2119 C.3       1 RES1    0.0000
     11 C2         6.6398    1.7710   15.3575 C.3       1 RES1    0.0000
     12 C3         5.6797    1.5345   16.4501 C.2       1 RES1    0.0000
     13 C4         5.7438    3.5625   13.7839 C.3       1 RES1    0.0000
     14 C5         4.6832    3.9035   12.7456 C.3       1 RES1    0.0000
     15 C6         3.8482    2.9813   10.6738 C.2       1 RES1    0.0000
     16 C7         3.3588    2.1288    8.4302 C.3       1 RES1    0.0000
     17 C8         4.2303    1.4192    7.4268 C.3       1 RES1    0.0000
     18 C9         2.9236    3.4628    7.8808 C.3       1 RES1    0.0000
     19 C10        2.1910    1.2355    8.8207 C.3       1 RES1    0.0000
     20 C11        4.6301    5.3815   12.4481 C.2       1 RES1    0.0000
     21 C12        4.0461    7.4792   13.3835 C.3       1 RES1    0.0000
     22 H1         3.7123    7.7205   14.0979 H         1 RES1    0.0000
     23 H2         3.6532    7.7925   12.5738 H         1 RES1    0.0000
     24 H3         4.8447    7.7325   13.2406 H         1 RES1    0.0000
     25 C13        6.0904    1.2199   17.8414 C.2       1 RES1    0.0000
     26 C14        5.4198    0.7276   20.0387 C.3       1 RES1    0.0000
     27 C15        4.1515    0.7204   20.8103 C.3       1 RES1    0.0000
     28 H4         4.5395    0.4082   21.7184 H         1 RES1    0.0000
     29 H5         3.4366    0.4443   20.2895 H         1 RES1    0.0000
     30 H6         4.0373    1.8131   20.6928 H         1 RES1    0.0000
     31 H7         5.8688    1.5729   13.4533 H         1 RES1    0.0000
     32 H8         7.1292    1.0206   15.2378 H         1 RES1    0.0000
     33 H9         7.3360    2.4734   15.5140 H         1 RES1    0.0000
     34 H10        5.6817    4.1664   14.5392 H         1 RES1    0.0000
     35 H11        6.6467    3.7822   13.4882 H         1 RES1    0.0000
     36 H12        3.8403    3.6741   13.0723 H         1 RES1    0.0000
     37 H13        4.5296    0.6964    7.9380 H         1 RES1    0.0000
     38 H14        5.0220    1.9091    7.0680 H         1 RES1    0.0000
     39 H15        3.7025    1.2607    6.6044 H         1 RES1    0.0000
     40 H16        2.2944    3.7942    8.5762 H         1 RES1    0.0000
     41 H17        2.5208    3.3139    7.0172 H         1 RES1    0.0000
     42 H18        3.6434    4.0704    7.9380 H         1 RES1    0.0000
     43 H19        1.6543    1.6450    9.4145 H         1 RES1    0.0000
     44 H20        2.7276    0.5043    9.4938 H         1 RES1    0.0000
     45 H21        1.8020    0.9125    8.0333 H         1 RES1    0.0000
     46 H22        5.8885   -0.3962   20.0673 H         1 RES1    0.0000
     47 H23        6.1248    1.3448   20.3848 H         1 RES1    0.0000
     48 H24        5.7113    3.0138   11.2624 H         1 RES1    0.0000
@<TRIPOS>BOND
     1    1    8 1
     2    2   15 2
     3    3   15 1
     4    4   20 2
     5    5   20 1
     6    6   25 2
     7    7   25 1
     8    8   12 2
     9    9   14 1
    10   10    1 1
    11   11   10 1
    12   12   11 1
    13   13   10 1
    14   14   13 1
    15   15    9 1
    16   16    3 1
    17   17   16 1
    18   18   16 1
    19   19   16 1
    20   20   14 1
    21   21    5 1
    22   22   21 1
    23   23   21 1
    24   24   21 1
    25   25   12 1
    26   26    7 1
    27   27   26 1
    28   28   27 1
    29   29   27 1
    30   30   27 1
    31   31   10 1
    32   32   11 1
    33   33   11 1
    34   34   13 1
    35   35   13 1
    36   36   14 1
    37   37   17 1
    38   38   17 1
    39   39   17 1
    40   40   18 1
    41   41   18 1
    42   42   18 1
    43   43   19 1
    44   44   19 1
    45   45   19 1
    46   46   26 1
    47   47   26 1
    48   48    9 1
@<TRIPOS>SUBSTRUCTURE
     1 RES1 1

@<TRIPOS>CRYSIN
   9.8470   12.0070   31.7520  90.0000  90.0000  90.0000  61 3

