# MOL2 file generated by ConQuest
# Please check atom types

@<TRIPOS>MOLECULE
KAXWEM
    48    48     1
SMALL
NO_CHARGES
****
Generated from CSD

@<TRIPOS>ATOM
      1 O1         4.0603    0.5246   14.6882 O.3       1 RES1    0.0000
      2 N1         4.3220    0.4024   16.0605 N.2       1 RES1    0.0000
      3 C1         4.3859   -0.8365   16.3564 C.2       1 RES1    0.0000
      4 C2         4.1656   -1.7805   15.2261 C.3       1 RES1    0.0000
      5 H1         4.9592   -2.2753   15.0363 H         1 RES1    0.0000
      6 H2         3.4460   -2.4108   15.4160 H         1 RES1    0.0000
      7 C3         3.8048   -0.8089   14.1089 C.3       1 RES1    0.0000
      8 H3         4.4118   -0.8811   13.3434 H         1 RES1    0.0000
      9 C4         2.3569   -0.8569   13.6608 C.3       1 RES1    0.0000
     10 H4         1.7710   -0.7358   14.4351 H         1 RES1    0.0000
     11 H5         2.1696   -1.7234   13.2896 H         1 RES1    0.0000
     12 C5         2.0346    0.2320   12.6331 C.3       1 RES1    0.0000
     13 H6         2.2235    1.0941   13.0049 H         1 RES1    0.0000
     14 C6         0.5487    0.2575   12.3125 C.2       1 RES1    0.0000
     15 O2         0.0325   -0.2154   11.3459 O.2       1 RES1    0.0000
     16 O3        -0.1067    0.8934   13.2919 O.3       1 RES1    0.0000
     17 C7        -1.5487    0.9401   13.1643 C.3       1 RES1    0.0000
     18 H7        -1.7875    1.2286   12.2581 H         1 RES1    0.0000
     19 H8        -1.9140    1.5753   13.8149 H         1 RES1    0.0000
     20 H9        -1.9211    0.0494   13.3308 H         1 RES1    0.0000
     21 N2         2.8271    0.0608   11.4380 N.am      1 RES1    0.0000
     22 H10        3.0088   -0.6971   11.1696 H         1 RES1    0.0000
     23 C8         2.8898    1.0696   10.5441 C.2       1 RES1    0.0000
     24 O4         2.4284    2.1791   10.7532 O.2       1 RES1    0.0000
     25 O5         3.5438    0.6826    9.4379 O.3       1 RES1    0.0000
     26 C9         3.7030    1.6047    8.2902 C.3       1 RES1    0.0000
     27 C10        4.4106    0.7494    7.2622 C.3       1 RES1    0.0000
     28 H11        5.2334    0.3863    7.6510 H         1 RES1    0.0000
     29 H12        4.6310    1.2955    6.4803 H         1 RES1    0.0000
     30 H13        3.8234    0.0116    6.9929 H         1 RES1    0.0000
     31 C11        2.3356    2.0100    7.7805 C.3       1 RES1    0.0000
     32 H14        1.7816    1.2103    7.6605 H         1 RES1    0.0000
     33 H15        2.4309    2.4738    6.9233 H         1 RES1    0.0000
     34 H16        1.9094    2.6083    8.4294 H         1 RES1    0.0000
     35 C12        4.5664    2.7836    8.6921 C.3       1 RES1    0.0000
     36 H17        4.0742    3.3480    9.3249 H         1 RES1    0.0000
     37 H18        4.7962    3.3064    7.8947 H         1 RES1    0.0000
     38 H19        5.3870    2.4573    9.1161 H         1 RES1    0.0000
     39 C13        4.7530   -1.2964   17.7179 C.2       1 RES1    0.0000
     40 O6         4.9501   -2.4571   17.9606 O.2       1 RES1    0.0000
     41 O7         4.8275   -0.3017   18.6039 O.3       1 RES1    0.0000
     42 C14        5.2323   -0.6923   19.9500 C.3       1 RES1    0.0000
     43 H20        6.1535   -1.0457   19.8902 H         1 RES1    0.0000
     44 H21        4.6181   -1.3942   20.2509 H         1 RES1    0.0000
     45 C15        5.1901    0.5441   20.7875 C.3       1 RES1    0.0000
     46 H22        5.7820    1.2219   20.3996 H         1 RES1    0.0000
     47 H23        5.4878    0.3331   21.6969 H         1 RES1    0.0000
     48 H24        4.2735    0.8888   20.8141 H         1 RES1    0.0000
@<TRIPOS>BOND
     1    1    2 1
     2    2    3 2
     3    3    4 1
     4    4    5 1
     5    6    4 1
     6    7    1 1
     7    8    7 1
     8    9    7 1
     9   10    9 1
    10   11    9 1
    11   12    9 1
    12   13   12 1
    13   14   12 1
    14   15   14 2
    15   16   14 1
    16   17   16 1
    17   18   17 1
    18   19   17 1
    19   20   17 1
    20   21   12 1
    21   22   21 1
    22   23   21 1
    23   24   23 2
    24   25   23 1
    25   26   25 1
    26   27   26 1
    27   28   27 1
    28   29   27 1
    29   30   27 1
    30   31   26 1
    31   32   31 1
    32   33   31 1
    33   34   31 1
    34   35   26 1
    35   36   35 1
    36   37   35 1
    37   38   35 1
    38   39    3 1
    39   40   39 2
    40   41   39 1
    41   42   41 1
    42   43   42 1
    43   44   42 1
    44   45   42 1
    45   46   45 1
    46   47   45 1
    47   48   45 1
    48    4    7 1
@<TRIPOS>SUBSTRUCTURE
     1 RES1 1

@<TRIPOS>CRYSIN
  11.7210    9.6820   31.6420  90.0000  90.0000  90.0000  61 1

