# MOL2 file generated by ConQuest
# Please check atom types

@<TRIPOS>MOLECULE
KAYKEB
    46    49     1
SMALL
NO_CHARGES
****
Generated from CSD

@<TRIPOS>ATOM
      1 O1         2.7636    1.9451   12.3359 O.3       1 RES1    0.0000
      2 N1         3.4743    3.1311   11.8915 N.3       1 RES1    0.0000
      3 N2         0.2105    1.3336   14.7710 N.ar      1 RES1    0.0000
      4 C1         2.6470    3.8000   10.8739 C.3       1 RES1    0.0000
      5 C2         3.5559    3.9308   13.1285 C.3       1 RES1    0.0000
      6 C3         2.2279    3.6884   13.8599 C.3       1 RES1    0.0000
      7 C4         1.7092    2.3799   13.2317 C.3       1 RES1    0.0000
      8 C5         1.4252    1.2802   14.2198 C.ar      1 RES1    0.0000
      9 C6         2.3574    0.3069   14.5568 C.ar      1 RES1    0.0000
     10 C7         2.0219   -0.6519   15.4877 C.ar      1 RES1    0.0000
     11 C8         0.7696   -0.6163   16.0593 C.ar      1 RES1    0.0000
     12 C9        -0.0975    0.3908   15.6750 C.ar      1 RES1    0.0000
     13 H1         1.7980    4.1604   11.2314 H         1 RES1    0.0000
     14 H2         2.4579    3.1518   10.1381 H         1 RES1    0.0000
     15 H3         3.1873    4.5535   10.4926 H         1 RES1    0.0000
     16 H4         3.6623    4.8798   12.8823 H         1 RES1    0.0000
     17 H5         1.5979    4.4200   13.6983 H         1 RES1    0.0000
     18 H6         2.3880    3.5523   14.8106 H         1 RES1    0.0000
     19 H7         0.8845    2.5734   12.7078 H         1 RES1    0.0000
     20 H8         3.2071    0.3189   14.1489 H         1 RES1    0.0000
     21 H9         2.6639   -1.3349   15.7037 H         1 RES1    0.0000
     22 H10        0.5049   -1.2533   16.7200 H         1 RES1    0.0000
     23 H11       -0.9799    0.4524   16.0704 H         1 RES1    0.0000
     24 O1B        5.5715    5.4710   14.7278 O.3       1 RES1    0.0000
     25 N1B        4.8608    4.2850   15.1722 N.3       1 RES1    0.0000
     26 N2B        8.1246    6.0825   12.2927 N.ar      1 RES1    0.0000
     27 C1B        5.6881    3.6161   16.1898 C.3       1 RES1    0.0000
     28 C2B        4.7791    3.4853   13.9352 C.3       1 RES1    0.0000
     29 C3B        6.1072    3.7277   13.2038 C.3       1 RES1    0.0000
     30 C4B        6.6259    5.0362   13.8320 C.3       1 RES1    0.0000
     31 C5B        6.9099    6.1359   12.8439 C.ar      1 RES1    0.0000
     32 C6B        5.9777    7.1092   12.5069 C.ar      1 RES1    0.0000
     33 C7B        6.3132    8.0680   11.5760 C.ar      1 RES1    0.0000
     34 C8B        7.5655    8.0324   11.0044 C.ar      1 RES1    0.0000
     35 C9B        8.4326    7.0253   11.3887 C.ar      1 RES1    0.0000
     36 H1B        6.5371    3.2557   15.8323 H         1 RES1    0.0000
     37 H2B        5.8772    4.2643   16.9256 H         1 RES1    0.0000
     38 H3B        5.1478    2.8626   16.5711 H         1 RES1    0.0000
     39 H4B        4.6728    2.5363   14.1814 H         1 RES1    0.0000
     40 H5B        6.7372    2.9961   13.3654 H         1 RES1    0.0000
     41 H6B        5.9471    3.8638   12.2531 H         1 RES1    0.0000
     42 H7B        7.4506    4.8427   14.3559 H         1 RES1    0.0000
     43 H8B        5.1280    7.0972   12.9148 H         1 RES1    0.0000
     44 H9B        5.6712    8.7510   11.3600 H         1 RES1    0.0000
     45 H10B       7.8302    8.6694   10.3437 H         1 RES1    0.0000
     46 H11B       9.3150    6.9637   10.9933 H         1 RES1    0.0000
@<TRIPOS>BOND
     1    1    2 1
     2    2    4 1
     3    3    8 ar
     4    4   13 1
     5    5    2 1
     6    6    5 1
     7    7    1 1
     8    8    7 1
     9    9    8 ar
    10   10    9 ar
    11   11   10 ar
    12   12    3 ar
    13   14    4 1
    14   15    4 1
    15   16    5 1
    16   17    6 1
    17   18    6 1
    18   19    7 1
    19   20    9 1
    20   21   10 1
    21   22   11 1
    22   23   12 1
    23   24   25 1
    24   25   27 1
    25   26   31 ar
    26   27   36 1
    27   28    5 1
    28   29   28 1
    29   30   24 1
    30   31   30 1
    31   32   31 ar
    32   33   32 ar
    33   34   33 ar
    34   35   26 ar
    35   37   27 1
    36   38   27 1
    37   39   28 1
    38   40   29 1
    39   41   29 1
    40   42   30 1
    41   43   32 1
    42   44   33 1
    43   45   34 1
    44   46   35 1
    45    6    7 1
    46   11   12 ar
    47   25   28 1
    48   29   30 1
    49   34   35 ar
@<TRIPOS>SUBSTRUCTURE
     1 RES1 1

@<TRIPOS>CRYSIN
   8.1828    7.4161   14.1150  90.0000 106.5270  90.0000 231 1

