# MOL2 file generated by ConQuest
# Please check atom types

@<TRIPOS>MOLECULE
KAYRIN
    45    47     1
SMALL
NO_CHARGES
****
Generated from CSD

@<TRIPOS>ATOM
      1 N1         2.9824    8.4652    4.9986 N.pl3     1 RES1    0.0000
      2 N2         1.7707    7.0764    3.8290 N.pl3     1 RES1    0.0000
      3 O1         2.6659   12.7710    2.2042 O.3       1 RES1    0.0000
      4 O2         3.4880    9.5472    5.4694 O.2       1 RES1    0.0000
      5 O3         0.9474    6.6003    2.9729 O.2       1 RES1    0.0000
      6 C1         3.1726   14.2819    0.4643 C.ar      1 RES1    0.0000
      7 H1         3.9320   13.7805    0.2714 H         1 RES1    0.0000
      8 C2         2.8846   15.4335   -0.2412 C.ar      1 RES1    0.0000
      9 H2         3.4585   15.7146   -0.9176 H         1 RES1    0.0000
     10 C3         1.7793   16.1563    0.0394 C.ar      1 RES1    0.0000
     11 H3         1.5935   16.9271   -0.4468 H         1 RES1    0.0000
     12 C4         0.9409   15.7615    1.0269 C.ar      1 RES1    0.0000
     13 H4         0.1767   16.2594    1.2107 H         1 RES1    0.0000
     14 C5         1.2098   14.6404    1.7560 C.ar      1 RES1    0.0000
     15 H5         0.6442   14.3897    2.4502 H         1 RES1    0.0000
     16 C6         2.3050   13.8918    1.4643 C.ar      1 RES1    0.0000
     17 C7         1.8018   11.6870    2.3092 C.ar      1 RES1    0.0000
     18 C8         0.5786   11.5897    1.6755 C.ar      1 RES1    0.0000
     19 H6         0.2644   12.2868    1.1458 H         1 RES1    0.0000
     20 C9        -0.1667   10.4499    1.8391 C.ar      1 RES1    0.0000
     21 H7        -0.9960   10.3854    1.4221 H         1 RES1    0.0000
     22 C10        0.2851    9.4005    2.6056 C.ar      1 RES1    0.0000
     23 H8        -0.2318    8.6329    2.7000 H         1 RES1    0.0000
     24 C11        1.5291    9.4943    3.2450 C.ar      1 RES1    0.0000
     25 C12        2.2756   10.6497    3.0896 C.ar      1 RES1    0.0000
     26 H9         3.0997   10.7287    3.5119 H         1 RES1    0.0000
     27 C13        2.0663    8.3788    4.0135 C.2       1 RES1    0.0000
     28 C14        3.2545    7.1514    5.6560 C.3       1 RES1    0.0000
     29 C15        2.4978    7.1767    6.9899 C.3       1 RES1    0.0000
     30 H10        2.8153    7.9077    7.5234 H         1 RES1    0.0000
     31 H11        2.6453    6.3508    7.4562 H         1 RES1    0.0000
     32 H12        1.5588    7.2856    6.8220 H         1 RES1    0.0000
     33 C16        4.7394    7.0349    5.9253 C.3       1 RES1    0.0000
     34 H13        5.2253    7.1919    5.1117 H         1 RES1    0.0000
     35 H14        4.9377    6.1539    6.2503 H         1 RES1    0.0000
     36 H15        4.9975    7.6851    6.5842 H         1 RES1    0.0000
     37 C17        2.6815    6.1592    4.6147 C.3       1 RES1    0.0000
     38 C18        3.7118    5.6373    3.6152 C.3       1 RES1    0.0000
     39 H16        3.2613    5.1828    2.8994 H         1 RES1    0.0000
     40 H17        4.3068    5.0269    4.0572 H         1 RES1    0.0000
     41 H18        4.2144    6.3742    3.2597 H         1 RES1    0.0000
     42 C19        1.8823    4.9905    5.1701 C.3       1 RES1    0.0000
     43 H19        1.1664    5.3233    5.7146 H         1 RES1    0.0000
     44 H20        2.4567    4.4330    5.7002 H         1 RES1    0.0000
     45 H21        1.5198    4.4775    4.4439 H         1 RES1    0.0000
@<TRIPOS>BOND
     1    1    4 1
     2    2    5 2
     3    3   16 1
     4    6    7 1
     5    8    6 ar
     6    9    8 1
     7   10    8 ar
     8   11   10 1
     9   12   10 ar
    10   13   12 1
    11   14   12 ar
    12   15   14 1
    13   16    6 ar
    14   17    3 1
    15   18   17 ar
    16   19   18 1
    17   20   18 ar
    18   21   20 1
    19   22   20 ar
    20   23   22 1
    21   24   22 ar
    22   25   17 ar
    23   26   25 1
    24   27    1 2
    25   28    1 1
    26   29   28 1
    27   30   29 1
    28   31   29 1
    29   32   29 1
    30   33   28 1
    31   34   33 1
    32   35   33 1
    33   36   33 1
    34   37    2 1
    35   38   37 1
    36   39   38 1
    37   40   38 1
    38   41   38 1
    39   42   37 1
    40   43   42 1
    41   44   42 1
    42   45   42 1
    43    2   27 1
    44   14   16 ar
    45   24   25 ar
    46   24   27 1
    47   28   37 1
@<TRIPOS>SUBSTRUCTURE
     1 RES1 1

@<TRIPOS>CRYSIN
   6.0247   11.7151   24.0800  90.0000  94.0040  90.0000 231 1

