# MOL2 file generated by ConQuest
# Please check atom types

@<TRIPOS>MOLECULE
KAYSUY01
    18    16     2
SMALL
NO_CHARGES
****
Generated from CSD

@<TRIPOS>ATOM
      1 C1        -0.1724   -0.0000   -8.4822 C.ar      1 RES1    0.0000
      2 C2         0.4887   -0.5842   -7.4265 C.ar      1 RES1    0.0000
      3 C3        -0.1443   -1.6124   -6.7404 C.ar      1 RES1    0.0000
      4 C4        -1.4221   -2.0002   -7.0985 C.ar      1 RES1    0.0000
      5 C5        -2.0704   -1.4110   -8.2053 C.ar      1 RES1    0.0000
      6 C6        -1.4338   -0.4124   -8.9091 C.ar      1 RES1    0.0000
      7 N1         0.4936    1.0523   -9.2162 N.pl3     1 RES1    0.0000
      8 O1         1.6239    1.4180   -8.8341 O.2       1 RES1    0.0000
      9 O2        -0.0719    1.6506  -10.1387 O.2       1 RES1    0.0000
     10 C7        -2.1210   -3.1263   -6.3520 C.2       1 RES1    0.0000
     11 O3        -1.5698   -3.6372   -5.4212 O.2       1 RES1    0.0000
     12 O4        -3.2759   -3.4222   -6.7487 Du        2 SUP2    0.0000
     13 H1         1.3696   -0.2938   -7.1797 H         1 RES1    0.0000
     14 H2         0.2763   -2.0459   -5.9939 H         1 RES1    0.0000
     15 H3        -2.9437   -1.7118   -8.4666 H         1 RES1    0.0000
     16 H4        -1.8746   -0.0050   -9.6587 H         1 RES1    0.0000
     17 H5        -3.0171   -3.2886   -6.6550 H         1 RES1    0.0000
     18 H6        -1.7300   -3.5769   -5.6003 Du        2 SUP2    0.0000
@<TRIPOS>BOND
     1    1    2 ar
     2    2    3 ar
     3    3    4 ar
     4    4    5 ar
     5    5    6 ar
     6    6    1 ar
     7    7    1 1
     8    8    7 2
     9    9    7 2
    10   10    4 1
    11   11   10 2
    12   13    2 1
    13   14    3 1
    14   15    5 1
    15   16    6 1
    16   17   10 1
@<TRIPOS>SUBSTRUCTURE
     1 RES1 1
     2 SUP2 12

@<TRIPOS>CRYSIN
   6.2090    5.0230   10.4570  90.0000  95.3500  90.0000   4 1

