# MOL2 file generated by ConQuest
# Please check atom types

@<TRIPOS>MOLECULE
KAYTIQ
    45    48     1
SMALL
USER_CHARGES
****
Generated from CSD

@<TRIPOS>ATOM
      1 O1        -2.6076   -7.7494   -4.8624 O.2       1 RES1   -1.0000
      2 O2        -4.3598   -9.0677   -3.7378 O.3       1 RES1    0.0000
      3 H1        -4.0051   -8.6240   -4.3292 H         1 RES1    0.0000
      4 O3        -5.0192  -10.0115   -0.8841 O.2       1 RES1    0.0000
      5 N1        -1.9523   -7.4761   -3.6496 N.4       1 RES1    1.0000
      6 C1        -0.5027   -7.3066   -3.9934 C.3       1 RES1    0.0000
      7 H2        -0.0066   -7.0707   -3.1945 H         1 RES1    0.0000
      8 H3        -0.4050   -6.5823   -4.6319 H         1 RES1    0.0000
      9 C2         0.0643   -8.5784   -4.5828 C.3       1 RES1    0.0000
     10 H4         1.0134   -8.4609   -4.7441 H         1 RES1    0.0000
     11 H5        -0.3632   -8.7552   -5.4358 H         1 RES1    0.0000
     12 C3        -0.1435   -9.7710   -3.6606 C.3       1 RES1    0.0000
     13 H6         0.3972   -9.6580   -2.8627 H         1 RES1    0.0000
     14 H7         0.1506  -10.5791   -4.1086 H         1 RES1    0.0000
     15 C4        -1.6146   -9.9250   -3.2566 C.3       1 RES1    0.0000
     16 H8        -2.1265  -10.1236   -4.0686 H         1 RES1    0.0000
     17 C5        -2.1867   -8.6450   -2.6492 C.3       1 RES1    0.0000
     18 C6        -3.7460   -8.7698   -2.4888 C.3       1 RES1    0.0000
     19 C7        -4.1119  -10.0297   -1.6900 C.2       1 RES1    0.0000
     20 C8        -3.3829  -11.2742   -2.0849 C.3       1 RES1    0.0000
     21 H9        -3.7485  -11.6013   -2.9219 H         1 RES1    0.0000
     22 H10       -3.5327  -11.9548   -1.4103 H         1 RES1    0.0000
     23 C9        -1.8712  -11.0629   -2.2523 C.3       1 RES1    0.0000
     24 H11       -1.4939  -11.8846   -2.6282 H         1 RES1    0.0000
     25 C10       -1.1746  -10.7969   -0.9131 C.3       1 RES1    0.0000
     26 H12       -1.3734  -11.5230   -0.3017 H         1 RES1    0.0000
     27 H13       -0.2152  -10.7786   -1.0525 H         1 RES1    0.0000
     28 C11       -1.6113   -9.4831   -0.2857 C.3       1 RES1    0.0000
     29 H14       -2.5531   -9.5633   -0.0241 H         1 RES1    0.0000
     30 C12       -1.4874   -8.3416   -1.2960 C.3       1 RES1    0.0000
     31 H15       -0.5471   -8.1667   -1.4594 H         1 RES1    0.0000
     32 H16       -1.8750   -7.5389   -0.9141 H         1 RES1    0.0000
     33 C13       -2.5002   -6.1924   -3.1033 C.3       1 RES1    0.0000
     34 H17       -2.3581   -5.4827   -3.7498 H         1 RES1    0.0000
     35 H18       -2.0217   -5.9583   -2.2924 H         1 RES1    0.0000
     36 C14       -3.9791   -6.3017   -2.7976 C.3       1 RES1    0.0000
     37 H19       -4.2693   -5.4873   -2.3575 H         1 RES1    0.0000
     38 H20       -4.4667   -6.3764   -3.6325 H         1 RES1    0.0000
     39 C15       -4.3299   -7.4843   -1.9185 C.3       1 RES1    0.0000
     40 H21       -5.2943   -7.5663   -1.8564 H         1 RES1    0.0000
     41 H22       -3.9821   -7.3376   -1.0254 H         1 RES1    0.0000
     42 C16       -0.7884   -9.1715    0.9663 C.3       1 RES1    0.0000
     43 H23       -1.0992   -8.3525    1.3582 H         1 RES1    0.0000
     44 H24        0.1368   -9.0804    0.7267 H         1 RES1    0.0000
     45 H25       -0.8860   -9.8867    1.5998 H         1 RES1    0.0000
@<TRIPOS>BOND
     1    1    5 1
     2    2    3 1
     3    4   19 2
     4    5    6 1
     5    6    7 1
     6    8    6 1
     7    9    6 1
     8   10    9 1
     9   11    9 1
    10   12    9 1
    11   13   12 1
    12   14   12 1
    13   15   12 1
    14   16   15 1
    15   17    5 1
    16   18    2 1
    17   19   18 1
    18   20   19 1
    19   21   20 1
    20   22   20 1
    21   23   15 1
    22   24   23 1
    23   25   23 1
    24   26   25 1
    25   27   25 1
    26   28   25 1
    27   29   28 1
    28   30   17 1
    29   31   30 1
    30   32   30 1
    31   33    5 1
    32   34   33 1
    33   35   33 1
    34   36   33 1
    35   37   36 1
    36   38   36 1
    37   39   18 1
    38   40   39 1
    39   41   39 1
    40   42   28 1
    41   43   42 1
    42   44   42 1
    43   45   42 1
    44   15   17 1
    45   17   18 1
    46   20   23 1
    47   28   30 1
    48   36   39 1
@<TRIPOS>SUBSTRUCTURE
     1 RES1 1

@<TRIPOS>CRYSIN
   7.6488    9.1105   10.2100  90.0000 100.9670  90.0000   4 1

