# MOL2 file generated by ConQuest
# Please check atom types

@<TRIPOS>MOLECULE
KAYVAH01
    46    48     2
SMALL
NO_CHARGES
****
Generated from CSD

@<TRIPOS>ATOM
      1 O1         5.7180    1.4035    3.4240 O.2       1 RES1    0.0000
      2 O2         6.3297    1.1210    1.3925 O.2       1 RES1    0.0000
      3 O3         2.6150    5.9954   -0.1986 O.2       1 RES1    0.0000
      4 O4         2.5643    3.8955   -0.6075 O.2       1 RES1    0.0000
      5 N1         7.3929    4.1258    3.4298 N.pl3     1 RES1    0.0000
      6 N2         8.1212    2.9781    3.3714 N.2       1 RES1    0.0000
      7 N3         5.9344    1.8062    2.3039 N.pl3     1 RES1    0.0000
      8 N4         3.0423    4.8699   -0.0644 N.pl3     1 RES1    0.0000
      9 C1         6.2892    4.2947    2.5917 C.ar      1 RES1    0.0000
     10 C2         5.6223    3.2190    1.9987 C.ar      1 RES1    0.0000
     11 C3         4.5863    3.3957    1.1137 C.ar      1 RES1    0.0000
     12 H1         4.1743    2.6667    0.7074 H         1 RES1    0.0000
     13 C4         4.1755    4.6831    0.8442 C.ar      1 RES1    0.0000
     14 C5         4.7889    5.7769    1.4201 C.ar      1 RES1    0.0000
     15 H2         4.4899    6.6368    1.2308 H         1 RES1    0.0000
     16 C6         5.8449    5.5815    2.2748 C.ar      1 RES1    0.0000
     17 H3         6.2720    6.3174    2.6496 H         1 RES1    0.0000
     18 C7         9.0828    3.1644    4.2406 C.2       1 RES1    0.0000
     19 H4         9.7459    2.5384    4.4181 H         1 RES1    0.0000
     20 C8         9.0011    4.4122    4.8757 C.2       1 RES1    0.0000
     21 H5         9.5687    4.7573    5.5266 H         1 RES1    0.0000
     22 C9         7.9174    4.9997    4.3313 C.2       1 RES1    0.0000
     23 H6         7.5892    5.8453    4.5351 H         1 RES1    0.0000
     24 O5         0.1218    8.1933    4.3077 O.2       2 RES2    0.0000
     25 O6         0.2682    8.9246    2.2880 O.2       2 RES2    0.0000
     26 O7        -1.5883    3.3382    0.0224 O.2       2 RES2    0.0000
     27 O8        -2.5164    5.2635    0.1473 O.2       2 RES2    0.0000
     28 N5         2.4171    6.2061    3.9362 N.pl3     2 RES2    0.0000
     29 N6         2.8789    7.4950    3.8698 N.2       2 RES2    0.0000
     30 N7         0.2762    8.0383    3.1203 N.pl3     2 RES2    0.0000
     31 N8        -1.6347    4.4872    0.4339 N.pl3     2 RES2    0.0000
     32 C10        1.3770    5.7859    3.1032 C.ar      2 RES2    0.0000
     33 C11        0.4002    6.6475    2.6325 C.ar      2 RES2    0.0000
     34 C12       -0.5722    6.2526    1.7502 C.ar      2 RES2    0.0000
     35 H7        -1.2063    6.8550    1.4333 H         2 RES2    0.0000
     36 C13       -0.5797    4.9298    1.3465 C.ar      2 RES2    0.0000
     37 C14        0.3458    4.0257    1.8133 C.ar      2 RES2    0.0000
     38 H8         0.3077    3.1344    1.5529 H         2 RES2    0.0000
     39 C15        1.3252    4.4611    2.6706 C.ar      2 RES2    0.0000
     40 H9         1.9679    3.8589    2.9691 H         2 RES2    0.0000
     41 C16        3.8664    7.5181    4.7363 C.2       2 RES2    0.0000
     42 H10        4.3747    8.2753    4.9178 H         2 RES2    0.0000
     43 C17        4.0689    6.2888    5.3491 C.2       2 RES2    0.0000
     44 H11        4.7045    6.0778    5.9947 H         2 RES2    0.0000
     45 C18        3.1487    5.4717    4.8113 C.2       2 RES2    0.0000
     46 H12        3.0346    4.5690    5.0033 H         2 RES2    0.0000
@<TRIPOS>BOND
     1    1    7 2
     2    2    7 2
     3    3    8 2
     4    4    8 2
     5    5    6 1
     6    6   18 2
     7    7   10 1
     8    8   13 1
     9    9    5 1
    10   10    9 ar
    11   11   10 ar
    12   12   11 1
    13   13   11 ar
    14   14   13 ar
    15   15   14 1
    16   16    9 ar
    17   17   16 1
    18   18   19 1
    19   20   18 1
    20   21   20 1
    21   22    5 1
    22   23   22 1
    23   24   30 2
    24   25   30 2
    25   26   31 2
    26   27   31 2
    27   28   29 1
    28   29   41 2
    29   30   33 1
    30   31   36 1
    31   32   28 1
    32   33   32 ar
    33   34   33 ar
    34   35   34 1
    35   36   34 ar
    36   37   36 ar
    37   38   37 1
    38   39   32 ar
    39   40   39 1
    40   41   42 1
    41   43   41 1
    42   44   43 1
    43   45   28 1
    44   46   45 1
    45   14   16 ar
    46   20   22 2
    47   37   39 ar
    48   43   45 2
@<TRIPOS>SUBSTRUCTURE
     1 RES1 1
     2 RES2 24

@<TRIPOS>CRYSIN
  10.7867   14.2604   14.2061  90.0000 112.2410  90.0000 231 1

