# MOL2 file generated by ConQuest
# Please check atom types

@<TRIPOS>MOLECULE
KAYVAH
    23    24     1
SMALL
NO_CHARGES
****
Generated from CSD

@<TRIPOS>ATOM
      1 O1         7.3026    1.3981    4.8794 O.2       1 RES1    0.0000
      2 O2         5.9607    3.0802    5.0488 O.2       1 RES1    0.0000
      3 O3         8.2136    4.5165   -0.8262 O.2       1 RES1    0.0000
      4 O4         8.3426    5.4978    1.0862 O.2       1 RES1    0.0000
      5 N1         5.3094    0.2300    2.7660 N.pl3     1 RES1    0.0000
      6 N2         4.7334    0.3683    3.9943 N.ar      1 RES1    0.0000
      7 N3         6.5868    2.2614    4.4034 N.pl3     1 RES1    0.0000
      8 N4         7.9843    4.5773    0.3746 N.pl3     1 RES1    0.0000
      9 C1         5.9580    1.3225    2.1768 C.ar      1 RES1    0.0000
     10 C2         6.5295    2.3416    2.9344 C.ar      1 RES1    0.0000
     11 C3         7.1601    3.4271    2.3731 C.ar      1 RES1    0.0000
     12 C4         7.2524    3.4630    0.9899 C.ar      1 RES1    0.0000
     13 C5         6.7024    2.4815    0.1923 C.ar      1 RES1    0.0000
     14 C6         6.0422    1.4253    0.7836 C.ar      1 RES1    0.0000
     15 C7         4.2049   -0.8172    4.2372 C.ar      1 RES1    0.0000
     16 C8         4.4181   -1.7200    3.1888 C.ar      1 RES1    0.0000
     17 C9         5.1320   -1.0241    2.2608 C.ar      1 RES1    0.0000
     18 H1         7.5606    4.0651    2.9279 H         1 RES1    0.0000
     19 H2         6.7543    2.5999   -0.7556 H         1 RES1    0.0000
     20 H3         5.6346    0.7794    0.2361 H         1 RES1    0.0000
     21 H4         3.7713   -0.9838    5.0648 H         1 RES1    0.0000
     22 H5         4.1476   -2.6973    3.1640 H         1 RES1    0.0000
     23 H6         5.5629   -1.2971    1.4403 H         1 RES1    0.0000
@<TRIPOS>BOND
     1    1    7 2
     2    2    7 2
     3    3    8 2
     4    4    8 2
     5    5    6 ar
     6    6   15 ar
     7    7   10 1
     8    8   12 1
     9    9    5 1
    10   10    9 ar
    11   11   10 ar
    12   12   11 ar
    13   13   12 ar
    14   14    9 ar
    15   15   16 ar
    16   16   17 ar
    17   17    5 ar
    18   18   11 1
    19   19   13 1
    20   20   14 1
    21   21   15 1
    22   22   16 1
    23   23   17 1
    24   13   14 ar
@<TRIPOS>SUBSTRUCTURE
     1 RES1 1

@<TRIPOS>CRYSIN
   8.9580   19.1030   11.8060  90.0000  90.0000  90.0000  61 1

