# MOL2 file generated by ConQuest
# Please check atom types

@<TRIPOS>MOLECULE
KAZFAT
    42    43     1
SMALL
NO_CHARGES
****
Generated from CSD

@<TRIPOS>ATOM
      1 C1         3.3241    3.5567   11.6136 C.ar      1 RES1    0.0000
      2 C2         3.3954    3.2411   13.8237 C.ar      1 RES1    0.0000
      3 C3         3.3577    5.2891   13.0209 C.ar      1 RES1    0.0000
      4 C4         3.0616    3.9232    9.1914 C.3       1 RES1    0.0000
      5 C5         3.8344    3.4166    7.9935 C.3       1 RES1    0.0000
      6 C6         3.9179    1.2404    8.8603 C.3       1 RES1    0.0000
      7 C7         3.1532    1.6270   10.1005 C.3       1 RES1    0.0000
      8 C8         3.4090    2.3088   15.0369 C.3       1 RES1    0.0000
      9 C9         4.3780    2.7194   16.1210 C.3       1 RES1    0.0000
     10 C10        4.6596    1.6902   17.2237 C.3       1 RES1    0.0000
     11 C11        5.7997    2.1423   18.0713 C.2       1 RES1    0.0000
     12 C12        3.3245    7.5269   12.2016 C.3       1 RES1    0.0000
     13 N1         3.3487    2.6693   12.6351 N.ar      1 RES1    0.0000
     14 N2         3.4235    4.5236   14.1235 N.ar      1 RES1    0.0000
     15 N3         3.3168    4.8978   11.7671 N.ar      1 RES1    0.0000
     16 N4         3.3039    3.0713   10.3645 N.3       1 RES1    0.0000
     17 N5         3.7453    0.9031   14.5570 N.pl3     1 RES1    0.0000
     18 N6         1.9659    2.2191   15.5485 N.pl3     1 RES1    0.0000
     19 O1         3.5170    2.0381    7.7500 O.3       1 RES1    0.0000
     20 O2         6.1059    3.2794   18.2557 O.2       1 RES1    0.0000
     21 O3         6.4365    1.1361   18.6155 O.3       1 RES1    0.0000
     22 O4         4.8863    0.7481   14.1943 O.2       1 RES1    0.0000
     23 O5         2.8951    0.0551   14.5839 O.2       1 RES1    0.0000
     24 O6         1.0693    2.3366   14.7933 O.2       1 RES1    0.0000
     25 O7         1.8073    2.0671   16.6850 O.2       1 RES1    0.0000
     26 O8         3.3442    6.5934   13.3020 O.3       1 RES1    0.0000
     27 H1         5.2438    2.9442   15.5685 H         1 RES1    0.0000
     28 H2         3.3346    4.8850    9.4441 H         1 RES1    0.0000
     29 H3         2.0547    3.8741    9.0048 H         1 RES1    0.0000
     30 H4         4.8558    1.1993    8.9802 H         1 RES1    0.0000
     31 H5         3.7506    0.2789    8.6785 H         1 RES1    0.0000
     32 H6         4.2002    3.5772   16.5478 H         1 RES1    0.0000
     33 H7         4.9014    3.4981    8.1968 H         1 RES1    0.0000
     34 H8         3.4394    3.9534    7.1744 H         1 RES1    0.0000
     35 H9         2.1628    1.4736    9.9831 H         1 RES1    0.0000
     36 H10        3.4449    1.1404   10.9049 H         1 RES1    0.0000
     37 H11        3.5074    8.4616   12.6922 H         1 RES1    0.0000
     38 H12        4.2092    7.3831   11.6651 H         1 RES1    0.0000
     39 H13        4.9754    0.7807   16.9542 H         1 RES1    0.0000
     40 H14        3.8160    1.4344   17.6797 H         1 RES1    0.0000
     41 H15        2.5068    7.4340   11.6970 H         1 RES1    0.0000
     42 H16        6.6648    1.2747   19.5918 H         1 RES1    0.0000
@<TRIPOS>BOND
     1    1   13 ar
     2    2    8 1
     3    3   14 ar
     4    4    5 1
     5    5   19 1
     6    6    7 1
     7    7   16 1
     8    8    9 1
     9    9   10 1
    10   10   11 1
    11   11   20 2
    12   12   26 1
    13   13    2 ar
    14   14    2 ar
    15   15    1 ar
    16   16    1 1
    17   17    8 1
    18   18    8 1
    19   19    6 1
    20   21   11 1
    21   22   17 2
    22   23   17 2
    23   24   18 2
    24   25   18 2
    25   26    3 1
    26   27    9 1
    27   28    4 1
    28   29    4 1
    29   30    6 1
    30   31    6 1
    31   32    9 1
    32   33    5 1
    33   34    5 1
    34   35    7 1
    35   36    7 1
    36   37   12 1
    37   38   12 1
    38   39   10 1
    39   40   10 1
    40   41   12 1
    41   42   21 1
    42    3   15 ar
    43    4   16 1
@<TRIPOS>SUBSTRUCTURE
     1 RES1 1

@<TRIPOS>CRYSIN
   6.8560    9.9430   12.0680  90.6700  97.1500  93.8400   2 1

