# MOL2 file generated by ConQuest
# Please check atom types

@<TRIPOS>MOLECULE
KAZHAV
    92    94     3
SMALL
NO_CHARGES
****
Generated from CSD

@<TRIPOS>ATOM
      1 O1         2.5243    2.2676   -0.0776 O.3       1 RES1    0.0000
      2 O2         7.3760    3.2453   11.0867 O.3       2 RES2    0.0000
      3 N1         1.4643    2.2361   -1.0669 N.3       1 RES1    0.0000
      4 N2         8.7909    3.1426   10.7786 N.3       2 RES2    0.0000
      5 C1         1.9909    2.7907   -2.3160 C.3       1 RES1    0.0000
      6 H1         1.2616    2.6537   -3.0302 H         1 RES1    0.0000
      7 H2         2.8212    2.3655   -2.5064 H         1 RES1    0.0000
      8 H3         2.2547    3.6597   -2.2570 H         1 RES1    0.0000
      9 C2         0.4464    3.1290   -0.4690 C.3       1 RES1    0.0000
     10 C3         1.2387    4.2242    0.2511 C.3       1 RES1    0.0000
     11 H4         0.8927    4.4645    1.1472 H         1 RES1    0.0000
     12 H5         1.2068    5.0301   -0.2369 H         1 RES1    0.0000
     13 C4         2.6549    3.6390    0.3706 C.3       1 RES1    0.0000
     14 H6         3.2428    4.1056   -0.2693 H         1 RES1    0.0000
     15 C5         3.2232    3.6635    1.7638 C.ar      1 RES1    0.0000
     16 C6         4.0009    4.7353    2.1535 C.ar      1 RES1    0.0000
     17 H7         4.2362    5.4161    1.3966 H         1 RES1    0.0000
     18 C7         4.4720    4.8408    3.4591 C.ar      1 RES1    0.0000
     19 H8         5.0207    5.5956    3.6661 H         1 RES1    0.0000
     20 C8         4.1698    3.8522    4.3781 C.ar      1 RES1    0.0000
     21 H9         4.4600    3.9262    5.3994 H         1 RES1    0.0000
     22 C9         3.3940    2.7804    3.9891 C.ar      1 RES1    0.0000
     23 H10        3.1764    1.9359    4.5889 H         1 RES1    0.0000
     24 C10        2.9290    2.6765    2.6940 C.ar      1 RES1    0.0000
     25 H11        2.4167    1.9141    2.4191 H         1 RES1    0.0000
     26 C11        8.9281    2.4965    9.4707 C.3       2 RES2    0.0000
     27 H12        8.5055    2.9854    8.8161 H         2 RES2    0.0000
     28 H13        8.5214    1.6096    9.4645 H         2 RES2    0.0000
     29 H14        9.9230    2.4090    9.2900 H         2 RES2    0.0000
     30 C12        9.2909    2.2850   11.8586 C.3       2 RES2    0.0000
     31 C13        8.1664    1.2719   12.1231 C.3       2 RES2    0.0000
     32 H15        7.9993    1.0550   13.0808 H         2 RES2    0.0000
     33 H16        8.3647    0.4459   11.7340 H         2 RES2    0.0000
     34 C14        6.9233    1.9370   11.5050 C.3       2 RES2    0.0000
     35 H17        6.5962    1.3758   10.6866 H         2 RES2    0.0000
     36 C15        5.7501    2.1012   12.4442 C.ar      2 RES2    0.0000
     37 C16        3.6330    2.3138   14.2367 C.ar      2 RES2    0.0000
     38 C17        4.9214    1.0114   12.5458 C.ar      2 RES2    0.0000
     39 C18        3.8657    1.1202   13.4686 C.ar      2 RES2    0.0000
     40 C19        4.5030    3.3389   14.0559 C.ar      2 RES2    0.0000
     41 C20        5.5657    3.2627   13.1356 C.ar      2 RES2    0.0000
     42 C21        4.5408    1.4465   12.2989 Du        3 SUP3    0.0000
     43 C22        3.4580    1.6368   13.1406 Du        3 SUP3    0.0000
     44 C23        4.7611    3.0017   14.4886 Du        3 SUP3    0.0000
     45 C24        5.8392    2.8712   13.6357 Du        3 SUP3    0.0000
     46 H18       10.2009    1.8706   11.5320 H         2 RES2    0.0000
     47 H19       -0.1786    3.4313   -1.2220 H         1 RES1    0.0000
     48 H20        2.8843    2.4742   14.9138 H         2 RES2    0.0000
     49 O1B       -2.5243    3.1703    0.0776 O.3       1 RES1    0.0000
     50 O2B       11.5324    2.1926   13.8528 O.3       2 RES2    0.0000
     51 N1B       -1.4643    3.2018    1.0669 N.3       1 RES1    0.0000
     52 N2B       10.1174    2.2953   14.1609 N.3       2 RES2    0.0000
     53 C1B       -1.9909    2.6472    2.3160 C.3       1 RES1    0.0000
     54 H1B       -1.2616    2.7842    3.0302 H         1 RES1    0.0000
     55 H2B       -2.8212    3.0724    2.5064 H         1 RES1    0.0000
     56 H3B       -2.2547    1.7782    2.2570 H         1 RES1    0.0000
     57 C2B       -0.4464    2.3089    0.4690 C.3       1 RES1    0.0000
     58 C3B       -1.2387    1.2137   -0.2511 C.3       1 RES1    0.0000
     59 H4B       -0.8927    0.9734   -1.1472 H         1 RES1    0.0000
     60 H5B       -1.2068    0.4078    0.2369 H         1 RES1    0.0000
     61 C4B       -2.6549    1.7989   -0.3706 C.3       1 RES1    0.0000
     62 H6B       -3.2428    1.3323    0.2693 H         1 RES1    0.0000
     63 C5B       -3.2232    1.7744   -1.7638 C.ar      1 RES1    0.0000
     64 C6B       -4.0009    0.7026   -2.1535 C.ar      1 RES1    0.0000
     65 H7B       -4.2362    0.0218   -1.3966 H         1 RES1    0.0000
     66 C7B       -4.4720    0.5971   -3.4591 C.ar      1 RES1    0.0000
     67 H8B       -5.0207   -0.1577   -3.6661 H         1 RES1    0.0000
     68 C8B       -4.1698    1.5857   -4.3781 C.ar      1 RES1    0.0000
     69 H9B       -4.4600    1.5117   -5.3994 H         1 RES1    0.0000
     70 C9B       -3.3940    2.6575   -3.9891 C.ar      1 RES1    0.0000
     71 H10B      -3.1764    3.5020   -4.5889 H         1 RES1    0.0000
     72 C10B      -2.9290    2.7614   -2.6940 C.ar      1 RES1    0.0000
     73 H11B      -2.4167    3.5238   -2.4191 H         1 RES1    0.0000
     74 C11B       9.9802    2.9414   15.4689 C.3       2 RES2    0.0000
     75 H12B      10.4028    2.4525   16.1234 H         2 RES2    0.0000
     76 H13B      10.3869    3.8283   15.4750 H         2 RES2    0.0000
     77 H14B       8.9853    3.0289   15.6495 H         2 RES2    0.0000
     78 C12B       9.6175    3.1529   13.0809 C.3       2 RES2    0.0000
     79 C13B      10.7419    4.1660   12.8164 C.3       2 RES2    0.0000
     80 H15B      10.9090    4.3829   11.8587 H         2 RES2    0.0000
     81 H16B      10.5436    4.9920   13.2055 H         2 RES2    0.0000
     82 C14B      11.9851    3.5009   13.4345 C.3       2 RES2    0.0000
     83 H17B      12.3121    4.0621   14.2529 H         2 RES2    0.0000
     84 C15B      13.1583    3.3367   12.4953 C.ar      2 RES2    0.0000
     85 C16B      15.2753    3.1241   10.7028 C.ar      2 RES2    0.0000
     86 C17B      13.9870    4.4265   12.3937 C.ar      2 RES2    0.0000
     87 C18B      15.0426    4.3177   11.4709 C.ar      2 RES2    0.0000
     88 C19B      14.4053    2.0990   10.8836 C.ar      2 RES2    0.0000
     89 C20B      13.3426    2.1752   11.8039 C.ar      2 RES2    0.0000
     90 H18B       8.7075    3.5673   13.4075 H         2 RES2    0.0000
     91 H19B       0.1786    2.0066    1.2220 H         1 RES1    0.0000
     92 H20B      16.0240    2.9637   10.0257 H         2 RES2    0.0000
@<TRIPOS>BOND
     1    1    3 1
     2    2    4 1
     3    3    5 1
     4    4   26 1
     5    5    6 1
     6    7    5 1
     7    8    5 1
     8    9    3 1
     9   10    9 1
    10   11   10 1
    11   12   10 1
    12   13    1 1
    13   14   13 1
    14   15   13 1
    15   16   15 ar
    16   17   16 1
    17   18   16 ar
    18   19   18 1
    19   20   18 ar
    20   21   20 1
    21   22   20 ar
    22   23   22 1
    23   24   15 ar
    24   25   24 1
    25   26   27 1
    26   28   26 1
    27   29   26 1
    28   30    4 1
    29   31   30 1
    30   32   31 1
    31   33   31 1
    32   34    2 1
    33   35   34 1
    34   36   34 1
    35   37   39 ar
    36   38   36 ar
    37   39   38 ar
    38   40   37 ar
    39   41   36 ar
    40   46   30 1
    41   47    9 1
    42   48   37 1
    43   49   51 1
    44   50   52 1
    45   51   53 1
    46   52   74 1
    47   53   54 1
    48   55   53 1
    49   56   53 1
    50   57    9 1
    51   58   57 1
    52   59   58 1
    53   60   58 1
    54   61   49 1
    55   62   61 1
    56   63   61 1
    57   64   63 ar
    58   65   64 1
    59   66   64 ar
    60   67   66 1
    61   68   66 ar
    62   69   68 1
    63   70   68 ar
    64   71   70 1
    65   72   63 ar
    66   73   72 1
    67   74   75 1
    68   76   74 1
    69   77   74 1
    70   78   30 1
    71   79   78 1
    72   80   79 1
    73   81   79 1
    74   82   50 1
    75   83   82 1
    76   84   82 1
    77   85   87 ar
    78   86   84 ar
    79   87   86 ar
    80   88   85 ar
    81   89   84 ar
    82   90   78 1
    83   91   57 1
    84   92   85 1
    85   10   13 1
    86   22   24 ar
    87   31   34 1
    88   40   41 ar
    89   51   57 1
    90   52   78 1
    91   58   61 1
    92   70   72 ar
    93   79   82 1
    94   88   89 ar
@<TRIPOS>SUBSTRUCTURE
     1 RES1 1
     2 RES2 2
     3 SUP3 42

@<TRIPOS>CRYSIN
  25.4390    5.4379   12.8902  90.0000 104.6740  90.0000  14 1

