# MOL2 file generated by ConQuest
# Please check atom types

@<TRIPOS>MOLECULE
KAZNUX
    63    66     1
SMALL
NO_CHARGES
****
Generated from CSD

@<TRIPOS>ATOM
      1 O1         8.5991    7.6999    2.4020 O.3       1 RES1    0.0000
      2 O2        10.8097    7.9194    1.9839 O.2       1 RES1    0.0000
      3 O3        12.0128    3.1235    6.7943 O.2       1 RES1    0.0000
      4 O4         9.9203    2.5801    6.7942 O.2       1 RES1    0.0000
      5 N1        10.8617    3.2408    6.3962 N.pl3     1 RES1    0.0000
      6 C1         6.8618    8.4127    0.8252 C.3       1 RES1    0.0000
      7 H1         6.7298    9.0742    0.1151 H         1 RES1    0.0000
      8 C2         6.6262    7.0268    0.1423 C.3       1 RES1    0.0000
      9 H2         5.7752    7.1036   -0.3389 H         1 RES1    0.0000
     10 C3         6.4303    5.9080    1.1693 C.3       1 RES1    0.0000
     11 H3         6.2401    5.0765    0.7075 H         1 RES1    0.0000
     12 H4         7.2495    5.7898    1.6750 H         1 RES1    0.0000
     13 C4         5.2873    6.2270    2.1265 C.3       1 RES1    0.0000
     14 H5         5.2072    5.5150    2.7797 H         1 RES1    0.0000
     15 H6         4.4552    6.2730    1.6298 H         1 RES1    0.0000
     16 C5         5.5203    7.5608    2.8534 C.3       1 RES1    0.0000
     17 H7         4.7473    7.7694    3.4018 H         1 RES1    0.0000
     18 H8         6.2904    7.4805    3.4368 H         1 RES1    0.0000
     19 C6         5.7565    8.6972    1.8484 C.3       1 RES1    0.0000
     20 H9         4.9291    8.8687    1.3711 H         1 RES1    0.0000
     21 H10        5.9857    9.5026    2.3373 H         1 RES1    0.0000
     22 C7         8.2988    8.6338    1.3155 C.3       1 RES1    0.0000
     23 H11        8.9085    8.4432    0.5717 H         1 RES1    0.0000
     24 C8         8.5285   10.0614    1.7565 C.ar      1 RES1    0.0000
     25 C9         8.5220   10.4584    3.0914 C.ar      1 RES1    0.0000
     26 H12        8.4162    9.8248    3.7640 H         1 RES1    0.0000
     27 C10        8.6725   11.8053    3.4212 C.ar      1 RES1    0.0000
     28 H13        8.6866   12.0649    4.3137 H         1 RES1    0.0000
     29 C11        8.8008   12.7527    2.4291 C.ar      1 RES1    0.0000
     30 H14        8.8728   13.6525    2.6542 H         1 RES1    0.0000
     31 C12        8.8239   12.3709    1.0956 C.ar      1 RES1    0.0000
     32 H15        8.9189   13.0111    0.4281 H         1 RES1    0.0000
     33 C13        8.7042   11.0286    0.7619 C.ar      1 RES1    0.0000
     34 H16        8.7405   10.7700   -0.1306 H         1 RES1    0.0000
     35 C14        9.9085    7.4140    2.5844 C.2       1 RES1    0.0000
     36 C15       10.1009    6.3279    3.6088 C.ar      1 RES1    0.0000
     37 C16       11.4012    5.8805    3.8106 C.ar      1 RES1    0.0000
     38 H17       12.1030    6.2715    3.3410 H         1 RES1    0.0000
     39 C17       11.6582    4.8517    4.7121 C.ar      1 RES1    0.0000
     40 H18       12.5244    4.5447    4.8518 H         1 RES1    0.0000
     41 C18       10.5932    4.2982    5.3925 C.ar      1 RES1    0.0000
     42 C19        9.2864    4.7195    5.2088 C.ar      1 RES1    0.0000
     43 H19        8.5862    4.3254    5.6770 H         1 RES1    0.0000
     44 C20        9.0528    5.7452    4.3060 C.ar      1 RES1    0.0000
     45 H20        8.1831    6.0462    4.1663 H         1 RES1    0.0000
     46 C21        7.6800    6.7747   -0.9145 C.2       1 RES1    0.0000
     47 C22        8.6626    5.8913   -0.7735 C.2       1 RES1    0.0000
     48 H21        9.3138    5.8126   -1.4319 H         1 RES1    0.0000
     49 H22        8.6984    5.3535   -0.0155 H         1 RES1    0.0000
     50 C23        7.6129    7.6448   -2.1278 C.ar      1 RES1    0.0000
     51 C24        8.7185    8.3828   -2.5520 C.ar      1 RES1    0.0000
     52 H23        9.5088    8.3450   -2.0631 H         1 RES1    0.0000
     53 C25        8.6608    9.1724   -3.6890 C.ar      1 RES1    0.0000
     54 H24        9.4085    9.6617   -3.9451 H         1 RES1    0.0000
     55 C26        7.5063    9.2423   -4.4521 C.ar      1 RES1    0.0000
     56 C27        6.4078    8.5087   -4.0330 C.ar      1 RES1    0.0000
     57 H25        5.6238    8.5422   -4.5336 H         1 RES1    0.0000
     58 C28        6.4454    7.7267   -2.8909 C.ar      1 RES1    0.0000
     59 H26        5.6878    7.2532   -2.6283 H         1 RES1    0.0000
     60 C29        7.4380   10.0967   -5.6977 C.3       1 RES1    0.0000
     61 H27        7.5847    9.5478   -6.4712 H         1 RES1    0.0000
     62 H28        8.1139   10.7784   -5.6551 H         1 RES1    0.0000
     63 H29        6.5728   10.5082   -5.7559 H         1 RES1    0.0000
@<TRIPOS>BOND
     1    1   22 1
     2    2   35 2
     3    3    5 2
     4    4    5 2
     5    5   41 1
     6    6    7 1
     7    8    6 1
     8    9    8 1
     9   10    8 1
    10   11   10 1
    11   12   10 1
    12   13   10 1
    13   14   13 1
    14   15   13 1
    15   16   13 1
    16   17   16 1
    17   18   16 1
    18   19    6 1
    19   20   19 1
    20   21   19 1
    21   22    6 1
    22   23   22 1
    23   24   22 1
    24   25   24 ar
    25   26   25 1
    26   27   25 ar
    27   28   27 1
    28   29   27 ar
    29   30   29 1
    30   31   29 ar
    31   32   31 1
    32   33   24 ar
    33   34   33 1
    34   35    1 1
    35   36   35 1
    36   37   36 ar
    37   38   37 1
    38   39   37 ar
    39   40   39 1
    40   41   39 ar
    41   42   41 ar
    42   43   42 1
    43   44   36 ar
    44   45   44 1
    45   46    8 1
    46   47   46 2
    47   48   47 1
    48   49   47 1
    49   50   46 1
    50   51   50 ar
    51   52   51 1
    52   53   51 ar
    53   54   53 1
    54   55   53 ar
    55   56   55 ar
    56   57   56 1
    57   58   50 ar
    58   59   58 1
    59   60   55 1
    60   61   60 1
    61   62   60 1
    62   63   60 1
    63   16   19 1
    64   31   33 ar
    65   42   44 ar
    66   56   58 ar
@<TRIPOS>SUBSTRUCTURE
     1 RES1 1

@<TRIPOS>CRYSIN
   9.4816   10.0759   13.0176  83.5500  89.8610  84.3380   2 1

