# MOL2 file generated by ConQuest
# Please check atom types

@<TRIPOS>MOLECULE
KAZTAH
    54    57     1
SMALL
NO_CHARGES
****
Generated from CSD

@<TRIPOS>ATOM
      1 O1         8.5496    2.0177    2.6083 O.2       1 RES1    0.0000
      2 O2         3.4109    5.7500    5.6195 O.2       1 RES1    0.0000
      3 O3         7.9120    5.2056    7.9887 O.2       1 RES1    0.0000
      4 O4         8.1558    1.9307   -2.2994 O.2       1 RES1    0.0000
      5 O5         6.4248    0.9124   -3.0919 O.2       1 RES1    0.0000
      6 O6         6.0528    7.7333    0.2938 O.2       1 RES1    0.0000
      7 O7         4.3634    8.5649   -0.7583 O.2       1 RES1    0.0000
      8 O8         9.6096   -1.4328    8.4315 O.2       1 RES1    0.0000
      9 O9         7.7073   -0.7274    7.7049 O.2       1 RES1    0.0000
     10 N1         7.0282    1.4803   -2.1882 N.pl3     1 RES1    0.0000
     11 N2         4.8578    7.9992    0.2132 N.pl3     1 RES1    0.0000
     12 N3         8.8607   -0.5371    8.0535 N.pl3     1 RES1    0.0000
     13 C1         6.9423    3.3798    3.6865 C.ar      1 RES1    0.0000
     14 C2         5.8074    4.1799    3.5597 C.ar      1 RES1    0.0000
     15 H1         5.3217    4.1916    2.7434 H         1 RES1    0.0000
     16 C3         5.3856    4.9630    4.6344 C.ar      1 RES1    0.0000
     17 C4         6.1109    4.9587    5.8239 C.ar      1 RES1    0.0000
     18 H2         5.8178    5.4869    6.5569 H         1 RES1    0.0000
     19 C5         7.2623    4.1853    5.9460 C.ar      1 RES1    0.0000
     20 C6         7.6761    3.3975    4.8779 C.ar      1 RES1    0.0000
     21 H3         8.4606    2.8686    4.9570 H         1 RES1    0.0000
     22 C7         7.4219    2.4846    2.5893 C.2       1 RES1    0.0000
     23 C8         6.5252    2.1259    1.4436 C.ar      1 RES1    0.0000
     24 C9         7.1195    2.0221    0.1899 C.ar      1 RES1    0.0000
     25 H4         8.0352    2.2437    0.0721 H         1 RES1    0.0000
     26 C10        6.3652    1.5939   -0.8773 C.ar      1 RES1    0.0000
     27 C11        5.0288    1.2478   -0.7643 C.ar      1 RES1    0.0000
     28 H5         4.5328    0.9462   -1.5171 H         1 RES1    0.0000
     29 C12        4.4401    1.3572    0.4890 C.ar      1 RES1    0.0000
     30 H6         3.5243    1.1275    0.5978 H         1 RES1    0.0000
     31 C13        5.1726    1.7976    1.5856 C.ar      1 RES1    0.0000
     32 H7         4.7527    1.8758    2.4338 H         1 RES1    0.0000
     33 C14        4.1004    5.7340    4.6176 C.2       1 RES1    0.0000
     34 C15        3.6516    6.4981    3.4059 C.ar      1 RES1    0.0000
     35 C16        4.4969    6.8611    2.3671 C.ar      1 RES1    0.0000
     36 H8         5.4090    6.5931    2.3671 H         1 RES1    0.0000
     37 C17        3.9813    7.6249    1.3281 C.ar      1 RES1    0.0000
     38 C18        2.6691    8.0565    1.3040 C.ar      1 RES1    0.0000
     39 H9         2.3406    8.5750    0.5791 H         1 RES1    0.0000
     40 C19        1.8466    7.7143    2.3606 C.ar      1 RES1    0.0000
     41 H10        0.9469    8.0188    2.3738 H         1 RES1    0.0000
     42 C20        2.3179    6.9356    3.3967 C.ar      1 RES1    0.0000
     43 H11        1.7370    6.6939    4.1084 H         1 RES1    0.0000
     44 C21        8.0410    4.2639    7.2254 C.2       1 RES1    0.0000
     45 C22        8.9705    3.1427    7.5912 C.ar      1 RES1    0.0000
     46 C23       10.2375    3.4361    8.0941 C.ar      1 RES1    0.0000
     47 H12       10.5303    4.3385    8.1380 H         1 RES1    0.0000
     48 C24       11.0705    2.4199    8.5299 C.ar      1 RES1    0.0000
     49 H13       11.9450    2.6267    8.8386 H         1 RES1    0.0000
     50 C25       10.6364    1.1032    8.5190 C.ar      1 RES1    0.0000
     51 H14       11.1929    0.4022    8.8386 H         1 RES1    0.0000
     52 C26        9.3757    0.8403    8.0321 C.ar      1 RES1    0.0000
     53 C27        8.5346    1.8323    7.5437 C.ar      1 RES1    0.0000
     54 H15        7.6814    1.6157    7.1867 H         1 RES1    0.0000
@<TRIPOS>BOND
     1    1   22 2
     2    2   33 2
     3    3   44 2
     4    4   10 2
     5    5   10 2
     6    6   11 2
     7    7   11 2
     8    8   12 2
     9    9   12 2
    10   10   26 1
    11   11   37 1
    12   12   52 1
    13   13   14 ar
    14   14   15 1
    15   16   14 ar
    16   17   16 ar
    17   18   17 1
    18   19   17 ar
    19   20   13 ar
    20   21   20 1
    21   22   13 1
    22   23   22 1
    23   24   23 ar
    24   25   24 1
    25   26   24 ar
    26   27   26 ar
    27   28   27 1
    28   29   27 ar
    29   30   29 1
    30   31   23 ar
    31   32   31 1
    32   33   16 1
    33   34   33 1
    34   35   34 ar
    35   36   35 1
    36   37   35 ar
    37   38   37 ar
    38   39   38 1
    39   40   38 ar
    40   41   40 1
    41   42   34 ar
    42   43   42 1
    43   44   19 1
    44   45   44 1
    45   46   45 ar
    46   47   46 1
    47   48   46 ar
    48   49   48 1
    49   50   48 ar
    50   51   50 1
    51   52   50 ar
    52   53   45 ar
    53   54   53 1
    54   19   20 ar
    55   29   31 ar
    56   40   42 ar
    57   52   53 ar
@<TRIPOS>SUBSTRUCTURE
     1 RES1 1

@<TRIPOS>CRYSIN
   6.5650   12.9681   13.3554  89.0300  87.7060  86.8160   2 1

