# MOL2 file generated by ConQuest
# Please check atom types

@<TRIPOS>MOLECULE
KEBHIJ
    98   104     3
SMALL
NO_CHARGES
****
Generated from CSD

@<TRIPOS>ATOM
      1 O1         4.0845   24.0554    0.4701 O.2       1 RES1    0.0000
      2 O2         3.0481   19.9906   -2.9197 O.3       1 RES1    0.0000
      3 O3         2.8683   17.8509   -2.2418 O.2       1 RES1    0.0000
      4 O4         6.1306   17.9468   -8.6954 O.2       1 RES1    0.0000
      5 O5         5.9794   15.8961   -8.0785 O.2       1 RES1    0.0000
      6 O6         2.5160   19.4814    2.7825 O.3       1 RES1    0.0000
      7 O7         2.2971   17.2777    2.4660 O.2       1 RES1    0.0000
      8 O8        -0.8337   19.0818    8.7321 O.2       1 RES1    0.0000
      9 O9        -0.7092   16.9375    8.6696 O.2       1 RES1    0.0000
     10 N1         4.0058   22.1121   -0.7513 N.am      1 RES1    0.0000
     11 N2         3.1586   22.1030    1.3342 N.am      1 RES1    0.0000
     12 N3         5.7989   17.0836   -7.9087 N.pl3     1 RES1    0.0000
     13 N4        -0.5526   18.0427    8.1682 N.pl3     1 RES1    0.0000
     14 C1         3.7867   22.8748    0.3519 C.2       1 RES1    0.0000
     15 C2         3.4365   20.7762   -0.6467 C.3       1 RES1    0.0000
     16 C3         2.8312   20.7808    0.7839 C.3       1 RES1    0.0000
     17 C4         4.6269   22.6556   -1.9483 C.3       1 RES1    0.0000
     18 C5         5.9383   22.0116   -2.3477 C.ar      1 RES1    0.0000
     19 C6         6.2854   21.9797   -3.6806 C.ar      1 RES1    0.0000
     20 C7         7.4858   21.4247   -4.0977 C.ar      1 RES1    0.0000
     21 C8         8.3491   20.8927   -3.1752 C.ar      1 RES1    0.0000
     22 C9         8.0315   20.9452   -1.8532 C.ar      1 RES1    0.0000
     23 C10        6.8211   21.4932   -1.4307 C.ar      1 RES1    0.0000
     24 C11        2.1656   22.8063    2.1603 C.3       1 RES1    0.0000
     25 C12        2.2377   22.6305    3.6656 C.ar      1 RES1    0.0000
     26 C13        3.3887   22.3427    4.3613 C.ar      1 RES1    0.0000
     27 C14        3.3765   22.3313    5.7634 C.ar      1 RES1    0.0000
     28 C15        2.2067   22.5962    6.4604 C.ar      1 RES1    0.0000
     29 C16        1.0559   22.8566    5.7620 C.ar      1 RES1    0.0000
     30 C17        1.0665   22.8748    4.3789 C.ar      1 RES1    0.0000
     31 C18        2.3741   20.4245   -1.6847 C.3       1 RES1    0.0000
     32 C19        1.4259   21.5458   -2.0488 C.3       1 RES1    0.0000
     33 C20        3.2129   18.6661   -3.0556 C.2       1 RES1    0.0000
     34 C21        3.8928   18.2962   -4.3327 C.ar      1 RES1    0.0000
     35 C22        4.4277   19.2439   -5.1914 C.ar      1 RES1    0.0000
     36 C23        5.0646   18.8580   -6.3653 C.ar      1 RES1    0.0000
     37 C24        5.1479   17.5175   -6.6479 C.ar      1 RES1    0.0000
     38 C25        4.6303   16.5492   -5.8069 C.ar      1 RES1    0.0000
     39 C26        3.9969   16.9466   -4.6479 C.ar      1 RES1    0.0000
     40 C27        3.3461   19.5979    1.5788 C.3       1 RES1    0.0000
     41 C28        4.7991   19.6732    1.9931 C.3       1 RES1    0.0000
     42 C29        2.1022   18.2619    3.1235 C.2       1 RES1    0.0000
     43 C30        1.3493   18.2482    4.4170 C.ar      1 RES1    0.0000
     44 C31        0.9315   17.0174    4.9088 C.ar      1 RES1    0.0000
     45 C32        0.2816   16.9420    6.1343 C.ar      1 RES1    0.0000
     46 C33        0.0631   18.1158    6.8204 C.ar      1 RES1    0.0000
     47 C34        0.4297   19.3467    6.3368 C.ar      1 RES1    0.0000
     48 C35        1.0958   19.4106    5.1194 C.ar      1 RES1    0.0000
     49 O10       -0.6078   11.9204   13.0485 O.2       2 RES2    0.0000
     50 O11       -1.6906   17.1339   14.3474 O.3       2 RES2    0.0000
     51 O12       -1.3031   19.2462   13.6544 O.2       2 RES2    0.0000
     52 O13       -4.4394   19.6138   20.1108 O.2       2 RES2    0.0000
     53 O14       -5.2506   21.2603   19.0062 O.2       2 RES2    0.0000
     54 O15       -5.0994   19.7783   19.8309 Du        3 SUP3    0.0000
     55 O16       -3.9775   21.6029   19.5496 Du        3 SUP3    0.0000
     56 O17        3.4224   15.4714   12.7401 O.3       2 RES2    0.0000
     57 O18        4.1651   17.5426   13.2360 O.2       2 RES2    0.0000
     58 O19        7.8144   14.7498    7.6071 O.2       2 RES2    0.0000
     59 O20        7.3385   16.7936    7.0582 O.2       2 RES2    0.0000
     60 N5        -1.0011   14.1355   13.5838 N.am      2 RES2    0.0000
     61 N6         1.0497   13.5372   12.9683 N.am      2 RES2    0.0000
     62 N7        -4.5300   20.2898   19.1040 N.pl3     2 RES2    0.0000
     63 N8         7.3039   15.8436    7.8299 N.pl3     2 RES2    0.0000
     64 C36       -0.2268   13.0805   13.1898 C.2       2 RES2    0.0000
     65 C37       -0.1951   15.3412   13.8093 C.3       2 RES2    0.0000
     66 C38        1.1159   14.9918   13.0634 C.3       2 RES2    0.0000
     67 C39       -2.2848   13.9277   14.2373 C.3       2 RES2    0.0000
     68 C40       -2.2272   13.8340   15.7522 C.ar      2 RES2    0.0000
     69 C41       -1.1607   13.2563   16.4044 C.ar      2 RES2    0.0000
     70 C42       -1.1584   13.1330   17.7847 C.ar      2 RES2    0.0000
     71 C43       -2.2385   13.5897   18.5143 C.ar      2 RES2    0.0000
     72 C44       -3.3190   14.1652   17.8771 C.ar      2 RES2    0.0000
     73 C45       -3.3097   14.2794   16.4967 C.ar      2 RES2    0.0000
     74 C46        1.9490   12.7745   12.1069 C.3       2 RES2    0.0000
     75 C47        1.8223   13.0782   10.6355 C.ar      2 RES2    0.0000
     76 C48        0.6327   13.5303   10.0649 C.ar      2 RES2    0.0000
     77 C49        0.5356   13.7404    8.6967 C.ar      2 RES2    0.0000
     78 C50        1.6249   13.4938    7.8761 C.ar      2 RES2    0.0000
     79 C51        2.8141   13.0439    8.4277 C.ar      2 RES2    0.0000
     80 C52        2.9057   12.8498    9.7986 C.ar      2 RES2    0.0000
     81 C53       -0.7871   16.6452   13.2876 C.3       2 RES2    0.0000
     82 C54       -1.5300   16.5492   11.9738 C.3       2 RES2    0.0000
     83 C55       -1.8060   18.4720   14.4370 C.2       2 RES2    0.0000
     84 C56       -2.5806   18.9128   15.6326 C.ar      2 RES2    0.0000
     85 C57       -3.0228   18.0085   16.5946 C.ar      2 RES2    0.0000
     86 C58       -3.6621   18.4606   17.7372 C.ar      2 RES2    0.0000
     87 C59       -3.8607   19.8125   17.8744 C.ar      2 RES2    0.0000
     88 C60       -3.4575   20.7282   16.9356 C.ar      2 RES2    0.0000
     89 C61       -2.7931   20.2784   15.8066 C.ar      2 RES2    0.0000
     90 C62        2.3654   15.5399   13.7523 C.3       2 RES2    0.0000
     91 C63        2.8041   14.7954   14.9846 C.3       2 RES2    0.0000
     92 C64        4.2049   16.5424   12.5702 C.2       2 RES2    0.0000
     93 C65        5.1175   16.3369   11.3977 C.ar      2 RES2    0.0000
     94 C66        5.6142   17.4604   10.7306 C.ar      2 RES2    0.0000
     95 C67        6.3374   17.3120    9.5676 C.ar      2 RES2    0.0000
     96 C68        6.5866   16.0286    9.1138 C.ar      2 RES2    0.0000
     97 C69        6.1707   14.8959    9.7837 C.ar      2 RES2    0.0000
     98 C70        5.4152   15.0603   10.9304 C.ar      2 RES2    0.0000
@<TRIPOS>BOND
     1    1   14 2
     2    2   31 1
     3    3   33 2
     4    4   12 2
     5    5   12 2
     6    6   40 1
     7    7   42 2
     8    8   13 2
     9    9   13 2
    10   10   14 1
    11   11   14 1
    12   12   37 1
    13   13   46 1
    14   15   10 1
    15   16   11 1
    16   17   10 1
    17   18   17 1
    18   19   18 ar
    19   20   19 ar
    20   21   20 ar
    21   22   21 ar
    22   23   18 ar
    23   24   11 1
    24   25   24 1
    25   26   25 ar
    26   27   26 ar
    27   28   27 ar
    28   29   28 ar
    29   30   25 ar
    30   31   15 1
    31   32   31 1
    32   33    2 1
    33   34   33 1
    34   35   34 ar
    35   36   35 ar
    36   37   36 ar
    37   38   37 ar
    38   39   34 ar
    39   40   16 1
    40   41   40 1
    41   42    6 1
    42   43   42 1
    43   44   43 ar
    44   45   44 ar
    45   46   45 ar
    46   47   46 ar
    47   48   43 ar
    48   49   64 2
    49   50   81 1
    50   51   83 2
    51   52   62 2
    52   53   62 2
    53   56   90 1
    54   57   92 2
    55   58   63 2
    56   59   63 2
    57   60   64 1
    58   61   64 1
    59   62   87 1
    60   63   96 1
    61   65   60 1
    62   66   61 1
    63   67   60 1
    64   68   67 1
    65   69   68 ar
    66   70   69 ar
    67   71   70 ar
    68   72   71 ar
    69   73   68 ar
    70   74   61 1
    71   75   74 1
    72   76   75 ar
    73   77   76 ar
    74   78   77 ar
    75   79   78 ar
    76   80   75 ar
    77   81   65 1
    78   82   81 1
    79   83   50 1
    80   84   83 1
    81   85   84 ar
    82   86   85 ar
    83   87   86 ar
    84   88   87 ar
    85   89   84 ar
    86   90   66 1
    87   91   90 1
    88   92   56 1
    89   93   92 1
    90   94   93 ar
    91   95   94 ar
    92   96   95 ar
    93   97   96 ar
    94   98   93 ar
    95   15   16 1
    96   22   23 ar
    97   29   30 ar
    98   38   39 ar
    99   47   48 ar
   100   65   66 1
   101   72   73 ar
   102   79   80 ar
   103   88   89 ar
   104   97   98 ar
@<TRIPOS>SUBSTRUCTURE
     1 RES1 1
     2 RES2 49
     3 SUP3 54

@<TRIPOS>CRYSIN
  10.5246   22.8360   13.6412  90.0000  95.1320  90.0000   4 1

