# MOL2 file generated by ConQuest
# Please check atom types

@<TRIPOS>MOLECULE
KEBTAO
    44    46     1
SMALL
NO_CHARGES
****
Generated from CSD

@<TRIPOS>ATOM
      1 N1         6.9340    0.7440   10.0043 N.pl3     1 RES1    0.0000
      2 N2         4.1604    3.8080   13.0044 N.pl3     1 RES1    0.0000
      3 O1         4.5324    4.4574   12.0391 O.2       1 RES1    0.0000
      4 O2         3.5030    4.3017   13.9077 O.2       1 RES1    0.0000
      5 O3         3.4401    0.4823    5.6670 O.3       1 RES1    0.0000
      6 C1         6.8154   -0.0092   11.2306 C.3       1 RES1    0.0000
      7 H1         6.5753   -0.9363   11.0234 H         1 RES1    0.0000
      8 C2         8.2499    0.0359   11.8067 C.3       1 RES1    0.0000
      9 H2         8.2288   -0.0031   12.7857 H         1 RES1    0.0000
     10 C3         8.7489    1.4064   11.3316 C.3       1 RES1    0.0000
     11 H3         8.4600    2.1085   11.9359 H         1 RES1    0.0000
     12 H4         9.7176    1.4209   11.2730 H         1 RES1    0.0000
     13 C4         8.1186    1.5797    9.9562 C.3       1 RES1    0.0000
     14 H5         7.8829    2.5068    9.7969 H         1 RES1    0.0000
     15 H6         8.7231    1.2836    9.2582 H         1 RES1    0.0000
     16 C5         6.0397    0.6487    8.9466 C.ar      1 RES1    0.0000
     17 C6         4.8877   -0.1305    9.0209 C.ar      1 RES1    0.0000
     18 H7         4.7037   -0.6052    9.7999 H         1 RES1    0.0000
     19 C7         4.0089   -0.2076    7.9449 C.ar      1 RES1    0.0000
     20 H8         3.2460   -0.7349    8.0128 H         1 RES1    0.0000
     21 C8         4.2541    0.4869    6.7825 C.ar      1 RES1    0.0000
     22 C9         5.4071    1.2591    6.6978 C.ar      1 RES1    0.0000
     23 H9         5.5917    1.7231    5.9132 H         1 RES1    0.0000
     24 C10        6.2774    1.3469    7.7564 C.ar      1 RES1    0.0000
     25 H10        7.0366    1.8788    7.6813 H         1 RES1    0.0000
     26 C11        2.1694   -0.1587    5.7888 C.3       1 RES1    0.0000
     27 H11        1.7009   -0.1023    4.9525 H         1 RES1    0.0000
     28 H12        1.6557    0.2755    6.4739 H         1 RES1    0.0000
     29 H13        2.2973   -1.0813    6.0212 H         1 RES1    0.0000
     30 C12        9.1194   -1.0676   11.2497 C.3       1 RES1    0.0000
     31 H14        9.2258   -0.9440   10.2934 H         1 RES1    0.0000
     32 H15        9.9982   -1.0249   11.6570 H         1 RES1    0.0000
     33 O4         8.5412   -2.3367   11.5014 O.3       1 RES1    0.0000
     34 H16        9.0216   -2.9227   11.1898 H         1 RES1    0.0000
     35 C13        5.8045    0.5701   12.2197 C.ar      1 RES1    0.0000
     36 C14        5.4148    1.8925   12.1453 C.ar      1 RES1    0.0000
     37 H17        5.7339    2.4389   11.4643 H         1 RES1    0.0000
     38 C15        4.5387    2.3985   13.1004 C.ar      1 RES1    0.0000
     39 C16        4.0249    1.6262   14.1041 C.ar      1 RES1    0.0000
     40 H18        3.4223    1.9803   14.7188 H         1 RES1    0.0000
     41 C17        4.4223    0.3152   14.1829 C.ar      1 RES1    0.0000
     42 H19        4.0979   -0.2259   14.8662 H         1 RES1    0.0000
     43 C18        5.3060   -0.2099   13.2473 C.ar      1 RES1    0.0000
     44 H20        5.5656   -1.1004   13.3127 H         1 RES1    0.0000
@<TRIPOS>BOND
     1    1    6 1
     2    2    3 2
     3    4    2 2
     4    5   21 1
     5    6    7 1
     6    8    6 1
     7    9    8 1
     8   10    8 1
     9   11   10 1
    10   12   10 1
    11   13    1 1
    12   14   13 1
    13   15   13 1
    14   16    1 1
    15   17   16 ar
    16   18   17 1
    17   19   17 ar
    18   20   19 1
    19   21   19 ar
    20   22   21 ar
    21   23   22 1
    22   24   16 ar
    23   25   24 1
    24   26    5 1
    25   27   26 1
    26   28   26 1
    27   29   26 1
    28   30    8 1
    29   31   30 1
    30   32   30 1
    31   33   30 1
    32   34   33 1
    33   35    6 1
    34   36   35 ar
    35   37   36 1
    36   38    2 1
    37   39   38 ar
    38   40   39 1
    39   41   39 ar
    40   42   41 1
    41   43   35 ar
    42   44   43 1
    43   10   13 1
    44   22   24 ar
    45   36   38 ar
    46   41   43 ar
@<TRIPOS>SUBSTRUCTURE
     1 RES1 1

@<TRIPOS>CRYSIN
   7.2761    7.6312   14.6614  90.0000  95.2240  90.0000   4 1

