# MOL2 file generated by ConQuest
# Please check atom types

@<TRIPOS>MOLECULE
KECCOM
    47    49     1
SMALL
NO_CHARGES
****
Generated from CSD

@<TRIPOS>ATOM
      1 N1         7.7745   14.4138   22.0798 N.pl3     1 RES1    0.0000
      2 O1         2.9320   11.6487   18.7759 O.2       1 RES1    0.0000
      3 O2         4.7236   11.2551   17.5155 O.3       1 RES1    0.0000
      4 O3         7.2779   15.1427   22.8936 O.2       1 RES1    0.0000
      5 O4         8.9565   14.1609   21.9494 O.2       1 RES1    0.0000
      6 C1         6.8237   13.7231   21.1385 C.ar      1 RES1    0.0000
      7 C2         5.5049   13.7243   21.4549 C.ar      1 RES1    0.0000
      8 H1         5.2097   14.1669   22.2167 H         1 RES1    0.0000
      9 C3         4.5823   13.0527   20.6240 C.ar      1 RES1    0.0000
     10 H2         3.6791   13.0133   20.8438 H         1 RES1    0.0000
     11 C4         5.0678   12.4515   19.4660 C.ar      1 RES1    0.0000
     12 C5         6.4304   12.5052   19.1870 C.ar      1 RES1    0.0000
     13 H3         6.7545   12.1091   18.4114 H         1 RES1    0.0000
     14 C6         7.3039   13.1350   20.0431 C.ar      1 RES1    0.0000
     15 H4         8.2153   13.1505   19.8608 H         1 RES1    0.0000
     16 C7         4.1080   11.7477   18.5656 C.2       1 RES1    0.0000
     17 C8         3.9943   10.4510   16.5566 C.3       1 RES1    0.0000
     18 H5         3.0948   10.2816   16.9058 H         1 RES1    0.0000
     19 C9         4.7421    9.1197   16.4593 C.3       1 RES1    0.0000
     20 H6         4.3273    8.6020   15.7379 H         1 RES1    0.0000
     21 C10        4.5674    8.3408   17.7292 C.2       1 RES1    0.0000
     22 C11        5.5591    8.1511   18.5807 C.2       1 RES1    0.0000
     23 H7         5.3540    7.7037   19.3703 H         1 RES1    0.0000
     24 C12        6.9790    8.5817   18.4008 C.3       1 RES1    0.0000
     25 H8         7.5567    7.8207   18.5682 H         1 RES1    0.0000
     26 H9         7.1842    9.2569   19.0667 H         1 RES1    0.0000
     27 C13        7.2987    9.1352   17.0425 C.3       1 RES1    0.0000
     28 H10        8.0049    9.8140   17.0324 H         1 RES1    0.0000
     29 C14        6.1955    9.3667   16.0679 C.3       1 RES1    0.0000
     30 H11        6.3211   10.1683   15.5187 H         1 RES1    0.0000
     31 C15        3.8776   11.2502   15.2872 C.3       1 RES1    0.0000
     32 H12        3.3877   12.0566   15.4604 H         1 RES1    0.0000
     33 H13        3.4152   10.7313   14.6242 H         1 RES1    0.0000
     34 H14        4.7548   11.4709   14.9659 H         1 RES1    0.0000
     35 C16        3.1884    7.8183   17.9965 C.3       1 RES1    0.0000
     36 H15        3.1825    7.3423   18.8295 H         1 RES1    0.0000
     37 H16        2.9275    7.2266   17.2877 H         1 RES1    0.0000
     38 H17        2.5714    8.5531   18.0436 H         1 RES1    0.0000
     39 C17        7.2177    8.3002   15.8098 C.3       1 RES1    0.0000
     40 C18        8.2116    8.6056   14.7066 C.3       1 RES1    0.0000
     41 H18        8.4071    9.5456   14.7046 H         1 RES1    0.0000
     42 H19        7.8369    8.3539   13.8603 H         1 RES1    0.0000
     43 H20        9.0197    8.1105   14.8594 H         1 RES1    0.0000
     44 C19        6.8772    6.8353   15.9087 C.3       1 RES1    0.0000
     45 H21        6.2483    6.7005   16.6203 H         1 RES1    0.0000
     46 H22        7.6756    6.3331   16.0876 H         1 RES1    0.0000
     47 H23        6.4921    6.5395   15.0805 H         1 RES1    0.0000
@<TRIPOS>BOND
     1    1    4 2
     2    2   16 2
     3    3   16 1
     4    5    1 2
     5    6    1 1
     6    7    6 ar
     7    8    7 1
     8    9    7 ar
     9   10    9 1
    10   11    9 ar
    11   12   11 ar
    12   13   12 1
    13   14    6 ar
    14   15   14 1
    15   16   11 1
    16   17    3 1
    17   18   17 1
    18   19   17 1
    19   20   19 1
    20   21   19 1
    21   22   21 2
    22   23   22 1
    23   24   22 1
    24   25   24 1
    25   26   24 1
    26   27   24 1
    27   28   27 1
    28   29   19 1
    29   30   29 1
    30   31   17 1
    31   32   31 1
    32   33   31 1
    33   34   31 1
    34   35   21 1
    35   36   35 1
    36   37   35 1
    37   38   35 1
    38   39   27 1
    39   40   39 1
    40   41   40 1
    41   42   40 1
    42   43   40 1
    43   44   39 1
    44   45   44 1
    45   46   44 1
    46   47   44 1
    47   12   14 ar
    48   27   29 1
    49   29   39 1
@<TRIPOS>SUBSTRUCTURE
     1 RES1 1

@<TRIPOS>CRYSIN
   7.4340   11.9290   20.1020  90.0000  90.0000  90.0000  19 1

