# MOL2 file generated by ConQuest
# Please check atom types

@<TRIPOS>MOLECULE
KECMEK
   128   128     4
SMALL
NO_CHARGES
****
Generated from CSD

@<TRIPOS>ATOM
      1 O1         4.8659    4.8505    1.7994 O.2       1 RES1    0.0000
      2 O2         7.4409    7.0717   -1.0635 O.3       1 RES1    0.0000
      3 O3         2.8203   10.1297    4.5407 O.3       1 RES1    0.0000
      4 N1         6.5962    7.2309    0.0062 N.2       1 RES1    0.0000
      5 C1         4.5708    7.1476    2.2548 C.ar      1 RES1    0.0000
      6 C2         3.7684    6.8380    3.3712 C.ar      1 RES1    0.0000
      7 C3         3.1807    7.8809    4.1041 C.ar      1 RES1    0.0000
      8 C4         3.4040    9.1721    3.7486 C.ar      1 RES1    0.0000
      9 C5         4.1678    9.5141    2.6571 C.ar      1 RES1    0.0000
     10 C6         4.7619    8.4833    1.9117 C.ar      1 RES1    0.0000
     11 C7         5.1463    6.0102    1.4969 C.2       1 RES1    0.0000
     12 C8         6.0579    6.1621    0.3586 C.2       1 RES1    0.0000
     13 C9         3.0219   11.5198    4.2444 C.3       1 RES1    0.0000
     14 C10        2.2136   12.3021    5.1925 C.2       1 RES1    0.0000
     15 C11        2.6317   13.1250    6.1125 C.2       1 RES1    0.0000
     16 C12        4.0418   13.4573    6.4088 C.3       1 RES1    0.0000
     17 C13        1.6272   13.8598    6.9639 C.3       1 RES1    0.0000
     18 O4         8.6289    0.3669   -1.8992 O.2       2 RES2    0.0000
     19 O5         6.0004    2.5573    0.9356 O.3       2 RES2    0.0000
     20 O6        10.6412    5.6856   -4.6031 O.3       2 RES2    0.0000
     21 N2         6.8750    2.7542   -0.1092 N.2       2 RES2    0.0000
     22 C14        8.9359    2.6763   -2.3296 C.ar      2 RES2    0.0000
     23 C15        8.7416    4.0226   -1.9897 C.ar      2 RES2    0.0000
     24 C16        9.3083    5.0328   -2.6945 C.ar      2 RES2    0.0000
     25 C17       10.0899    4.7218   -3.8172 C.ar      2 RES2    0.0000
     26 C18       10.3115    3.4105   -4.1821 C.ar      2 RES2    0.0000
     27 C19        9.7768    2.4149   -3.4367 C.ar      2 RES2    0.0000
     28 C20        8.3771    1.5469   -1.5936 C.2       2 RES2    0.0000
     29 C21        7.4078    1.6751   -0.4771 C.2       2 RES2    0.0000
     30 C22       10.4204    7.0843   -4.2819 C.3       2 RES2    0.0000
     31 C23       11.0136    7.8897   -5.3079 C.2       2 RES2    0.0000
     32 C24       10.4477    8.6994   -6.2029 C.2       2 RES2    0.0000
     33 C25       11.3291    9.4455   -7.1167 C.3       2 RES2    0.0000
     34 C26        9.0352    8.9690   -6.4088 C.3       2 RES2    0.0000
     35 O7         2.6443   -1.2273   17.3801 O.2       3 RES3    0.0000
     36 O8         0.4153    1.3587   14.5110 O.3       3 RES3    0.0000
     37 O9        -2.6111   -3.1993   20.1900 O.3       3 RES3    0.0000
     38 N3         0.2627    0.5385   15.5838 N.2       3 RES3    0.0000
     39 C27        0.3644   -1.4953   17.8385 C.ar      3 RES3    0.0000
     40 C28       -0.9925   -1.3029   17.5454 C.ar      3 RES3    0.0000
     41 C29       -1.9864   -1.8725   18.2751 C.ar      3 RES3    0.0000
     42 C30       -1.6806   -2.6186   19.3791 C.ar      3 RES3    0.0000
     43 C31       -0.3605   -2.8920   19.7253 C.ar      3 RES3    0.0000
     44 C32        0.6416   -2.3030   18.9644 C.ar      3 RES3    0.0000
     45 C33        1.4788   -0.9444   17.0807 C.2       3 RES3    0.0000
     46 C34        1.3225   -0.0110   15.9393 C.2       3 RES3    0.0000
     47 C35       -4.0212   -3.0170   19.8719 C.3       3 RES3    0.0000
     48 C36       -4.7625   -3.8524   20.8324 C.2       3 RES3    0.0000
     49 C37       -5.6381   -3.4449   21.7618 C.2       3 RES3    0.0000
     50 C38       -6.3112   -4.4896   22.6163 C.3       3 RES3    0.0000
     51 C39       -5.9517   -2.0075   22.0643 C.3       3 RES3    0.0000
     52 O10        7.1315    2.5345   13.7095 O.2       4 RES4    0.0000
     53 O11        4.9327   -0.1072   16.5349 O.3       4 RES4    0.0000
     54 O12        1.8405    4.5915   10.9900 O.3       4 RES4    0.0000
     55 N4         4.7563    0.7717   15.4684 N.2       4 RES4    0.0000
     56 C40        4.8514    2.8477   13.2573 C.ar      4 RES4    0.0000
     57 C41        5.1073    3.6417   12.1595 C.ar      4 RES4    0.0000
     58 C42        4.0912    4.2743   11.4204 C.ar      4 RES4    0.0000
     59 C43        2.7775    4.0188   11.8102 C.ar      4 RES4    0.0000
     60 C44        2.4786    3.2494   12.9049 C.ar      4 RES4    0.0000
     61 C45        3.5058    2.6482   13.6097 C.ar      4 RES4    0.0000
     62 C46        5.9562    2.2510   14.0057 C.2       4 RES4    0.0000
     63 C47        5.8336    1.3155   15.1409 C.2       4 RES4    0.0000
     64 C48        0.4188    4.3099   11.3456 C.3       4 RES4    0.0000
     65 C49       -0.3871    4.9016   10.3258 C.2       4 RES4    0.0000
     66 C50       -1.2041    4.3440    9.4307 C.2       4 RES4    0.0000
     67 C51       -1.9250    5.2314    8.5326 C.3       4 RES4    0.0000
     68 C52       -1.4250    2.9057    9.2311 C.3       4 RES4    0.0000
     69 H1         8.2393    7.6554   -1.2474 H         1 RES1    0.0000
     70 H2         3.6057    5.8088    3.6550 H         1 RES1    0.0000
     71 H3         2.5511    7.6574    4.9555 H         1 RES1    0.0000
     72 H4         4.3050   10.5484    2.3764 H         1 RES1    0.0000
     73 H5         5.3770    8.7311    1.0603 H         1 RES1    0.0000
     74 H6         6.2786    5.2777   -0.2214 H         1 RES1    0.0000
     75 H7         4.0665   11.7718    4.3536 H         1 RES1    0.0000
     76 H8         2.7063   11.7279    3.2309 H         1 RES1    0.0000
     77 H9         1.1429   12.1855    5.1114 H         1 RES1    0.0000
     78 H10        4.0100   14.1784    7.2103 H         1 RES1    0.0000
     79 H11        4.5495   13.8867    5.5574 H         1 RES1    0.0000
     80 H12        4.5721   12.5754    6.7362 H         1 RES1    0.0000
     81 H13        2.0400   14.5800    7.6531 H         1 RES1    0.0000
     82 H14        1.1290   13.0759    7.5159 H         1 RES1    0.0000
     83 H15        0.9167   14.3502    6.3121 H         1 RES1    0.0000
     84 H16        5.6402    3.4265    1.2818 H         2 RES2    0.0000
     85 H17        8.1219    4.2630   -1.1383 H         2 RES2    0.0000
     86 H18        9.1583    6.0601   -2.3982 H         2 RES2    0.0000
     87 H19       10.9059    3.1784   -5.0522 H         2 RES2    0.0000
     88 H20       10.0017    1.3913   -3.6987 H         2 RES2    0.0000
     89 H21        7.1387    0.7763    0.0561 H         2 RES2    0.0000
     90 H22       10.8769    7.3151   -3.3307 H         2 RES2    0.0000
     91 H23        9.3606    7.2828   -4.2289 H         2 RES2    0.0000
     92 H24       12.0906    7.8264   -5.3734 H         2 RES2    0.0000
     93 H25       10.7965   10.0310   -7.8527 H         2 RES2    0.0000
     94 H26       11.9132    8.6866   -7.6157 H         2 RES2    0.0000
     95 H27       11.9858   10.0903   -6.5491 H         2 RES2    0.0000
     96 H28        8.5423    8.3050   -5.7133 H         2 RES2    0.0000
     97 H29        8.7095    8.7455   -7.4130 H         2 RES2    0.0000
     98 H30        8.7836    9.9922   -6.1686 H         2 RES2    0.0000
     99 H31       -0.4411    1.8019   14.2085 H         3 RES3    0.0000
    100 H32       -1.2586   -0.6779   16.7065 H         3 RES3    0.0000
    101 H33       -3.0181   -1.7347   17.9882 H         3 RES3    0.0000
    102 H34       -0.1236   -3.5436   20.5517 H         3 RES3    0.0000
    103 H35        1.6710   -2.4629   19.2482 H         3 RES3    0.0000
    104 H36        2.2090    0.2133   15.3655 H         3 RES3    0.0000
    105 H37       -4.3010   -1.9792   19.9810 H         3 RES3    0.0000
    106 H38       -4.2225   -3.3405   18.8614 H         3 RES3    0.0000
    107 H39       -4.5807   -4.9152   20.7825 H         3 RES3    0.0000
    108 H40       -6.9810   -3.9654   23.2805 H         3 RES3    0.0000
    109 H41       -5.7017   -5.1762   23.1839 H         3 RES3    0.0000
    110 H42       -6.8856   -5.0389   21.8834 H         3 RES3    0.0000
    111 H43       -6.6887   -1.8801   22.8439 H         3 RES3    0.0000
    112 H44       -6.3154   -1.5635   21.1505 H         3 RES3    0.0000
    113 H45       -5.0305   -1.5265   22.3574 H         3 RES3    0.0000
    114 H46        4.0689   -0.5299   16.8562 H         4 RES4    0.0000
    115 H47        6.1335    3.7868   11.8539 H         4 RES4    0.0000
    116 H48        4.3192    4.9244   10.5909 H         4 RES4    0.0000
    117 H49        1.4523    3.1142   13.2105 H         4 RES4    0.0000
    118 H50        3.2678    2.0125   14.4486 H         4 RES4    0.0000
    119 H51        6.7182    1.0873   15.7179 H         4 RES4    0.0000
    120 H52        0.1701    4.7376   12.3061 H         4 RES4    0.0000
    121 H53        0.2508    3.2435   11.3736 H         4 RES4    0.0000
    122 H54       -0.3274    5.9779   10.2728 H         4 RES4    0.0000
    123 H55       -2.5411    4.6256    7.8839 H         4 RES4    0.0000
    124 H56       -1.2423    5.8176    7.9369 H         4 RES4    0.0000
    125 H57       -2.5528    5.8911    9.1126 H         4 RES4    0.0000
    126 H58       -0.8081    2.5017   10.0201 H         4 RES4    0.0000
    127 H59       -0.9323    2.7657    8.2799 H         4 RES4    0.0000
    128 H60       -2.3773    2.3952    9.2218 H         4 RES4    0.0000
@<TRIPOS>BOND
     1    1   11 2
     2    2    4 1
     3    3    8 1
     4    4   12 2
     5    5    6 ar
     6    6    7 ar
     7    7    8 ar
     8    8    9 ar
     9    9   10 ar
    10   10    5 ar
    11   11    5 1
    12   12   11 1
    13   13    3 1
    14   14   13 1
    15   15   14 2
    16   16   15 1
    17   17   15 1
    18   18   28 2
    19   19   21 1
    20   20   25 1
    21   21   29 2
    22   22   23 ar
    23   23   24 ar
    24   24   25 ar
    25   25   26 ar
    26   26   27 ar
    27   27   22 ar
    28   28   22 1
    29   29   28 1
    30   30   20 1
    31   31   30 1
    32   32   31 2
    33   33   32 1
    34   34   32 1
    35   35   45 2
    36   36   38 1
    37   37   42 1
    38   38   46 2
    39   39   40 ar
    40   40   41 ar
    41   41   42 ar
    42   42   43 ar
    43   43   44 ar
    44   44   39 ar
    45   45   39 1
    46   46   45 1
    47   47   37 1
    48   48   47 1
    49   49   48 2
    50   50   49 1
    51   51   49 1
    52   52   62 2
    53   53   55 1
    54   54   59 1
    55   55   63 2
    56   56   57 ar
    57   57   58 ar
    58   58   59 ar
    59   59   60 ar
    60   60   61 ar
    61   61   56 ar
    62   62   56 1
    63   63   62 1
    64   64   54 1
    65   65   64 1
    66   66   65 2
    67   67   66 1
    68   68   66 1
    69   69    2 1
    70   70    6 1
    71   71    7 1
    72   72    9 1
    73   73   10 1
    74   74   12 1
    75   75   13 1
    76   76   13 1
    77   77   14 1
    78   78   16 1
    79   79   16 1
    80   80   16 1
    81   81   17 1
    82   82   17 1
    83   83   17 1
    84   84   19 1
    85   85   23 1
    86   86   24 1
    87   87   26 1
    88   88   27 1
    89   89   29 1
    90   90   30 1
    91   91   30 1
    92   92   31 1
    93   93   33 1
    94   94   33 1
    95   95   33 1
    96   96   34 1
    97   97   34 1
    98   98   34 1
    99   99   36 1
   100  100   40 1
   101  101   41 1
   102  102   43 1
   103  103   44 1
   104  104   46 1
   105  105   47 1
   106  106   47 1
   107  107   48 1
   108  108   50 1
   109  109   50 1
   110  110   50 1
   111  111   51 1
   112  112   51 1
   113  113   51 1
   114  114   53 1
   115  115   57 1
   116  116   58 1
   117  117   60 1
   118  118   61 1
   119  119   63 1
   120  120   64 1
   121  121   64 1
   122  122   65 1
   123  123   67 1
   124  124   67 1
   125  125   67 1
   126  126   68 1
   127  127   68 1
   128  128   68 1
@<TRIPOS>SUBSTRUCTURE
     1 RES1 1
     2 RES2 18
     3 RES3 35
     4 RES4 52

@<TRIPOS>CRYSIN
   8.9869    8.9902   31.4910  95.8810  95.3260  90.4380   2 1

