# MOL2 file generated by ConQuest
# Please check atom types

@<TRIPOS>MOLECULE
KECRUF
    19    18     2
SMALL
NO_CHARGES
****
Generated from CSD

@<TRIPOS>ATOM
      1 C1         2.2846    0.9374   -0.1330 C.ar      1 RES1    0.0000
      2 C2         3.1484    1.8769    0.4373 C.ar      1 RES1    0.0000
      3 C3         2.9614    3.2786    0.3116 C.ar      1 RES1    0.0000
      4 C4         1.8776    3.7250   -0.4248 C.ar      1 RES1    0.0000
      5 C5         0.9878    2.7945   -0.9702 C.ar      1 RES1    0.0000
      6 C6         1.1932    1.4364   -0.8085 C.ar      1 RES1    0.0000
      7 C7         2.4112    6.0006   -0.0507 C.3       1 RES1    0.0000
      8 N1         4.3290    1.4989    1.1973 N.pl3     1 RES1    0.0000
      9 O1         2.4620   -0.3958    0.0243 O.3       1 RES1    0.0000
     10 O2         4.5056    0.2738    1.4119 O.2       1 RES1    0.0000
     11 O3         5.0772    2.3272    1.6515 O.2       1 RES1    0.0000
     12 O4         1.5659    5.0235   -0.6438 O.3       1 RES1    0.0000
     13 H1         3.3493   -0.5059    0.5071 H         1 RES1    0.0000
     14 H2         3.7713    3.7200    0.4483 H         1 RES1    0.0000
     15 H3         0.1630    3.0256   -1.2862 H         1 RES1    0.0000
     16 H4         2.1872    6.8250   -0.2646 H         1 RES1    0.0000
     17 H5         2.5209    5.9818    1.0069 H         1 RES1    0.0000
     18 H6         3.4378    5.8429   -0.2940 H         1 RES1    0.0000
     19 H7        -0.3182    0.7142   -1.0657 Du        2 SUP2    0.0000
@<TRIPOS>BOND
     1    1    2 ar
     2    2    3 ar
     3    3    4 ar
     4    4    5 ar
     5    5    6 ar
     6    6    1 ar
     7    7   12 1
     8    8    2 1
     9    9    1 1
    10   10    8 2
    11   11    8 2
    12   12    4 1
    13   13    9 1
    14   14    3 1
    15   15    5 1
    16   16    7 1
    17   17    7 1
    18   18    7 1
@<TRIPOS>SUBSTRUCTURE
     1 RES1 1
     2 SUP2 19

@<TRIPOS>CRYSIN
  10.2930    9.9200    7.4610  90.0000  99.9100  90.0000  14 1

