# MOL2 file generated by ConQuest
# Please check atom types

@<TRIPOS>MOLECULE
KECRES
    82    88     2
SMALL
NO_CHARGES
****
Generated from CSD

@<TRIPOS>ATOM
      1 O1         2.9715    2.5907    1.5727 O.3       1 RES1    0.0000
      2 O2         3.5079   -0.1546    1.3122 O.2       1 RES1    0.0000
      3 O3         0.1333    2.9157    1.2524 O.2       1 RES1    0.0000
      4 O4         3.1617    0.8586    4.1856 O.2       1 RES1    0.0000
      5 N1         2.0092    1.5859    1.5214 N.am      1 RES1    0.0000
      6 N2         5.5626    3.2183    3.3116 N.2       1 RES1    0.0000
      7 N3         5.1578    1.9607    3.8296 N.am      1 RES1    0.0000
      8 C1         0.6713    1.8435    1.2475 C.2       1 RES1    0.0000
      9 C2         0.0634    0.4979    1.1006 C.ar      1 RES1    0.0000
     10 C3         1.0924   -0.4480    1.1205 C.ar      1 RES1    0.0000
     11 C4         2.3798    0.2311    1.3097 C.2       1 RES1    0.0000
     12 C5        -1.2582    0.1047    0.9163 C.ar      1 RES1    0.0000
     13 H1        -1.9425    0.7331    0.8690 H         1 RES1    0.0000
     14 C6        -1.5247   -1.2426    0.8067 C.ar      1 RES1    0.0000
     15 H2        -2.4042   -1.5277    0.7196 H         1 RES1    0.0000
     16 C7        -0.5007   -2.1826    0.8267 C.ar      1 RES1    0.0000
     17 H3        -0.7071   -3.0844    0.7320 H         1 RES1    0.0000
     18 C8         0.8079   -1.8053    0.9835 C.ar      1 RES1    0.0000
     19 H4         1.4890   -2.4395    0.9985 H         1 RES1    0.0000
     20 C9         3.2706    2.9764    2.9631 C.3       1 RES1    0.0000
     21 C10        4.5206    3.8400    2.8236 C.2       1 RES1    0.0000
     22 C11        3.8135    1.7712    3.7325 C.2       1 RES1    0.0000
     23 C12        2.1246    3.6721    3.6304 C.3       1 RES1    0.0000
     24 H5         1.8125    4.3860    3.0676 H         1 RES1    0.0000
     25 H6         2.4139    4.0311    4.4720 H         1 RES1    0.0000
     26 H7         1.4126    3.0462    3.7773 H         1 RES1    0.0000
     27 C13        4.6165    5.1440    2.1737 C.3       1 RES1    0.0000
     28 H8         5.5219    5.4566    2.2136 H         1 RES1    0.0000
     29 H9         4.0411    5.7683    2.6219 H         1 RES1    0.0000
     30 H10        4.3483    5.0634    1.2549 H         1 RES1    0.0000
     31 C14        6.1673    1.0647    4.3002 C.ar      1 RES1    0.0000
     32 C15        5.8925   -0.2660    4.4745 C.ar      1 RES1    0.0000
     33 H11        5.0326   -0.5868    4.3300 H         1 RES1    0.0000
     34 C16        6.8987   -1.1304    4.8654 C.ar      1 RES1    0.0000
     35 H12        6.7313   -2.0422    4.9426 H         1 RES1    0.0000
     36 C17        8.1764   -0.6167    5.1467 C.ar      1 RES1    0.0000
     37 H13        8.8559   -1.1902    5.4206 H         1 RES1    0.0000
     38 C18        8.4154    0.6691    5.0272 C.ar      1 RES1    0.0000
     39 H14        9.2623    0.9957    5.2314 H         1 RES1    0.0000
     40 C19        7.4157    1.5651    4.5940 C.ar      1 RES1    0.0000
     41 H15        7.5961    2.4735    4.5118 H         1 RES1    0.0000
     42 O5         6.9296    1.5975   10.3035 O.3       2 RES2    0.0000
     43 O6         7.4823    4.3436   10.5749 O.2       2 RES2    0.0000
     44 O7         4.1158    1.2600   10.6446 O.2       2 RES2    0.0000
     45 O8         7.1800    3.3812    7.7313 O.2       2 RES2    0.0000
     46 N4         5.9738    2.6015   10.3632 N.am      2 RES2    0.0000
     47 N5         9.5272    0.9450    8.5480 N.2       2 RES2    0.0000
     48 N6         9.1501    2.2117    8.0500 N.am      2 RES2    0.0000
     49 C20        4.6393    2.3447   10.6047 C.2       2 RES2    0.0000
     50 C21        4.0329    3.7061   10.7915 C.ar      2 RES2    0.0000
     51 C22        5.0489    4.6329   10.7815 C.ar      2 RES2    0.0000
     52 C23        6.3639    3.9547   10.5674 C.2       2 RES2    0.0000
     53 C24        2.7390    4.0735   10.9060 C.ar      2 RES2    0.0000
     54 H16        2.0612    3.4368   10.8737 H         2 RES2    0.0000
     55 C25        2.4383    5.4109   11.0729 C.ar      2 RES2    0.0000
     56 H17        1.5556    5.6752   11.2048 H         2 RES2    0.0000
     57 C26        3.4461    6.3609   11.0430 C.ar      2 RES2    0.0000
     58 H18        3.2397    7.2618   11.1451 H         2 RES2    0.0000
     59 C27        4.7612    5.9694   10.8637 C.ar      2 RES2    0.0000
     60 H19        5.4390    6.6027   10.7965 H         2 RES2    0.0000
     61 C28        7.2580    1.2268    8.9165 C.3       2 RES2    0.0000
     62 C29        8.4983    0.4123    9.0535 C.2       2 RES2    0.0000
     63 C30        7.8204    2.4395    8.1696 C.2       2 RES2    0.0000
     64 C31        6.0827    0.5785    8.2119 C.3       2 RES2    0.0000
     65 H20        5.8129   -0.2045    8.6974 H         2 RES2    0.0000
     66 H21        6.3412    0.3300    7.3205 H         2 RES2    0.0000
     67 H22        5.3512    1.1985    8.1720 H         2 RES2    0.0000
     68 C32        8.5487   -0.9384    9.6386 C.3       2 RES2    0.0000
     69 H23        9.4069   -1.3315    9.4643 H         2 RES2    0.0000
     70 H24        7.8611   -1.4820    9.2477 H         2 RES2    0.0000
     71 H25        8.4089   -0.8819   10.5873 H         2 RES2    0.0000
     72 C33       10.1693    3.0761    7.5794 C.ar      2 RES2    0.0000
     73 C34        9.9531    4.4201    7.5222 C.ar      2 RES2    0.0000
     74 H26        9.1176    4.7650    7.7438 H         2 RES2    0.0000
     75 C35       10.9837    5.2853    7.1288 C.ar      2 RES2    0.0000
     76 H27       10.8212    6.1980    7.0665 H         2 RES2    0.0000
     77 C36       12.2110    4.8041    6.8424 C.ar      2 RES2    0.0000
     78 H28       12.9035    5.3768    6.6059 H         2 RES2    0.0000
     79 C37       12.4093    3.4344    6.9071 C.ar      2 RES2    0.0000
     80 H29       13.2416    3.0844    6.6831 H         2 RES2    0.0000
     81 C38       11.4112    2.5866    7.2956 C.ar      2 RES2    0.0000
     82 H30       11.5770    1.6748    7.3653 H         2 RES2    0.0000
@<TRIPOS>BOND
     1    1    5 1
     2    2   11 2
     3    3    8 2
     4    4   22 2
     5    5    8 1
     6    6    7 1
     7    7   22 1
     8    8    9 1
     9    9   10 ar
    10   10   11 1
    11   11    5 1
    12   12    9 ar
    13   13   12 1
    14   14   12 ar
    15   15   14 1
    16   16   14 ar
    17   17   16 1
    18   18   10 ar
    19   19   18 1
    20   20    1 1
    21   21    6 2
    22   22   20 1
    23   23   20 1
    24   24   23 1
    25   25   23 1
    26   26   23 1
    27   27   21 1
    28   28   27 1
    29   29   27 1
    30   30   27 1
    31   31    7 1
    32   32   31 ar
    33   33   32 1
    34   34   32 ar
    35   35   34 1
    36   36   34 ar
    37   37   36 1
    38   38   36 ar
    39   39   38 1
    40   40   31 ar
    41   41   40 1
    42   42   46 1
    43   43   52 2
    44   44   49 2
    45   45   63 2
    46   46   49 1
    47   47   48 1
    48   48   63 1
    49   49   50 1
    50   50   51 ar
    51   51   52 1
    52   52   46 1
    53   53   50 ar
    54   54   53 1
    55   55   53 ar
    56   56   55 1
    57   57   55 ar
    58   58   57 1
    59   59   51 ar
    60   60   59 1
    61   61   42 1
    62   62   47 2
    63   63   61 1
    64   64   61 1
    65   65   64 1
    66   66   64 1
    67   67   64 1
    68   68   62 1
    69   69   68 1
    70   70   68 1
    71   71   68 1
    72   72   48 1
    73   73   72 ar
    74   74   73 1
    75   75   73 ar
    76   76   75 1
    77   77   75 ar
    78   78   77 1
    79   79   77 ar
    80   80   79 1
    81   81   72 ar
    82   82   81 1
    83   16   18 ar
    84   20   21 1
    85   38   40 ar
    86   57   59 ar
    87   61   62 1
    88   79   81 ar
@<TRIPOS>SUBSTRUCTURE
     1 RES1 1
     2 RES2 42

@<TRIPOS>CRYSIN
  16.2553    8.3116   24.8996  90.0000  90.0000  90.0000  29 1

