# MOL2 file generated by ConQuest
# Please check atom types

@<TRIPOS>MOLECULE
KEDKEK
   110   112     2
SMALL
NO_CHARGES
****
Generated from CSD

@<TRIPOS>ATOM
      1 O1         5.4836    7.5560    7.5766 O.2       1 RES1    0.0000
      2 N1         5.4304    6.6967    6.6025 N.pl3     1 RES1    0.0000
      3 C1         4.5962    6.9463    5.5375 C.ar      1 RES1    0.0000
      4 C2         4.6079    6.1130    4.4511 C.ar      1 RES1    0.0000
      5 H1         4.0604    6.2969    3.7222 H         1 RES1    0.0000
      6 C3         5.4205    5.0069    4.4296 C.ar      1 RES1    0.0000
      7 H2         5.4490    4.4538    3.6825 H         1 RES1    0.0000
      8 C4         6.1987    4.7296    5.5436 C.ar      1 RES1    0.0000
      9 H3         6.7309    3.9678    5.5486 H         1 RES1    0.0000
     10 C5         6.2004    5.5541    6.6347 C.ar      1 RES1    0.0000
     11 C6         3.6623    8.0874    5.6924 C.2       1 RES1    0.0000
     12 C7         2.7972    8.1648    6.9089 C.3       1 RES1    0.0000
     13 H4         3.1830    8.7777    7.5370 H         1 RES1    0.0000
     14 H5         2.7301    7.2950    7.3089 H         1 RES1    0.0000
     15 H6         1.9212    8.4698    6.6593 H         1 RES1    0.0000
     16 N2         3.5915    8.8887    4.6931 N.2       1 RES1    0.0000
     17 C8         2.6761    9.9758    4.7413 C.ar      1 RES1    0.0000
     18 C9         1.4157    9.8459    4.1293 C.ar      1 RES1    0.0000
     19 C10        0.5988   10.9579    4.0776 C.ar      1 RES1    0.0000
     20 H7        -0.2303   10.8908    3.6610 H         1 RES1    0.0000
     21 C11        0.9805   12.1618    4.6280 C.ar      1 RES1    0.0000
     22 H8         0.4086   12.8944    4.5949 H         1 RES1    0.0000
     23 C12        2.2101   12.2713    5.2246 C.ar      1 RES1    0.0000
     24 H9         2.4665   13.0885    5.5866 H         1 RES1    0.0000
     25 C13        3.0854   11.1928    5.3048 C.ar      1 RES1    0.0000
     26 C14        0.9735    8.5136    3.5222 C.3       1 RES1    0.0000
     27 H10        1.5862    7.8160    3.8379 H         1 RES1    0.0000
     28 C15        1.0471    8.5544    2.0363 C.3       1 RES1    0.0000
     29 H11        0.5459    7.8218    1.6710 H         1 RES1    0.0000
     30 H12        1.9637    8.4858    1.7586 H         1 RES1    0.0000
     31 H13        0.6776    9.3818    1.7206 H         1 RES1    0.0000
     32 C16       -0.4422    8.1268    3.9453 C.3       1 RES1    0.0000
     33 H14       -1.0762    8.6785    3.4809 H         1 RES1    0.0000
     34 H15       -0.5388    8.2567    4.8924 H         1 RES1    0.0000
     35 H16       -0.6004    7.2046    3.7305 H         1 RES1    0.0000
     36 C17        4.4492   11.3358    5.9684 C.3       1 RES1    0.0000
     37 H17        4.7037   10.4559    6.3172 H         1 RES1    0.0000
     38 C18        5.4776   11.7444    4.9866 C.3       1 RES1    0.0000
     39 H18        5.5971   11.0469    4.3387 H         1 RES1    0.0000
     40 H19        6.3083   11.9035    5.4428 H         1 RES1    0.0000
     41 H20        5.1959   12.5485    4.5453 H         1 RES1    0.0000
     42 C19        4.4593   12.3194    7.1370 C.3       1 RES1    0.0000
     43 H21        5.2827   12.2289    7.6229 H         1 RES1    0.0000
     44 H22        3.7207   12.1312    7.7204 H         1 RES1    0.0000
     45 H23        4.3826   13.2154    6.8015 H         1 RES1    0.0000
     46 C20        7.0347    5.3731    7.8642 C.3       1 RES1    0.0000
     47 H24        6.5298    5.7438    8.6163 H         1 RES1    0.0000
     48 C21        7.3027    3.8978    8.1766 C.3       1 RES1    0.0000
     49 H25        6.4707    3.4191    8.1948 H         1 RES1    0.0000
     50 H26        7.7327    3.8263    9.0311 H         1 RES1    0.0000
     51 H27        7.8716    3.5257    7.4990 H         1 RES1    0.0000
     52 C22        8.3243    6.1874    7.7320 C.3       1 RES1    0.0000
     53 H28        8.8468    5.8416    7.0048 H         1 RES1    0.0000
     54 H29        8.8278    6.1218    8.5469 H         1 RES1    0.0000
     55 H30        8.1060    7.1068    7.5618 H         1 RES1    0.0000
     56 O2         3.4095    5.1764    1.6261 O.2       2 RES2    0.0000
     57 N3         3.3616    4.3365    0.6456 N.pl3     2 RES2    0.0000
     58 C23        2.5166    3.2586    0.7243 C.ar      2 RES2    0.0000
     59 C24        2.5219    2.3086   -0.2610 C.ar      2 RES2    0.0000
     60 H31        1.9539    1.5746   -0.1950 H         2 RES2    0.0000
     61 C25        3.3589    2.4239   -1.3504 C.ar      2 RES2    0.0000
     62 H32        3.3791    1.7672   -2.0099 H         2 RES2    0.0000
     63 C26        4.1670    3.5403   -1.4396 C.ar      2 RES2    0.0000
     64 H33        4.7166    3.6424   -2.1818 H         2 RES2    0.0000
     65 C27        4.1786    4.5092   -0.4512 C.ar      2 RES2    0.0000
     66 C28        1.6064    3.1623    1.9006 C.2       2 RES2    0.0000
     67 C29        0.7984    4.3487    2.3404 C.3       2 RES2    0.0000
     68 H34       -0.0813    4.0612    2.5966 H         2 RES2    0.0000
     69 H35        0.7311    4.9762    1.6165 H         2 RES2    0.0000
     70 H36        1.2273    4.7690    3.0892 H         2 RES2    0.0000
     71 N4         1.5184    1.9917    2.4011 N.2       2 RES2    0.0000
     72 C30        0.6553    1.7074    3.5002 C.ar      2 RES2    0.0000
     73 C31        1.1438    1.8358    4.8071 C.ar      2 RES2    0.0000
     74 C32        0.3354    1.3966    5.8479 C.ar      2 RES2    0.0000
     75 H37        0.6519    1.4491    6.7205 H         2 RES2    0.0000
     76 C33       -0.9188    0.8902    5.6192 C.ar      2 RES2    0.0000
     77 H38       -1.4493    0.6202    6.3337 H         2 RES2    0.0000
     78 C34       -1.3879    0.7807    4.3371 C.ar      2 RES2    0.0000
     79 H39       -2.2423    0.4436    4.1916 H         2 RES2    0.0000
     80 C35       -0.6096    1.1631    3.2442 C.ar      2 RES2    0.0000
     81 C36        2.5156    2.4414    5.0952 C.3       2 RES2    0.0000
     82 H40        2.8187    2.8880    4.2776 H         2 RES2    0.0000
     83 C37        3.5058    1.3922    5.4230 C.3       2 RES2    0.0000
     84 H41        4.3700    1.7935    5.5387 H         2 RES2    0.0000
     85 H42        3.5421    0.7515    4.7090 H         2 RES2    0.0000
     86 H43        3.2464    0.9500    6.2362 H         2 RES2    0.0000
     87 C38        2.4841    3.4688    6.1849 C.3       2 RES2    0.0000
     88 H44        2.2326    3.0499    7.0114 H         2 RES2    0.0000
     89 H45        1.8449    4.1502    5.9635 H         2 RES2    0.0000
     90 H46        3.3537    3.8642    6.2775 H         2 RES2    0.0000
     91 C39       -1.1450    0.9500    1.8446 C.3       2 RES2    0.0000
     92 H47       -0.5001    1.3469    1.2215 H         2 RES2    0.0000
     93 C40       -2.4814    1.6490    1.6231 C.3       2 RES2    0.0000
     94 H48       -3.1141    1.3426    2.2776 H         2 RES2    0.0000
     95 H49       -2.8070    1.4447    0.7438 H         2 RES2    0.0000
     96 H50       -2.3651    2.5976    1.7090 H         2 RES2    0.0000
     97 C41       -1.2408   -0.5356    1.5173 C.3       2 RES2    0.0000
     98 H51       -0.3809   -0.9456    1.6347 H         2 RES2    0.0000
     99 H52       -1.5266   -0.6450    0.6082 H         2 RES2    0.0000
    100 H53       -1.8764   -0.9515    2.1041 H         2 RES2    0.0000
    101 C42        5.0473    5.7350   -0.4512 C.3       2 RES2    0.0000
    102 H54        4.5245    6.4705   -0.0694 H         2 RES2    0.0000
    103 C43        6.2664    5.5322    0.4281 C.3       2 RES2    0.0000
    104 H55        5.9858    5.3629    1.3305 H         2 RES2    0.0000
    105 H56        6.8111    6.3231    0.4049 H         2 RES2    0.0000
    106 H57        6.7738    4.7850    0.1041 H         2 RES2    0.0000
    107 C44        5.4480    6.1364   -1.8677 C.3       2 RES2    0.0000
    108 H58        6.0342    5.4709   -2.2346 H         2 RES2    0.0000
    109 H59        5.9001    6.9828   -1.8446 H         2 RES2    0.0000
    110 H60        4.6625    6.2079   -2.4132 H         2 RES2    0.0000
@<TRIPOS>BOND
     1    1    2 1
     2    2    3 ar
     3    3    4 ar
     4    4    5 1
     5    6    4 ar
     6    7    6 1
     7    8    6 ar
     8    9    8 1
     9   10    2 ar
    10   11    3 1
    11   12   11 1
    12   13   12 1
    13   14   12 1
    14   15   12 1
    15   16   11 2
    16   17   16 1
    17   18   17 ar
    18   19   18 ar
    19   20   19 1
    20   21   19 ar
    21   22   21 1
    22   23   21 ar
    23   24   23 1
    24   25   17 ar
    25   26   18 1
    26   27   26 1
    27   28   26 1
    28   29   28 1
    29   30   28 1
    30   31   28 1
    31   32   26 1
    32   33   32 1
    33   34   32 1
    34   35   32 1
    35   36   25 1
    36   37   36 1
    37   38   36 1
    38   39   38 1
    39   40   38 1
    40   41   38 1
    41   42   36 1
    42   43   42 1
    43   44   42 1
    44   45   42 1
    45   46   10 1
    46   47   46 1
    47   48   46 1
    48   49   48 1
    49   50   48 1
    50   51   48 1
    51   52   46 1
    52   53   52 1
    53   54   52 1
    54   55   52 1
    55   56   57 1
    56   57   58 ar
    57   58   59 ar
    58   59   60 1
    59   61   59 ar
    60   62   61 1
    61   63   61 ar
    62   64   63 1
    63   65   57 ar
    64   66   58 1
    65   67   66 1
    66   68   67 1
    67   69   67 1
    68   70   67 1
    69   71   66 2
    70   72   71 1
    71   73   72 ar
    72   74   73 ar
    73   75   74 1
    74   76   74 ar
    75   77   76 1
    76   78   76 ar
    77   79   78 1
    78   80   72 ar
    79   81   73 1
    80   82   81 1
    81   83   81 1
    82   84   83 1
    83   85   83 1
    84   86   83 1
    85   87   81 1
    86   88   87 1
    87   89   87 1
    88   90   87 1
    89   91   80 1
    90   92   91 1
    91   93   91 1
    92   94   93 1
    93   95   93 1
    94   96   93 1
    95   97   91 1
    96   98   97 1
    97   99   97 1
    98  100   97 1
    99  101   65 1
   100  102  101 1
   101  103  101 1
   102  104  103 1
   103  105  103 1
   104  106  103 1
   105  107  101 1
   106  108  107 1
   107  109  107 1
   108  110  107 1
   109    8   10 ar
   110   23   25 ar
   111   63   65 ar
   112   78   80 ar
@<TRIPOS>SUBSTRUCTURE
     1 RES1 1
     2 RES2 56

@<TRIPOS>CRYSIN
   8.5340   14.5930   16.5460  90.0000  92.6400  90.0000   4 1

