# MOL2 file generated by ConQuest
# Please check atom types

@<TRIPOS>MOLECULE
KEDVUK
    78    78     2
SMALL
NO_CHARGES
****
Generated from CSD

@<TRIPOS>ATOM
      1 C1        13.3877    8.2433    3.3693 C.2       1 RES1    0.0000
      2 C2        13.3403    7.9150    4.6455 C.2       1 RES1    0.0000
      3 C3        12.2134    7.1798    5.2997 C.3       1 RES1    0.0000
      4 C4        11.2930    6.5690    4.2133 C.3       1 RES1    0.0000
      5 C5        11.0575    7.4876    3.0151 C.3       1 RES1    0.0000
      6 C6        12.3520    7.9620    2.3134 C.3       1 RES1    0.0000
      7 C7        11.5473    8.0441    6.4047 C.3       1 RES1    0.0000
      8 C8        10.8488    9.2754    5.8319 C.3       1 RES1    0.0000
      9 C9        12.5730    8.4726    7.4589 C.3       1 RES1    0.0000
     10 C10       12.0367    9.1498    1.4101 C.3       1 RES1    0.0000
     11 N1        14.6334    8.8843    2.9049 N.pl3     1 RES1    0.0000
     12 O1        14.9766    8.6416    1.7541 O.2       1 RES1    0.0000
     13 O2        15.2627    9.5711    3.6964 O.2       1 RES1    0.0000
     14 N2        12.8805    5.9462    5.9793 N.pl3     1 RES1    0.0000
     15 O3        13.9169    5.5418    5.4675 O.2       1 RES1    0.0000
     16 O4        12.3286    5.4380    6.9200 O.2       1 RES1    0.0000
     17 N3         9.9512    6.1550    4.7862 N.pl3     1 RES1    0.0000
     18 O5         9.9292    5.1000    5.3997 O.2       1 RES1    0.0000
     19 O6         8.9821    6.8817    4.6133 O.2       1 RES1    0.0000
     20 O7        10.3041    6.7103    2.0677 O.3       1 RES1    0.0000
     21 N4         9.0335    7.3054    1.6677 N.pl3     1 RES1    0.0000
     22 O8         8.7816    8.4135    2.0304 O.2       1 RES1    0.0000
     23 O9         8.4185    6.5413    0.9915 O.2       1 RES1    0.0000
     24 N5        12.8674    6.7670    1.4609 N.pl3     1 RES1    0.0000
     25 O10       13.2414    5.7856    2.0846 O.2       1 RES1    0.0000
     26 O11       12.8554    6.8817    0.2525 O.2       1 RES1    0.0000
     27 H1        14.0853    8.1672    5.1963 H         1 RES1    0.0000
     28 H2        11.7680    5.7965    3.8981 H         1 RES1    0.0000
     29 H3        10.6142    8.2807    3.3269 H         1 RES1    0.0000
     30 H4        10.8796    7.4925    6.8217 H         1 RES1    0.0000
     31 H5        10.0760    9.0170    5.2861 H         1 RES1    0.0000
     32 H6        11.4806    9.7860    5.2845 H         1 RES1    0.0000
     33 H7        10.5475    9.8270    6.5827 H         1 RES1    0.0000
     34 H8        13.1047    7.7279    7.8114 H         1 RES1    0.0000
     35 H9        12.0414    8.8674    8.1809 H         1 RES1    0.0000
     36 H10       13.1712    9.1522    7.0843 H         1 RES1    0.0000
     37 H11       12.8517    9.4395    0.9508 H         1 RES1    0.0000
     38 H12       11.6986    9.8813    1.9677 H         1 RES1    0.0000
     39 H13       11.3570    8.9036    0.7474 H         1 RES1    0.0000
     40 C11       -1.3051    2.2368    3.4710 C.2       2 RES2    0.0000
     41 C12       -1.2343    1.8855    4.7336 C.2       2 RES2    0.0000
     42 C13       -0.1225    1.0985    5.3472 C.3       2 RES2    0.0000
     43 C14        0.7787    0.5227    4.2218 C.3       2 RES2    0.0000
     44 C15        1.0075    1.4763    3.0507 C.3       2 RES2    0.0000
     45 C16       -0.3018    1.9893    2.3863 C.3       2 RES2    0.0000
     46 C17        0.5742    1.8746    6.4962 C.3       2 RES2    0.0000
     47 C18        1.2560    3.1505    5.9980 C.3       2 RES2    0.0000
     48 C19       -0.4160    2.2404    7.6030 C.3       2 RES2    0.0000
     49 C20        0.0067    3.2073    1.5321 C.3       2 RES2    0.0000
     50 N6        -2.5654    2.9103    3.0439 N.pl3     2 RES2    0.0000
     51 O12       -2.9140    2.7208    1.8863 O.2       2 RES2    0.0000
     52 O13       -3.1893    3.5525    3.8727 O.2       2 RES2    0.0000
     53 N7        -0.8043   -0.1581    5.9624 N.pl3     2 RES2    0.0000
     54 O14       -1.8620   -0.4985    5.4675 O.2       2 RES2    0.0000
     55 O15       -0.2430   -0.7496    6.8488 O.2       2 RES2    0.0000
     56 N8         2.1213    0.0724    4.7540 N.pl3     2 RES2    0.0000
     57 O16        2.1525   -1.0284    5.2794 O.2       2 RES2    0.0000
     58 O17        3.0855    0.8100    4.6336 O.2       2 RES2    0.0000
     59 O18        1.7248    0.7037    2.0762 O.3       2 RES2    0.0000
     60 N9         3.0053    1.2566    1.6609 N.pl3     2 RES2    0.0000
     61 O19        3.2942    2.3599    2.0219 O.2       2 RES2    0.0000
     62 O20        3.5931    0.4804    0.9677 O.2       2 RES2    0.0000
     63 N10       -0.8555    0.8498    1.4999 N.pl3     2 RES2    0.0000
     64 O21       -1.2079   -0.1690    2.0795 O.2       2 RES2    0.0000
     65 O22       -0.8959    1.0272    0.2983 O.2       2 RES2    0.0000
     66 H14       -1.9542    2.1559    5.3082 H         2 RES2    0.0000
     67 H15        0.2857   -0.2293    3.8879 H         2 RES2    0.0000
     68 H16        1.4672    2.2573    3.3676 H         2 RES2    0.0000
     69 H17        1.2455    1.2844    6.8471 H         2 RES2    0.0000
     70 H18        1.9396    2.9574    5.3217 H         2 RES2    0.0000
     71 H19        1.6808    3.5428    6.7895 H         2 RES2    0.0000
     72 H20        0.6034    3.7818    5.6302 H         2 RES2    0.0000
     73 H21       -0.8887    1.4425    7.9199 H         2 RES2    0.0000
     74 H22       -1.0647    2.8934    7.2691 H         2 RES2    0.0000
     75 H23        0.0922    2.6327    8.3436 H         2 RES2    0.0000
     76 H24       -0.7838    3.4475    1.0050 H         2 RES2    0.0000
     77 H25        0.7528    3.0081    0.9288 H         2 RES2    0.0000
     78 H26        0.2490    3.9557    2.1168 H         2 RES2    0.0000
@<TRIPOS>BOND
     1    1    2 2
     2    2    3 1
     3    3    4 1
     4    4    5 1
     5    5    6 1
     6    6    1 1
     7    7    3 1
     8    8    7 1
     9    9    7 1
    10   10    6 1
    11   11    1 1
    12   12   11 2
    13   13   11 2
    14   14    3 1
    15   15   14 2
    16   16   14 2
    17   17    4 1
    18   18   17 2
    19   19   17 2
    20   20    5 1
    21   21   20 1
    22   22   21 2
    23   23   21 2
    24   24    6 1
    25   25   24 2
    26   26   24 2
    27   27    2 1
    28   28    4 1
    29   29    5 1
    30   30    7 1
    31   31    8 1
    32   32    8 1
    33   33    8 1
    34   34    9 1
    35   35    9 1
    36   36    9 1
    37   37   10 1
    38   38   10 1
    39   39   10 1
    40   40   41 2
    41   41   42 1
    42   42   43 1
    43   43   44 1
    44   44   45 1
    45   45   40 1
    46   46   42 1
    47   47   46 1
    48   48   46 1
    49   49   45 1
    50   50   40 1
    51   51   50 2
    52   52   50 2
    53   53   42 1
    54   54   53 2
    55   55   53 2
    56   56   43 1
    57   57   56 2
    58   58   56 2
    59   59   44 1
    60   60   59 1
    61   61   60 2
    62   62   60 2
    63   63   45 1
    64   64   63 2
    65   65   63 2
    66   66   41 1
    67   67   43 1
    68   68   44 1
    69   69   46 1
    70   70   47 1
    71   71   47 1
    72   72   47 1
    73   73   48 1
    74   74   48 1
    75   75   48 1
    76   76   49 1
    77   77   49 1
    78   78   49 1
@<TRIPOS>SUBSTRUCTURE
     1 RES1 1
     2 RES2 40

@<TRIPOS>CRYSIN
  15.2600   12.0710   18.1250  90.0000 110.7600  90.0000 231 1

