# MOL2 file generated by ConQuest
# Please check atom types

@<TRIPOS>MOLECULE
KEDWUO
    44    44     2
SMALL
NO_CHARGES
****
Generated from CSD

@<TRIPOS>ATOM
      1 C1         6.7445    7.8982    6.8725 C.ar      1 RES1    0.0000
      2 C2         6.5989    6.5087    7.0479 C.ar      1 RES1    0.0000
      3 C3         6.7304    5.6342    5.9761 C.ar      1 RES1    0.0000
      4 C4         7.0409    6.1226    4.7073 C.ar      1 RES1    0.0000
      5 C5         7.2502    7.5198    4.5156 C.ar      1 RES1    0.0000
      6 C6         7.0720    8.3861    5.6371 C.ar      1 RES1    0.0000
      7 C7         6.4866    8.9063    7.9668 C.2       1 RES1    0.0000
      8 C8         7.2440    5.1664    3.6010 C.2       1 RES1    0.0000
      9 N1         6.3907    5.9554    8.3642 N.pl3     1 RES1    0.0000
     10 N2         7.6016    8.0704    3.3428 N.3       1 RES1    0.0000
     11 O1         7.5549    9.4456    8.4573 O.3       1 RES1    0.0000
     12 O2         5.3323    9.2025    8.2650 O.2       1 RES1    0.0000
     13 O3         6.9106    3.9230    3.8476 O.3       1 RES1    0.0000
     14 O4         7.6945    5.5331    2.5190 O.2       1 RES1    0.0000
     15 O5         6.4037    6.7430    9.3313 O.2       1 RES1    0.0000
     16 O6         6.2353    4.7422    8.4923 O.2       1 RES1    0.0000
     17 H1         7.2706   10.1771    9.1746 H         1 RES1    0.0000
     18 H2         7.1729    3.4417    3.0294 H         1 RES1    0.0000
     19 H3         6.6097    4.6636    6.1020 H         1 RES1    0.0000
     20 H4         7.2020    9.3337    5.5250 H         1 RES1    0.0000
     21 H5         7.7337    7.4935    2.6254 H         1 RES1    0.0000
     22 H6         7.8092    8.9991    3.3179 H         1 RES1    0.0000
     23 C9         5.5811   12.1838   12.0059 C.ar      2 RES2    0.0000
     24 C10        5.1215   11.7766   13.2715 C.ar      2 RES2    0.0000
     25 C11        4.7910   12.7218   14.2302 C.ar      2 RES2    0.0000
     26 C12        4.9225   14.0812   13.9890 C.ar      2 RES2    0.0000
     27 C13        5.4310   14.5212   12.7310 C.ar      2 RES2    0.0000
     28 C14        5.7448   13.5227   11.7595 C.ar      2 RES2    0.0000
     29 C15        5.8520   11.2444   10.8608 C.2       2 RES2    0.0000
     30 C16        4.5242   14.9907   15.0968 C.2       2 RES2    0.0000
     31 N3         5.0602   10.3838   13.6232 N.pl3     2 RES2    0.0000
     32 N4         5.6227   15.8015   12.3785 N.3       2 RES2    0.0000
     33 O7         4.7878   10.7659   10.3031 O.3       2 RES2    0.0000
     34 O8         7.0089   11.0584   10.4761 O.2       2 RES2    0.0000
     35 O9         4.7282   16.2658   14.8453 O.3       2 RES2    0.0000
     36 O10        4.0513   14.5740   16.1452 O.2       2 RES2    0.0000
     37 O11        4.6137   10.0563   14.7191 O.2       2 RES2    0.0000
     38 O12        5.5074    9.5623   12.8054 O.2       2 RES2    0.0000
     39 H7         5.0910   10.1195    9.5209 H         2 RES2    0.0000
     40 H8         4.5265   16.7441   15.7094 H         2 RES2    0.0000
     41 H9         4.4986   12.4413   15.1180 H         2 RES2    0.0000
     42 H10        6.0679   13.8212   10.9057 H         2 RES2    0.0000
     43 H11        5.9657   16.0240   11.5404 H         2 RES2    0.0000
     44 H12        5.4895   16.5177   12.9541 H         2 RES2    0.0000
@<TRIPOS>BOND
     1    1    2 ar
     2    2    3 ar
     3    3    4 ar
     4    4    5 ar
     5    5    6 ar
     6    6    1 ar
     7    7    1 1
     8    8    4 1
     9    9    2 1
    10   10    5 1
    11   11    7 1
    12   12    7 2
    13   13    8 1
    14   14    8 2
    15   15    9 2
    16   16    9 2
    17   17   11 1
    18   18   13 1
    19   19    3 1
    20   20    6 1
    21   21   10 1
    22   22   10 1
    23   23   24 ar
    24   24   25 ar
    25   25   26 ar
    26   26   27 ar
    27   27   28 ar
    28   28   23 ar
    29   29   23 1
    30   30   26 1
    31   31   24 1
    32   32   27 1
    33   33   29 1
    34   34   29 2
    35   35   30 1
    36   36   30 2
    37   37   31 2
    38   38   31 2
    39   39   33 1
    40   40   35 1
    41   41   25 1
    42   42   28 1
    43   43   32 1
    44   44   32 1
@<TRIPOS>SUBSTRUCTURE
     1 RES1 1
     2 RES2 23

@<TRIPOS>CRYSIN
   6.7000    9.2100   15.0400  78.4700  78.3100  89.3100   2 1

