# MOL2 file generated by ConQuest
# Please check atom types

@<TRIPOS>MOLECULE
KEDWOF
    36    36     1
SMALL
NO_CHARGES
****
Generated from CSD

@<TRIPOS>ATOM
      1 C1         1.3318    1.5303    8.5640 C.2       1 RES1    0.0000
      2 C2         2.5658    1.8988    8.2727 C.2       1 RES1    0.0000
      3 C3         3.1526    3.2642    8.5002 C.3       1 RES1    0.0000
      4 C4         2.1049    4.3868    8.6881 C.3       1 RES1    0.0000
      5 C5         1.0097    3.8438    9.6049 C.3       1 RES1    0.0000
      6 C6         0.3541    2.5329    9.1593 C.3       1 RES1    0.0000
      7 C7         0.7482    0.1584    8.2657 C.3       1 RES1    0.0000
      8 C8        -0.3932    0.2662    7.2573 C.3       1 RES1    0.0000
      9 C9         1.7990   -0.8484    7.8016 C.3       1 RES1    0.0000
     10 C10        2.7508    5.6469    9.2359 C.3       1 RES1    0.0000
     11 O1         4.1288    3.6104    7.5254 O.3       1 RES1    0.0000
     12 N1         1.5171    4.7001    7.3014 N.pl3     1 RES1    0.0000
     13 O2         0.7355    3.9016    6.8187 O.2       1 RES1    0.0000
     14 O3         1.9035    5.7013    6.7247 O.2       1 RES1    0.0000
     15 O4        -0.0827    4.7902    9.7418 O.3       1 RES1    0.0000
     16 N2        -0.1412    5.5112   11.0032 N.pl3     1 RES1    0.0000
     17 O5        -1.1065    6.2124   11.0427 O.2       1 RES1    0.0000
     18 O6         0.7569    5.3231   11.7935 O.2       1 RES1    0.0000
     19 N3        -0.2446    1.8814   10.4125 N.pl3     1 RES1    0.0000
     20 O7         0.5091    1.6887   11.3595 O.2       1 RES1    0.0000
     21 O8        -1.4201    1.5715   10.3719 O.2       1 RES1    0.0000
     22 H1         3.1393    1.2359    7.8816 H         1 RES1    0.0000
     23 H2         3.6038    3.1915    9.3438 H         1 RES1    0.0000
     24 H3         1.4859    3.6885   10.4242 H         1 RES1    0.0000
     25 H4        -0.2898    2.7491    8.4804 H         1 RES1    0.0000
     26 H5         0.3992   -0.1797    9.0943 H         1 RES1    0.0000
     27 H6        -0.0433    0.6260    6.4160 H         1 RES1    0.0000
     28 H7        -1.1419    0.8203    7.5625 H         1 RES1    0.0000
     29 H8        -0.7022   -0.6529    7.1169 H         1 RES1    0.0000
     30 H9         2.1728   -0.5941    6.9324 H         1 RES1    0.0000
     31 H10        1.3707   -1.7267    7.7285 H         1 RES1    0.0000
     32 H11        2.5181   -0.8907    8.4665 H         1 RES1    0.0000
     33 H12        3.0615    5.4507   10.1433 H         1 RES1    0.0000
     34 H13        2.1089    6.3872    9.2626 H         1 RES1    0.0000
     35 H14        3.5149    5.8980    8.6754 H         1 RES1    0.0000
     36 H15        3.8300    3.3274    6.6586 H         1 RES1    0.0000
@<TRIPOS>BOND
     1    1    2 2
     2    2    3 1
     3    3    4 1
     4    4    5 1
     5    5    6 1
     6    6    1 1
     7    7    1 1
     8    8    7 1
     9    9    7 1
    10   10    4 1
    11   11    3 1
    12   12    4 1
    13   13   12 2
    14   14   12 2
    15   15    5 1
    16   16   15 1
    17   17   16 2
    18   18   16 2
    19   19    6 1
    20   20   19 2
    21   21   19 2
    22   22    2 1
    23   23    3 1
    24   24    5 1
    25   25    6 1
    26   26    7 1
    27   27    8 1
    28   28    8 1
    29   29    8 1
    30   30    9 1
    31   31    9 1
    32   32    9 1
    33   33   10 1
    34   34   10 1
    35   35   10 1
    36   36   11 1
@<TRIPOS>SUBSTRUCTURE
     1 RES1 1

@<TRIPOS>CRYSIN
   6.6900    8.9400   11.7370  98.0000  91.0200 105.0300   2 1

