# MOL2 file generated by ConQuest
# Please check atom types

@<TRIPOS>MOLECULE
KEDWUL
    42    42     1
SMALL
NO_CHARGES
****
Generated from CSD

@<TRIPOS>ATOM
      1 C1        -0.0019   10.5016    3.7353 C.2       1 RES1    0.0000
      2 C2        -0.3508   11.4337    2.8755 C.2       1 RES1    0.0000
      3 C3         0.4515   11.7881    1.6584 C.3       1 RES1    0.0000
      4 C4         1.4803   10.6620    1.4062 C.3       1 RES1    0.0000
      5 C5         2.2230   10.1942    2.6452 C.3       1 RES1    0.0000
      6 C6         1.2625    9.6842    3.7572 C.3       1 RES1    0.0000
      7 C7        -0.4322   12.0775    0.4161 C.3       1 RES1    0.0000
      8 C8        -1.4312   13.2145    0.6590 C.3       1 RES1    0.0000
      9 C9        -1.1764   10.8260   -0.0328 C.3       1 RES1    0.0000
     10 C10        4.3736    9.1127    2.5325 C.2       1 RES1    0.0000
     11 C11        5.0156    7.8636    2.0442 C.3       1 RES1    0.0000
     12 C12        1.9775    9.7095    5.0987 C.3       1 RES1    0.0000
     13 N1        -0.9552   10.2075    4.8221 N.pl3     1 RES1    0.0000
     14 O1        -1.0561    9.0210    5.1373 O.2       1 RES1    0.0000
     15 O2        -1.5817   11.1202    5.3138 O.2       1 RES1    0.0000
     16 N2         1.2654   13.0698    2.0240 N.pl3     1 RES1    0.0000
     17 O3         1.5615   13.2217    3.1949 O.2       1 RES1    0.0000
     18 O4         1.5794   13.8185    1.1272 O.2       1 RES1    0.0000
     19 N3         2.5072   11.0792    0.3749 N.pl3     1 RES1    0.0000
     20 O5         3.4865   11.7013    0.7598 O.2       1 RES1    0.0000
     21 O6         2.2865   10.7669   -0.7767 O.2       1 RES1    0.0000
     22 O7         3.0310    9.0898    2.2308 O.3       1 RES1    0.0000
     23 O8         4.8876   10.0218    3.0932 O.2       1 RES1    0.0000
     24 N4         0.9096    8.2337    3.3705 N.pl3     1 RES1    0.0000
     25 O9         0.2209    8.0987    2.3636 O.2       1 RES1    0.0000
     26 O10        1.3652    7.3367    4.0430 O.2       1 RES1    0.0000
     27 H1        -1.1653   11.9159    3.0368 H         1 RES1    0.0000
     28 H2         0.9496    9.9265    1.0910 H         1 RES1    0.0000
     29 H3         2.7256   10.9285    3.0074 H         1 RES1    0.0000
     30 H4         0.1658   12.3584   -0.2799 H         1 RES1    0.0000
     31 H5        -0.9809   14.0380    0.9397 H         1 RES1    0.0000
     32 H6        -2.0789   12.9456    1.3432 H         1 RES1    0.0000
     33 H7        -1.8974   13.3700   -0.1891 H         1 RES1    0.0000
     34 H8        -0.5320   10.1484   -0.3261 H         1 RES1    0.0000
     35 H9        -1.7692   11.0563   -0.7783 H         1 RES1    0.0000
     36 H10       -1.7077   10.4727    0.7102 H         1 RES1    0.0000
     37 H11        5.8608    7.7141    2.5166 H         1 RES1    0.0000
     38 H12        5.1879    7.9407    1.0826 H         1 RES1    0.0000
     39 H13        4.4121    7.1088    2.2081 H         1 RES1    0.0000
     40 H14        2.1573   10.6439    5.3332 H         1 RES1    0.0000
     41 H15        2.8240    9.2212    5.0348 H         1 RES1    0.0000
     42 H16        1.4162    9.3020    5.7904 H         1 RES1    0.0000
@<TRIPOS>BOND
     1    1    2 2
     2    2    3 1
     3    3    4 1
     4    4    5 1
     5    5    6 1
     6    6    1 1
     7    7    3 1
     8    8    7 1
     9    9    7 1
    10   10   11 1
    11   11   37 1
    12   12    6 1
    13   13    1 1
    14   14   13 2
    15   15   13 2
    16   16    3 1
    17   17   16 2
    18   18   16 2
    19   19    4 1
    20   20   19 2
    21   21   19 2
    22   22    5 1
    23   23   10 2
    24   24    6 1
    25   25   24 2
    26   26   24 2
    27   27    2 1
    28   28    4 1
    29   29    5 1
    30   30    7 1
    31   31    8 1
    32   32    8 1
    33   33    8 1
    34   34    9 1
    35   35    9 1
    36   36    9 1
    37   38   11 1
    38   39   11 1
    39   40   12 1
    40   41   12 1
    41   42   12 1
    42   10   22 1
@<TRIPOS>SUBSTRUCTURE
     1 RES1 1

@<TRIPOS>CRYSIN
   8.1090   12.0570    8.6710  90.0000 104.2200  90.0000   4 1

