# MOL2 file generated by ConQuest
# Please check atom types

@<TRIPOS>MOLECULE
KEDWEV
    74    74     2
SMALL
NO_CHARGES
****
Generated from CSD

@<TRIPOS>ATOM
      1 C1         8.1168    4.3427   12.4024 C.2       1 RES1    0.0000
      2 C2         9.1230    5.1852   12.3067 C.2       1 RES1    0.0000
      3 C3         9.7672    5.6467   11.0382 C.3       1 RES1    0.0000
      4 C4         9.3148    4.7325    9.8748 C.3       1 RES1    0.0000
      5 C5         7.8232    4.4260    9.9179 C.3       1 RES1    0.0000
      6 C6         7.3781    3.7726   11.2323 C.3       1 RES1    0.0000
      7 C7        11.3055    5.7353   11.1743 C.3       1 RES1    0.0000
      8 C8        11.7254    6.7527   12.2353 C.3       1 RES1    0.0000
      9 C9        11.8845    4.3648   11.4884 C.3       1 RES1    0.0000
     10 C10        5.8794    3.8677   11.4278 C.3       1 RES1    0.0000
     11 N1         9.2741    7.0846   10.7537 N.pl3     1 RES1    0.0000
     12 O1         9.7967    7.6841    9.8370 O.2       1 RES1    0.0000
     13 O2         8.4142    7.5520   11.4871 O.2       1 RES1    0.0000
     14 N2         9.6691    5.2962    8.5253 N.pl3     1 RES1    0.0000
     15 O3        10.8105    5.1105    8.1357 O.2       1 RES1    0.0000
     16 O4         8.8106    5.8822    7.8971 O.2       1 RES1    0.0000
     17 O5         7.5633    3.5193    8.8340 O.3       1 RES1    0.0000
     18 N3         6.4895    3.9105    7.9429 N.pl3     1 RES1    0.0000
     19 O6         5.8034    4.8274    8.2638 O.2       1 RES1    0.0000
     20 O7         6.4488    3.1796    7.0060 O.2       1 RES1    0.0000
     21 N4         7.7793    2.2749   11.1635 N.pl3     1 RES1    0.0000
     22 O8         8.9553    2.0245   10.9708 O.2       1 RES1    0.0000
     23 O9         6.9228    1.4389   11.2997 O.2       1 RES1    0.0000
     24 H1         7.8369    4.0753   13.2814 H         1 RES1    0.0000
     25 H2         9.4763    5.5349   13.1277 H         1 RES1    0.0000
     26 H3         9.7998    3.9140   10.0015 H         1 RES1    0.0000
     27 H4         7.3358    5.2493    9.8451 H         1 RES1    0.0000
     28 H5        11.6586    6.0396   10.3345 H         1 RES1    0.0000
     29 H6        11.4011    6.4691   13.1156 H         1 RES1    0.0000
     30 H7        11.3399    7.6262   12.0128 H         1 RES1    0.0000
     31 H8        12.7026    6.8231   12.2528 H         1 RES1    0.0000
     32 H9        11.4870    3.9501   12.2824 H         1 RES1    0.0000
     33 H10       12.8421    4.5070   11.6367 H         1 RES1    0.0000
     34 H11       11.7591    3.7764   10.7133 H         1 RES1    0.0000
     35 H12        5.3789    3.4586   10.6917 H         1 RES1    0.0000
     36 H13        5.6706    4.8235   11.4749 H         1 RES1    0.0000
     37 H14        5.6293    3.4378   12.2730 H         1 RES1    0.0000
     38 C11        6.5009   10.3630    7.7866 C.2       2 RES2    0.0000
     39 C12        5.5325    9.4863    7.9079 C.2       2 RES2    0.0000
     40 C13        4.8306    9.1236    9.1751 C.3       2 RES2    0.0000
     41 C14        5.1253   10.1970   10.2509 C.3       2 RES2    0.0000
     42 C15        6.5861   10.5991   10.2873 C.3       2 RES2    0.0000
     43 C16        7.1149   11.1064    8.9297 C.3       2 RES2    0.0000
     44 C17        3.3332    8.8528    8.9634 C.3       2 RES2    0.0000
     45 C18        3.0828    7.7396    7.9322 C.3       2 RES2    0.0000
     46 C19        2.6100   10.1206    8.5442 C.3       2 RES2    0.0000
     47 C20        8.6242   11.0761    8.8704 C.3       2 RES2    0.0000
     48 N5         5.4771    7.8032    9.6806 N.pl3     2 RES2    0.0000
     49 O10        4.8451    7.1214   10.4598 O.2       2 RES2    0.0000
     50 O11        6.5906    7.5343    9.2856 O.2       2 RES2    0.0000
     51 N6         4.6931    9.7314   11.6219 N.pl3     2 RES2    0.0000
     52 O12        3.5146    9.8548   11.9090 O.2       2 RES2    0.0000
     53 O13        5.5425    9.2490   12.3539 O.2       2 RES2    0.0000
     54 O14        6.6946   11.6573   11.2525 O.3       2 RES2    0.0000
     55 N7         7.7622   11.5037   12.2191 N.pl3     2 RES2    0.0000
     56 O15        8.4558   10.5386   12.1369 O.2       2 RES2    0.0000
     57 O16        7.7741   12.4248   12.9821 O.2       2 RES2    0.0000
     58 N8         6.6390   12.5781    8.7976 N.pl3     2 RES2    0.0000
     59 O17        5.4275   12.7664    8.7680 O.2       2 RES2    0.0000
     60 O18        7.4650   13.4580    8.7248 O.2       2 RES2    0.0000
     61 H15        6.8383   10.5409    6.9049 H         2 RES2    0.0000
     62 H16        5.2500    9.0367    7.1085 H         2 RES2    0.0000
     63 H17        4.6141   10.9697   10.0015 H         2 RES2    0.0000
     64 H18        7.1119    9.8282   10.5124 H         2 RES2    0.0000
     65 H19        2.9836    8.5542    9.8060 H         2 RES2    0.0000
     66 H20        3.6152    6.9456    8.1452 H         2 RES2    0.0000
     67 H21        3.3373    8.0738    7.0465 H         2 RES2    0.0000
     68 H22        2.1314    7.5048    7.9335 H         2 RES2    0.0000
     69 H23        3.0194   10.5117    7.7434 H         2 RES2    0.0000
     70 H24        2.5735   10.7935    9.2560 H         2 RES2    0.0000
     71 H25        1.7017    9.8194    8.3339 H         2 RES2    0.0000
     72 H26        8.9217   10.1472    8.9621 H         2 RES2    0.0000
     73 H27        8.9990   11.6135    9.5971 H         2 RES2    0.0000
     74 H28        8.9296   11.4313    8.0090 H         2 RES2    0.0000
@<TRIPOS>BOND
     1    1    2 2
     2    2    3 1
     3    3    4 1
     4    4    5 1
     5    5    6 1
     6    6    1 1
     7    7    3 1
     8    8    7 1
     9    9    7 1
    10   10    6 1
    11   11    3 1
    12   12   11 2
    13   13   11 2
    14   14    4 1
    15   15   14 2
    16   16   14 2
    17   17    5 1
    18   18   17 1
    19   19   18 2
    20   20   18 2
    21   21    6 1
    22   22   21 2
    23   23   21 2
    24   24    1 1
    25   25    2 1
    26   26    4 1
    27   27    5 1
    28   28    7 1
    29   29    8 1
    30   30    8 1
    31   31    8 1
    32   32    9 1
    33   33    9 1
    34   34    9 1
    35   35   10 1
    36   36   10 1
    37   37   10 1
    38   38   39 2
    39   39   40 1
    40   40   41 1
    41   41   42 1
    42   42   43 1
    43   43   38 1
    44   44   40 1
    45   45   44 1
    46   46   44 1
    47   47   43 1
    48   48   40 1
    49   49   48 2
    50   50   48 2
    51   51   41 1
    52   52   51 2
    53   53   51 2
    54   54   42 1
    55   55   54 1
    56   56   55 2
    57   57   55 2
    58   58   43 1
    59   59   58 2
    60   60   58 2
    61   61   38 1
    62   62   39 1
    63   63   41 1
    64   64   42 1
    65   65   44 1
    66   66   45 1
    67   67   45 1
    68   68   45 1
    69   69   46 1
    70   70   46 1
    71   71   46 1
    72   72   47 1
    73   73   47 1
    74   74   47 1
@<TRIPOS>SUBSTRUCTURE
     1 RES1 1
     2 RES2 38

@<TRIPOS>CRYSIN
   9.7060   11.5670   13.7760  80.8300  79.8200  70.1300   2 1

