# MOL2 file generated by ConQuest
# Please check atom types

@<TRIPOS>MOLECULE
KEDYEA
    64    68     1
SMALL
NO_CHARGES
****
Generated from CSD

@<TRIPOS>ATOM
      1 C1         3.9137   -0.6730    4.4179 C.2       1 RES1    0.0000
      2 C2         3.8411    0.9427    6.2966 C.2       1 RES1    0.0000
      3 C3         3.1948    1.9333    5.4112 C.ar      1 RES1    0.0000
      4 C4         2.9513    3.2029    5.8787 C.ar      1 RES1    0.0000
      5 H1         3.1880    3.4306    6.7483 H         1 RES1    0.0000
      6 C5         2.3524    4.1482    5.0540 C.ar      1 RES1    0.0000
      7 H2         2.2333    5.0187    5.3592 H         1 RES1    0.0000
      8 C6         1.9382    3.8077    3.7975 C.ar      1 RES1    0.0000
      9 H3         1.5228    4.4475    3.2651 H         1 RES1    0.0000
     10 C7         2.1276    2.5084    3.2916 C.ar      1 RES1    0.0000
     11 C8         2.8278    1.5745    4.0959 C.ar      1 RES1    0.0000
     12 C9         3.2257    0.3137    3.5774 C.ar      1 RES1    0.0000
     13 C10        2.9773    0.0404    2.2754 C.ar      1 RES1    0.0000
     14 H4         3.3167   -0.7413    1.9056 H         1 RES1    0.0000
     15 C11        2.2253    0.9025    1.4727 C.ar      1 RES1    0.0000
     16 C12        1.6638    2.0915    1.9798 C.ar      1 RES1    0.0000
     17 C13       -0.2172    3.7282    1.8290 C.ar      1 RES1    0.0000
     18 C14       -0.2400    5.0156    1.3107 C.ar      1 RES1    0.0000
     19 C15       -1.1834    5.8941    1.8186 C.ar      1 RES1    0.0000
     20 H5        -1.2273    6.7546    1.4676 H         1 RES1    0.0000
     21 C16       -2.0567    5.5446    2.8208 C.ar      1 RES1    0.0000
     22 C17       -2.0170    4.2333    3.2811 C.ar      1 RES1    0.0000
     23 H6        -2.6131    3.9744    3.9474 H         1 RES1    0.0000
     24 C18       -1.1235    3.2981    2.7846 C.ar      1 RES1    0.0000
     25 C19        0.7571    5.4563    0.2769 C.3       1 RES1    0.0000
     26 H7         0.4833    6.2986   -0.0925 H         1 RES1    0.0000
     27 H8         0.8046    4.7996   -0.4223 H         1 RES1    0.0000
     28 H9         1.6205    5.5511    0.6858 H         1 RES1    0.0000
     29 C20       -3.0348    6.5364    3.4082 C.3       1 RES1    0.0000
     30 H10       -2.7125    7.4287    3.2616 H         1 RES1    0.0000
     31 H11       -3.1234    6.3782    4.3505 H         1 RES1    0.0000
     32 H12       -3.8896    6.4315    2.9841 H         1 RES1    0.0000
     33 C21       -1.1601    1.8763    3.2928 C.3       1 RES1    0.0000
     34 H13       -0.4455    1.7421    3.9195 H         1 RES1    0.0000
     35 H14       -1.0572    1.2708    2.5548 H         1 RES1    0.0000
     36 H15       -2.0009    1.7133    3.7258 H         1 RES1    0.0000
     37 C22        4.6922   -1.3126    6.6539 C.ar      1 RES1    0.0000
     38 C23        3.8193   -2.1840    7.2585 C.ar      1 RES1    0.0000
     39 C24        4.3384   -3.1012    8.1616 C.ar      1 RES1    0.0000
     40 H16        3.7605   -3.6961    8.5824 H         1 RES1    0.0000
     41 C25        5.6800   -3.1587    8.4532 C.ar      1 RES1    0.0000
     42 C26        6.5205   -2.2679    7.8180 C.ar      1 RES1    0.0000
     43 H17        7.4320   -2.3008    8.0012 H         1 RES1    0.0000
     44 C27        6.0528   -1.3249    6.9149 C.ar      1 RES1    0.0000
     45 C28        2.3424   -2.1627    6.9577 C.3       1 RES1    0.0000
     46 H18        1.9880   -1.2939    7.1601 H         1 RES1    0.0000
     47 H19        1.8973   -2.8228    7.4917 H         1 RES1    0.0000
     48 H20        2.2033   -2.3562    6.0275 H         1 RES1    0.0000
     49 C29        6.2326   -4.1634    9.4457 C.3       1 RES1    0.0000
     50 H21        5.5856   -4.3202   10.1372 H         1 RES1    0.0000
     51 H22        7.0393   -3.8193    9.8353 H         1 RES1    0.0000
     52 H23        6.4227   -4.9885    8.9925 H         1 RES1    0.0000
     53 C30        6.9848   -0.3511    6.2603 C.3       1 RES1    0.0000
     54 H24        7.8596   -0.4366    6.6453 H         1 RES1    0.0000
     55 H25        6.6612    0.5430    6.3975 H         1 RES1    0.0000
     56 H26        7.0304   -0.5347    5.3190 H         1 RES1    0.0000
     57 N1         4.1472   -0.3017    5.7506 N.am      1 RES1    0.0000
     58 N2         1.9569    0.4560    0.1365 N.pl3     1 RES1    0.0000
     59 N3         0.7515    2.8106    1.3008 N.pl3     1 RES1    0.0000
     60 H27        0.7487    2.7087    0.4467 H         1 RES1    0.0000
     61 O1         4.2679   -1.7628    4.0165 O.2       1 RES1    0.0000
     62 O2         4.1012    1.1905    7.4521 O.2       1 RES1    0.0000
     63 O3         2.4279   -0.5995   -0.2473 O.2       1 RES1    0.0000
     64 O4         1.2655    1.1368   -0.6183 O.2       1 RES1    0.0000
@<TRIPOS>BOND
     1    1   12 1
     2    2    3 1
     3    3    4 ar
     4    4    5 1
     5    6    4 ar
     6    7    6 1
     7    8    6 ar
     8    9    8 1
     9   10    8 ar
    10   11    3 ar
    11   12   11 ar
    12   13   12 ar
    13   14   13 1
    14   15   13 ar
    15   16   10 ar
    16   17   18 ar
    17   18   19 ar
    18   19   20 1
    19   21   19 ar
    20   22   21 ar
    21   23   22 1
    22   24   17 ar
    23   25   18 1
    24   26   25 1
    25   27   25 1
    26   28   25 1
    27   29   21 1
    28   30   29 1
    29   31   29 1
    30   32   29 1
    31   33   24 1
    32   34   33 1
    33   35   33 1
    34   36   33 1
    35   37   38 ar
    36   38   39 ar
    37   39   40 1
    38   41   39 ar
    39   42   41 ar
    40   43   42 1
    41   44   37 ar
    42   45   38 1
    43   46   45 1
    44   47   45 1
    45   48   45 1
    46   49   41 1
    47   50   49 1
    48   51   49 1
    49   52   49 1
    50   53   44 1
    51   54   53 1
    52   55   53 1
    53   56   53 1
    54   57    1 1
    55   58   15 1
    56   59   16 1
    57   60   59 1
    58   61    1 2
    59   62    2 2
    60   63   58 2
    61   64   58 2
    62    2   57 1
    63   10   11 ar
    64   15   16 ar
    65   17   59 1
    66   22   24 ar
    67   37   57 1
    68   42   44 ar
@<TRIPOS>SUBSTRUCTURE
     1 RES1 1

@<TRIPOS>CRYSIN
   7.9689    9.5701   17.6874  91.0960  98.6270 106.2800   2 1

