# MOL2 file generated by ConQuest
# Please check atom types

@<TRIPOS>MOLECULE
KEDYIE01
   164   172     2
SMALL
NO_CHARGES
****
Generated from CSD

@<TRIPOS>ATOM
      1 O1        -4.9761    9.7155    2.8618 O.2       1 RES1    0.0000
      2 O2        -4.9409    7.8542    3.9329 O.2       1 RES1    0.0000
      3 N1        -2.8163   11.0961    2.7036 N.pl3     1 RES1    0.0000
      4 H1        -3.6693   10.9434    2.5454 H         1 RES1    0.0000
      5 N2         0.9915    6.4635    5.1117 N.am      1 RES1    0.0000
      6 C1         1.5541    5.2918    5.7185 C.ar      1 RES1    0.0000
      7 O3         3.0175    7.4879    5.1986 O.2       1 RES1    0.0000
      8 O4        -1.0107    5.4250    4.9500 O.2       1 RES1    0.0000
      9 N3        -4.3458    8.7998    3.4478 N.pl3     1 RES1    0.0000
     10 C2        -1.7568   14.9731    1.6222 C.ar      1 RES1    0.0000
     11 H2        -1.5235   15.8638    1.3875 H         1 RES1    0.0000
     12 C3        -2.2071   14.6990    2.8775 C.ar      1 RES1    0.0000
     13 H3        -2.2974   15.4150    3.4947 H         1 RES1    0.0000
     14 C4        -2.5325   13.4445    3.2843 C.ar      1 RES1    0.0000
     15 C5        -2.3867   12.4125    2.3437 C.ar      1 RES1    0.0000
     16 C6        -2.1685   10.0598    3.2304 C.ar      1 RES1    0.0000
     17 C7        -0.7310   10.0162    3.5173 C.ar      1 RES1    0.0000
     18 C8        -0.1506    8.8354    4.0441 C.ar      1 RES1    0.0000
     19 C9         1.2102    8.7658    4.3606 C.ar      1 RES1    0.0000
     20 C10        1.8393    7.5672    4.8909 C.2       1 RES1    0.0000
     21 C11        1.4999    5.1526    7.0764 C.ar      1 RES1    0.0000
     22 C12        0.8346    6.1800    7.9787 C.3       1 RES1    0.0000
     23 H4         0.7168    7.0198    7.4484 H         1 RES1    0.0000
     24 C13       -0.5267    5.7436    8.4603 C.3       1 RES1    0.0000
     25 H5        -1.0941    5.5358    7.6884 H         1 RES1    0.0000
     26 H6        -0.9357    6.4647    8.9819 H         1 RES1    0.0000
     27 H7        -0.4341    4.9455    9.0219 H         1 RES1    0.0000
     28 C14       -3.1370   11.4995   -0.8172 C.3       1 RES1    0.0000
     29 H8        -3.8981   11.2910   -0.2347 H         1 RES1    0.0000
     30 H9        -3.0600   10.8117   -1.5109 H         1 RES1    0.0000
     31 H10       -3.2748   12.3737   -1.2362 H         1 RES1    0.0000
     32 C15       -1.8683   11.5279    0.0052 C.3       1 RES1    0.0000
     33 H11       -1.7958   10.6620    0.4990 H         1 RES1    0.0000
     34 C16       -0.6353   11.6639   -0.9058 C.3       1 RES1    0.0000
     35 H12       -0.7125   12.4836   -1.4379 H         1 RES1    0.0000
     36 H13       -0.5846   10.8892   -1.5039 H         1 RES1    0.0000
     37 H14        0.1747   11.7062   -0.3564 H         1 RES1    0.0000
     38 C17       -1.9605   12.6560    1.0310 C.ar      1 RES1    0.0000
     39 C18       -1.6414   13.9642    0.6902 C.ar      1 RES1    0.0000
     40 H15       -1.3413   14.1635   -0.1878 H         1 RES1    0.0000
     41 C19       -3.0991   13.1273    4.6683 C.3       1 RES1    0.0000
     42 H16       -2.9183   12.1606    4.8509 H         1 RES1    0.0000
     43 C20       -2.8924    8.8810    3.5434 C.ar      1 RES1    0.0000
     44 C21       -2.2966    7.7263    4.0372 C.ar      1 RES1    0.0000
     45 H17       -2.8357    6.9650    4.2128 H         1 RES1    0.0000
     46 C22       -0.9431    7.6618    4.2788 C.ar      1 RES1    0.0000
     47 C23        2.0119    9.8821    4.1728 C.ar      1 RES1    0.0000
     48 H18        2.9316    9.8534    4.4110 H         1 RES1    0.0000
     49 C24        1.4735   11.0316    3.6425 C.ar      1 RES1    0.0000
     50 H19        2.0312   11.7855    3.4947 H         1 RES1    0.0000
     51 C25        0.1258   11.1050    3.3208 C.ar      1 RES1    0.0000
     52 H20       -0.2217   11.9115    2.9592 H         1 RES1    0.0000
     53 C26        2.1564    4.3642    4.9169 C.ar      1 RES1    0.0000
     54 C27        2.2096    4.4914    3.4095 C.3       1 RES1    0.0000
     55 H21        1.9584    5.4328    3.1852 H         1 RES1    0.0000
     56 C28        1.1960    3.5721    2.7106 C.3       1 RES1    0.0000
     57 H22        1.3994    2.6374    2.9262 H         1 RES1    0.0000
     58 H23        1.2494    3.7036    1.7404 H         1 RES1    0.0000
     59 H24        0.2904    3.7883    3.0201 H         1 RES1    0.0000
     60 C29        3.6109    4.2519    2.8445 C.3       1 RES1    0.0000
     61 H25        4.1072    3.6570    3.4426 H         1 RES1    0.0000
     62 H26        4.0832    5.1070    2.7697 H         1 RES1    0.0000
     63 H27        3.5394    3.8400    1.9577 H         1 RES1    0.0000
     64 C30        2.6896    3.2178    5.5203 C.ar      1 RES1    0.0000
     65 H28        3.1012    2.5473    4.9882 H         1 RES1    0.0000
     66 C31        2.6147    3.0704    6.8625 C.ar      1 RES1    0.0000
     67 H29        2.9793    2.2892    7.2589 H         1 RES1    0.0000
     68 C32        2.0307    4.0106    7.6658 C.ar      1 RES1    0.0000
     69 H30        1.9898    3.8858    8.6064 H         1 RES1    0.0000
     70 C33        1.7173    6.5096    9.1871 C.3       1 RES1    0.0000
     71 H31        1.7088    5.7555    9.8130 H         1 RES1    0.0000
     72 H32        1.3706    7.3095    9.6357 H         1 RES1    0.0000
     73 H33        2.6338    6.6753    8.8863 H         1 RES1    0.0000
     74 C34       -0.3634    6.4424    4.7813 C.2       1 RES1    0.0000
     75 C35       -2.3959   13.9205    5.7219 C.3       1 RES1    0.0000
     76 H34       -1.5307   13.5031    5.9219 H         1 RES1    0.0000
     77 H35       -2.9436   13.9429    6.5339 H         1 RES1    0.0000
     78 H36       -2.2508   14.8335    5.4003 H         1 RES1    0.0000
     79 C36       -4.5683   13.3307    4.7605 C.3       1 RES1    0.0000
     80 H37       -5.0117   12.8401    4.0372 H         1 RES1    0.0000
     81 H38       -4.7727   14.2841    4.6822 H         1 RES1    0.0000
     82 H39       -4.8903   12.9981    5.6263 H         1 RES1    0.0000
     83 O5        -4.2273    9.6588    6.2157 O.2       2 RES2    0.0000
     84 N4        -2.7954    8.1528   13.0817 N.am      2 RES2    0.0000
     85 N5        -5.3960    7.5733    7.1598 N.pl3     2 RES2    0.0000
     86 H40       -5.0960    8.0565    6.4887 H         2 RES2    0.0000
     87 C37       -0.1207    8.2166   15.6584 C.ar      2 RES2    0.0000
     88 H41        0.7110    7.8007   15.8514 H         2 RES2    0.0000
     89 O6        -3.8363    6.4844   14.2205 O.2       2 RES2    0.0000
     90 O7        -1.8472    9.8711   11.9724 O.2       2 RES2    0.0000
     91 C38        0.3557    5.6382   14.2918 C.3       2 RES2    0.0000
     92 H42        1.0729    5.9142   14.9003 H         2 RES2    0.0000
     93 H43        0.7106    5.0092   13.6311 H         2 RES2    0.0000
     94 H44       -0.3593    5.2048   14.8047 H         2 RES2    0.0000
     95 C39       -0.2068    6.8708   13.5737 C.3       2 RES2    0.0000
     96 H45       -0.9194    6.5642   12.9426 H         2 RES2    0.0000
     97 C40       -0.8150    7.8626   14.5213 C.ar      2 RES2    0.0000
     98 C41       -2.0600    8.4935   14.2744 C.ar      2 RES2    0.0000
     99 C42       -2.6241    8.9265   11.9220 C.2       2 RES2    0.0000
    100 C43       -3.4136    8.5530   10.7362 C.ar      2 RES2    0.0000
    101 C44       -3.2804    9.2932    9.6235 C.ar      2 RES2    0.0000
    102 H46       -2.7087   10.0517    9.6357 H         2 RES2    0.0000
    103 C45       -3.9692    8.9697    8.4464 C.ar      2 RES2    0.0000
    104 C46       -4.8421    7.8724    8.3491 C.ar      2 RES2    0.0000
    105 C47       -6.4133    6.5837    6.7860 C.ar      2 RES2    0.0000
    106 C48       -7.7874    6.9813    6.9008 C.ar      2 RES2    0.0000
    107 C49       -8.7173    6.0326    6.5426 C.ar      2 RES2    0.0000
    108 H47       -9.6418    6.2411    6.6191 H         2 RES2    0.0000
    109 C50       -8.3608    4.8419    6.0958 C.ar      2 RES2    0.0000
    110 H48       -9.0331    4.2023    5.8923 H         2 RES2    0.0000
    111 C51        0.9136    7.5198   12.7514 C.3       2 RES2    0.0000
    112 H49        1.5618    7.9358   13.3564 H         2 RES2    0.0000
    113 H50        0.5313    8.2025   12.1602 H         2 RES2    0.0000
    114 H51        1.3625    6.8344   12.2124 H         2 RES2    0.0000
    115 C52       -2.5774    9.4368   15.1472 C.ar      2 RES2    0.0000
    116 C53       -3.9013   10.1273   14.8795 C.3       2 RES2    0.0000
    117 H52       -4.2408    9.8011   13.9980 H         2 RES2    0.0000
    118 C54       -4.9519    9.7726   15.9435 C.3       2 RES2    0.0000
    119 H53       -4.5571    9.8637   16.8355 H         2 RES2    0.0000
    120 H54       -5.2523    8.8502   15.8097 H         2 RES2    0.0000
    121 H55       -5.7162   10.3807   15.8618 H         2 RES2    0.0000
    122 C55       -1.8348    9.7626   16.2635 C.ar      2 RES2    0.0000
    123 H56       -2.1601   10.4116   16.8772 H         2 RES2    0.0000
    124 C56       -0.6130    9.1405   16.4930 C.ar      2 RES2    0.0000
    125 H57       -0.1120    9.3788   17.2632 H         2 RES2    0.0000
    126 C57       -3.7100    7.0915   13.1617 C.2       2 RES2    0.0000
    127 C58       -4.4674    6.7530   11.9672 C.ar      2 RES2    0.0000
    128 C59       -5.3537    5.7087   12.0037 C.ar      2 RES2    0.0000
    129 H58       -5.4547    5.2078   12.8035 H         2 RES2    0.0000
    130 C60       -6.1019    5.3740   10.8875 C.ar      2 RES2    0.0000
    131 H59       -6.7313    4.6640   10.9397 H         2 RES2    0.0000
    132 C61       -5.9500    6.0509    9.7243 C.ar      2 RES2    0.0000
    133 H60       -6.4711    5.7940    8.9732 H         2 RES2    0.0000
    134 C62       -5.0455    7.1189    9.5905 C.ar      2 RES2    0.0000
    135 C63       -4.3000    7.4789   10.7623 C.ar      2 RES2    0.0000
    136 O8        -3.2171   10.8824    7.5197 O.2       2 RES2    0.0000
    137 C64       -7.0378    4.5075    5.9201 C.ar      2 RES2    0.0000
    138 H61       -6.8155    3.6563    5.5637 H         2 RES2    0.0000
    139 C65       -6.0337    5.3832    6.2505 C.ar      2 RES2    0.0000
    140 C66       -4.5656    5.0659    6.0106 C.3       2 RES2    0.0000
    141 H62       -4.0639    5.9308    6.0453 H         2 RES2    0.0000
    142 C67       -4.3467    4.4577    4.5970 C.3       2 RES2    0.0000
    143 H63       -3.3871    4.3816    4.4197 H         2 RES2    0.0000
    144 H64       -4.7572    5.0405    3.9224 H         2 RES2    0.0000
    145 H65       -4.7594    3.5704    4.5553 H         2 RES2    0.0000
    146 C68       -4.0067    4.1745    7.0868 C.3       2 RES2    0.0000
    147 H66       -4.4700    3.3110    7.0694 H         2 RES2    0.0000
    148 H67       -4.1356    4.5975    7.9613 H         2 RES2    0.0000
    149 H68       -3.0492    4.0344    6.9303 H         2 RES2    0.0000
    150 C69       -8.1566    8.3581    7.3615 C.3       2 RES2    0.0000
    151 H69       -7.4723    8.6863    8.0118 H         2 RES2    0.0000
    152 C70       -8.1520    9.2664    6.1062 C.3       2 RES2    0.0000
    153 H70       -7.2658    9.2384    5.6872 H         2 RES2    0.0000
    154 H71       -8.3599   10.1874    6.3687 H         2 RES2    0.0000
    155 H72       -8.8241    8.9471    5.4698 H         2 RES2    0.0000
    156 N6        -3.7796    9.8609    7.3111 N.pl3     2 RES2    0.0000
    157 C71       -9.5123    8.4555    7.9735 C.3       2 RES2    0.0000
    158 H73       -9.9015    7.5594    8.0500 H         2 RES2    0.0000
    159 H74      -10.0863    9.0132    7.4067 H         2 RES2    0.0000
    160 H75       -9.4401    8.8584    8.8637 H         2 RES2    0.0000
    161 C72       -3.6989   11.6196   14.7699 C.3       2 RES2    0.0000
    162 H76       -3.5388   11.9943   15.6601 H         2 RES2    0.0000
    163 H77       -4.5010   12.0309   14.3822 H         2 RES2    0.0000
    164 H78       -2.9266   11.8029   14.1944 H         2 RES2    0.0000
@<TRIPOS>BOND
     1    1    9 2
     2    2    9 2
     3    3    4 1
     4    5    6 1
     5    6   21 ar
     6    7   20 2
     7    8   74 2
     8    9   43 1
     9   10   11 1
    10   12   10 ar
    11   13   12 1
    12   14   12 ar
    13   15    3 1
    14   16    3 1
    15   17   16 ar
    16   18   17 ar
    17   19   18 ar
    18   20    5 1
    19   21   22 1
    20   22   23 1
    21   24   22 1
    22   25   24 1
    23   26   24 1
    24   27   24 1
    25   28   29 1
    26   30   28 1
    27   31   28 1
    28   32   28 1
    29   33   32 1
    30   34   32 1
    31   35   34 1
    32   36   34 1
    33   37   34 1
    34   38   15 ar
    35   39   10 ar
    36   40   39 1
    37   41   14 1
    38   42   41 1
    39   43   16 ar
    40   44   43 ar
    41   45   44 1
    42   46   18 ar
    43   47   19 ar
    44   48   47 1
    45   49   47 ar
    46   50   49 1
    47   51   17 ar
    48   52   51 1
    49   53    6 ar
    50   54   53 1
    51   55   54 1
    52   56   54 1
    53   57   56 1
    54   58   56 1
    55   59   56 1
    56   60   54 1
    57   61   60 1
    58   62   60 1
    59   63   60 1
    60   64   53 ar
    61   65   64 1
    62   66   64 ar
    63   67   66 1
    64   68   21 ar
    65   69   68 1
    66   70   22 1
    67   71   70 1
    68   72   70 1
    69   73   70 1
    70   74    5 1
    71   75   41 1
    72   76   75 1
    73   77   75 1
    74   78   75 1
    75   79   41 1
    76   80   79 1
    77   81   79 1
    78   82   79 1
    79   83  156 2
    80   84   98 1
    81   85   86 1
    82   87   88 1
    83   89  126 2
    84   90   99 2
    85   91   92 1
    86   93   91 1
    87   94   91 1
    88   95   91 1
    89   96   95 1
    90   97   87 ar
    91   98   97 ar
    92   99   84 1
    93  100   99 1
    94  101  100 ar
    95  102  101 1
    96  103  101 ar
    97  104   85 1
    98  105   85 1
    99  106  105 ar
   100  107  106 ar
   101  108  107 1
   102  109  107 ar
   103  110  109 1
   104  111   95 1
   105  112  111 1
   106  113  111 1
   107  114  111 1
   108  115   98 ar
   109  116  115 1
   110  117  116 1
   111  118  116 1
   112  119  118 1
   113  120  118 1
   114  121  118 1
   115  122  115 ar
   116  123  122 1
   117  124   87 ar
   118  125  124 1
   119  126   84 1
   120  127  126 1
   121  128  127 ar
   122  129  128 1
   123  130  128 ar
   124  131  130 1
   125  132  130 ar
   126  133  132 1
   127  134  104 ar
   128  135  100 ar
   129  136  156 2
   130  137  109 ar
   131  138  137 1
   132  139  105 ar
   133  140  139 1
   134  141  140 1
   135  142  140 1
   136  143  142 1
   137  144  142 1
   138  145  142 1
   139  146  140 1
   140  147  146 1
   141  148  146 1
   142  149  146 1
   143  150  106 1
   144  151  150 1
   145  152  150 1
   146  153  152 1
   147  154  152 1
   148  155  152 1
   149  156  103 1
   150  157  150 1
   151  158  157 1
   152  159  157 1
   153  160  157 1
   154  161  116 1
   155  162  161 1
   156  163  161 1
   157  164  161 1
   158   14   15 ar
   159   19   20 1
   160   32   38 1
   161   38   39 ar
   162   44   46 ar
   163   46   74 1
   164   49   51 ar
   165   66   68 ar
   166   95   97 1
   167  103  104 ar
   168  122  124 ar
   169  127  135 ar
   170  132  134 ar
   171  134  135 ar
   172  137  139 ar
@<TRIPOS>SUBSTRUCTURE
     1 RES1 1
     2 RES2 83

@<TRIPOS>CRYSIN
  14.4650   15.7460   18.9990 109.7100  95.6800 109.0100   2 1

