# MOL2 file generated by ConQuest
# Please check atom types

@<TRIPOS>MOLECULE
KEFJUD
    36    38     1
SMALL
NO_CHARGES
****
Generated from CSD

@<TRIPOS>ATOM
      1 C1         8.3827    4.2177    7.8211 C.ar      1 RES1    0.0000
      2 H1         8.3406    3.7989    6.9919 H         1 RES1    0.0000
      3 C2         8.7631    3.4998    8.9229 C.ar      1 RES1    0.0000
      4 H2         8.9862    2.6015    8.8322 H         1 RES1    0.0000
      5 C3         8.8185    4.0978   10.1725 C.ar      1 RES1    0.0000
      6 H3         9.0724    3.6066   10.9207 H         1 RES1    0.0000
      7 C4         8.4918    5.4313   10.2904 C.ar      1 RES1    0.0000
      8 H4         8.5231    5.8405   11.1253 H         1 RES1    0.0000
      9 C5         8.1207    6.1616    9.1919 C.ar      1 RES1    0.0000
     10 H5         7.9074    7.0622    9.2873 H         1 RES1    0.0000
     11 C6         8.0595    5.5661    7.9284 C.ar      1 RES1    0.0000
     12 C7         7.6339    6.4278    6.7848 C.2       1 RES1    0.0000
     13 C8         6.7814    6.2706    4.4539 C.ar      1 RES1    0.0000
     14 C9         6.5305    7.6348    4.2495 C.ar      1 RES1    0.0000
     15 H6         6.6867    8.2396    4.9379 H         1 RES1    0.0000
     16 C10        6.0557    8.0864    3.0409 C.ar      1 RES1    0.0000
     17 H7         5.8895    8.9927    2.9115 H         1 RES1    0.0000
     18 C11        5.8287    7.1888    2.0233 C.ar      1 RES1    0.0000
     19 C12        6.0719    5.8423    2.1818 C.ar      1 RES1    0.0000
     20 H8         5.9191    5.2552    1.4770 H         1 RES1    0.0000
     21 C13        6.5445    5.3663    3.3907 C.ar      1 RES1    0.0000
     22 C14        6.7848    3.9138    3.5248 C.2       1 RES1    0.0000
     23 C15        6.8296    1.8172    2.7630 C.3       1 RES1    0.0000
     24 H9         7.5285    1.4202    2.2195 H         1 RES1    0.0000
     25 H10        6.0159    1.3005    2.6540 H         1 RES1    0.0000
     26 C16        7.2407    1.8660    4.2085 C.3       1 RES1    0.0000
     27 H11        6.6526    1.3209    4.7540 H         1 RES1    0.0000
     28 H12        8.1526    1.5545    4.3195 H         1 RES1    0.0000
     29 N1         7.1244    3.2908    4.5732 N.2       1 RES1    0.0000
     30 N2         5.2923    7.6530    0.7453 N.pl3     1 RES1    0.0000
     31 N3         7.2414    5.7580    5.6646 N.am      1 RES1    0.0000
     32 H13        7.2838    4.9003    5.7115 H         1 RES1    0.0000
     33 O1         7.6333    7.6430    6.8739 O.2       1 RES1    0.0000
     34 O2         6.6133    3.2031    2.3917 O.3       1 RES1    0.0000
     35 O3         5.2685    6.8742   -0.1947 O.2       1 RES1    0.0000
     36 O4         4.8873    8.8065    0.6825 O.2       1 RES1    0.0000
@<TRIPOS>BOND
     1    1    2 1
     2    3    1 ar
     3    4    3 1
     4    5    3 ar
     5    6    5 1
     6    7    5 ar
     7    8    7 1
     8    9    7 ar
     9   10    9 1
    10   11    1 ar
    11   12   11 1
    12   13   14 ar
    13   14   15 1
    14   16   14 ar
    15   17   16 1
    16   18   16 ar
    17   19   18 ar
    18   20   19 1
    19   21   13 ar
    20   22   21 1
    21   23   24 1
    22   25   23 1
    23   26   23 1
    24   27   26 1
    25   28   26 1
    26   29   22 2
    27   30   18 1
    28   31   12 1
    29   32   31 1
    30   33   12 2
    31   34   22 1
    32   35   30 2
    33   36   30 2
    34    9   11 ar
    35   13   31 1
    36   19   21 ar
    37   23   34 1
    38   26   29 1
@<TRIPOS>SUBSTRUCTURE
     1 RES1 1

@<TRIPOS>CRYSIN
   7.2620    9.0190   11.6420  81.4040  84.3930  71.8000   2 1

