# MOL2 file generated by ConQuest
# Please check atom types

@<TRIPOS>MOLECULE
KEFLOW
    18    19     1
SMALL
NO_CHARGES
****
Generated from CSD

@<TRIPOS>ATOM
      1 O1         2.5109    0.5650    0.8994 O.2       1 RES1    0.0000
      2 O2         1.4880    2.2239    0.0067 O.2       1 RES1    0.0000
      3 N1         1.9619    1.6572    0.9739 N.pl3     1 RES1    0.0000
      4 C1         1.8651    2.2978    2.2842 C.ar      1 RES1    0.0000
      5 C2         2.3852    1.6394    3.3752 C.ar      1 RES1    0.0000
      6 C3         2.3231    2.2417    4.6110 C.ar      1 RES1    0.0000
      7 C4         1.7510    3.5105    4.7483 C.ar      1 RES1    0.0000
      8 C5         1.2107    4.1370    3.6215 C.ar      1 RES1    0.0000
      9 C6         1.2684    3.5360    2.3840 C.ar      1 RES1    0.0000
     10 C7         1.7568    4.1577    6.0286 C.1       1 RES1    0.0000
     11 C8         1.8189    4.6967    7.0801 C.1       1 RES1    0.0000
     12 N2         1.6311    6.9448   12.2259 N.pl3     1 RES1    0.0000
     13 C9         1.7177    6.4183   10.9543 C.ar      1 RES1    0.0000
     14 C10        2.2884    5.1677   10.7446 C.ar      1 RES1    0.0000
     15 C11        2.3375    4.6281    9.4863 C.ar      1 RES1    0.0000
     16 C12        1.8117    5.3042    8.3820 C.ar      1 RES1    0.0000
     17 C13        1.2684    6.5701    8.5986 C.ar      1 RES1    0.0000
     18 C14        1.2237    7.1150    9.8566 C.ar      1 RES1    0.0000
@<TRIPOS>BOND
     1    1    3 2
     2    2    3 2
     3    3    4 1
     4    4    5 ar
     5    5    6 ar
     6    6    7 ar
     7    7    8 ar
     8    8    9 ar
     9    9    4 ar
    10   10    7 1
    11   11   10 3
    12   12   13 1
    13   13   14 ar
    14   14   15 ar
    15   15   16 ar
    16   16   11 1
    17   17   16 ar
    18   18   13 ar
    19   17   18 ar
@<TRIPOS>SUBSTRUCTURE
     1 RES1 1

@<TRIPOS>CRYSIN
  14.4470    5.9100   27.8020  90.0000  90.0000  90.0000  60 1

