# MOL2 file generated by ConQuest
# Please check atom types

@<TRIPOS>MOLECULE
KEFLUC
    20    21     1
SMALL
NO_CHARGES
****
Generated from CSD

@<TRIPOS>ATOM
      1 O1         0.1985   -2.5270    3.6121 O.2       1 RES1    0.0000
      2 O2        -1.0487   -0.8538    4.1223 O.2       1 RES1    0.0000
      3 N1        -0.1540   -1.3660    3.4536 N.pl3     1 RES1    0.0000
      4 C1         0.5099   -0.5642    2.4303 C.ar      1 RES1    0.0000
      5 C2         1.6353   -1.0377    1.8107 C.ar      1 RES1    0.0000
      6 C3         2.2457   -0.2739    0.8523 C.ar      1 RES1    0.0000
      7 C4         1.7333    0.9851    0.5280 C.ar      1 RES1    0.0000
      8 C5         0.5903    1.4283    1.1633 C.ar      1 RES1    0.0000
      9 C6        -0.0285    0.6730    2.1227 C.ar      1 RES1    0.0000
     10 C7         2.3680    1.8189   -0.4550 C.1       1 RES1    0.0000
     11 C8         2.8801    2.5488   -1.2321 C.1       1 RES1    0.0000
     12 C9         3.4891    3.4081   -2.1363 C.1       1 RES1    0.0000
     13 C10        4.0324    4.1507   -2.9111 C.1       1 RES1    0.0000
     14 N2         6.6795    7.3054   -6.7181 N.pl3     1 RES1    0.0000
     15 C11        6.0008    6.5435   -5.7830 C.ar      1 RES1    0.0000
     16 C12        6.4585    5.2778   -5.4650 C.ar      1 RES1    0.0000
     17 C13        5.8219    4.5074   -4.5297 C.ar      1 RES1    0.0000
     18 C14        4.7009    4.9700   -3.8610 C.ar      1 RES1    0.0000
     19 C15        4.2408    6.2586   -4.1685 C.ar      1 RES1    0.0000
     20 C16        4.8823    7.0157   -5.1196 C.ar      1 RES1    0.0000
@<TRIPOS>BOND
     1    1    3 2
     2    2    3 2
     3    3    4 1
     4    4    5 ar
     5    5    6 ar
     6    6    7 ar
     7    7    8 ar
     8    8    9 ar
     9    9    4 ar
    10   10    7 1
    11   11   10 3
    12   12   11 1
    13   13   12 3
    14   14   15 1
    15   15   16 ar
    16   16   17 ar
    17   17   18 ar
    18   18   13 1
    19   19   18 ar
    20   20   15 ar
    21   19   20 ar
@<TRIPOS>SUBSTRUCTURE
     1 RES1 1

@<TRIPOS>CRYSIN
   8.4120    6.0470   25.0830  90.0000  89.6800  90.0000  14 1

