# MOL2 file generated by ConQuest
# Please check atom types

@<TRIPOS>MOLECULE
KEFLAK
   224   212     3
SMALL
NO_CHARGES
****
Generated from CSD

@<TRIPOS>ATOM
      1 N1         6.1597   16.8453    2.1062 N.pl3     1 RES1    0.0000
      2 O1         6.7062   16.0140    1.3755 O.2       1 RES1    0.0000
      3 O2         6.7678   17.7572    2.6525 O.2       1 RES1    0.0000
      4 C1         4.7225   16.7167    2.3438 C.ar      1 RES1    0.0000
      5 C2         4.1415   17.4310    3.3772 C.ar      1 RES1    0.0000
      6 C3         2.7756   17.2981    3.6138 C.ar      1 RES1    0.0000
      7 C4         2.1807   17.9735    4.8403 C.3       1 RES1    0.0000
      8 C5         2.6658   17.2690    6.0970 C.ar      1 RES1    0.0000
      9 C6         2.0398   16.0841    6.5005 C.ar      1 RES1    0.0000
     10 O3         0.9242   15.7258    5.8003 O.3       1 RES1    0.0000
     11 C7         2.5246   15.3594    7.5906 C.ar      1 RES1    0.0000
     12 C8         3.6321   15.8624    8.2824 C.ar      1 RES1    0.0000
     13 C9         4.2715   17.0460    7.9237 C.ar      1 RES1    0.0000
     14 C10        3.7549   17.7303    6.8189 C.ar      1 RES1    0.0000
     15 C11        5.4504   17.6258    8.7215 C.3       1 RES1    0.0000
     16 C12        6.1564   16.5549    9.5611 C.3       1 RES1    0.0000
     17 C13        6.4994   18.2436    7.7907 C.3       1 RES1    0.0000
     18 C14        4.9099   18.7007    9.6792 C.3       1 RES1    0.0000
     19 C15        1.8484   14.0806    8.0556 C.3       1 RES1    0.0000
     20 C16        2.3421   12.7913    7.4156 C.ar      1 RES1    0.0000
     21 C17        3.3125   12.0218    8.0469 C.ar      1 RES1    0.0000
     22 C18        3.7987   10.8235    7.5078 C.ar      1 RES1    0.0000
     23 C19        3.2735   10.4262    6.2850 C.ar      1 RES1    0.0000
     24 C20        2.2911   11.1550    5.6123 C.ar      1 RES1    0.0000
     25 C21        1.8252   12.3297    6.2008 C.ar      1 RES1    0.0000
     26 O4         0.7988   13.0728    5.6438 O.3       1 RES1    0.0000
     27 C22        1.7502   10.6535    4.2771 C.3       1 RES1    0.0000
     28 C23        2.3862   11.3691    3.0948 C.ar      1 RES1    0.0000
     29 C24        3.6187   10.9430    2.6152 C.ar      1 RES1    0.0000
     30 C25        4.1896   11.6193    1.5526 C.ar      1 RES1    0.0000
     31 C26        3.6109   12.7337    0.9701 C.ar      1 RES1    0.0000
     32 C27        2.4147   13.2192    1.4769 C.ar      1 RES1    0.0000
     33 C28        1.7938   12.4850    2.4975 C.ar      1 RES1    0.0000
     34 O5         0.5550   12.9022    2.9498 O.3       1 RES1    0.0000
     35 C29       -0.5332   12.3591    2.1175 C.3       1 RES1    0.0000
     36 C30       -1.6856   13.2777    2.1733 C.3       1 RES1    0.0000
     37 C31       -2.8071   12.7717    1.2510 C.3       1 RES1    0.0000
     38 C32        1.8973   14.5783    1.0272 C.3       1 RES1    0.0000
     39 C33        2.6481   15.6630    1.7903 C.ar      1 RES1    0.0000
     40 C34        2.0273   16.4569    2.7759 C.ar      1 RES1    0.0000
     41 O6         0.6626   16.3785    2.9334 O.3       1 RES1    0.0000
     42 C35       -0.0476   17.3633    2.1528 C.3       1 RES1    0.0000
     43 C36       -1.4924   17.3722    2.5849 C.3       1 RES1    0.0000
     44 C37       -1.6848   17.8531    4.0107 C.3       1 RES1    0.0000
     45 C38        4.0060   15.8241    1.5707 C.ar      1 RES1    0.0000
     46 C39        4.8580   10.0222    8.2733 C.3       1 RES1    0.0000
     47 C40        6.1341   10.8621    8.4336 C.3       1 RES1    0.0000
     48 C41        4.3159    9.6387    9.6600 C.3       1 RES1    0.0000
     49 C42        5.2573    8.7443    7.5381 C.3       1 RES1    0.0000
     50 O7        10.6877    9.9729    6.1857 O.3       2 RES2    0.0000
     51 C43        9.6780   10.8738    6.0015 C.ar      2 RES2    0.0000
     52 C44        9.4893   11.9673    6.8633 C.ar      2 RES2    0.0000
     53 C45       10.3168   12.1661    8.1207 C.3       2 RES2    0.0000
     54 C46        9.6864   11.5538    9.3657 C.ar      2 RES2    0.0000
     55 C47        9.8778   10.2078    9.6779 C.ar      2 RES2    0.0000
     56 O8        10.7311    9.4966    8.8601 O.3       2 RES2    0.0000
     57 C48        9.2626    9.6277   10.7868 C.ar      2 RES2    0.0000
     58 C49        8.4731   10.4425   11.6074 C.ar      2 RES2    0.0000
     59 C50        8.2874   11.8007   11.3616 C.ar      2 RES2    0.0000
     60 C51        8.8981   12.3235   10.2168 C.ar      2 RES2    0.0000
     61 C52        7.4272   12.6832   12.2778 C.3       2 RES2    0.0000
     62 C53        7.9891   14.0949   12.3956 C.3       2 RES2    0.0000
     63 C54        7.3608   12.1241   13.6946 C.3       2 RES2    0.0000
     64 C55        6.0122   12.7597   11.7278 C.3       2 RES2    0.0000
     65 C56        9.4371    8.1513   11.1144 C.3       2 RES2    0.0000
     66 C57        8.5510    7.2333   10.2957 C.ar      2 RES2    0.0000
     67 C58        7.2495    6.9677   10.7096 C.ar      2 RES2    0.0000
     68 C59        6.4633    6.1152    9.9627 C.ar      2 RES2    0.0000
     69 N2         5.1096    5.7872   10.4472 N.pl3     2 RES2    0.0000
     70 O9         4.7198    6.3146   11.4819 O.2       2 RES2    0.0000
     71 O10        4.4299    5.0051    9.7988 O.2       2 RES2    0.0000
     72 C60        6.8923    5.5537    8.7714 C.ar      2 RES2    0.0000
     73 C61        8.1691    5.8365    8.3074 C.ar      2 RES2    0.0000
     74 C62        8.9987    6.6237    9.1127 C.ar      2 RES2    0.0000
     75 C63        8.6060    5.3632    6.9251 C.3       2 RES2    0.0000
     76 C64        8.0228    6.2889    5.8670 C.ar      2 RES2    0.0000
     77 C65        8.8110    7.2703    5.2388 C.ar      2 RES2    0.0000
     78 C66        8.2290    8.2885    4.4649 C.ar      2 RES2    0.0000
     79 C67        6.8766    8.2092    4.1808 C.ar      2 RES2    0.0000
     80 C68        6.1308    7.1564    4.7011 C.ar      2 RES2    0.0000
     81 C69        6.6781    6.2270    5.5609 C.ar      2 RES2    0.0000
     82 N3         4.7071    7.0700    4.3892 N.pl3     2 RES2    0.0000
     83 O11        4.0257    6.2411    4.9912 O.2       2 RES2    0.0000
     84 O12        4.2384    7.8315    3.5432 O.2       2 RES2    0.0000
     85 C70        9.0334    9.4856    3.9789 C.3       2 RES2    0.0000
     86 C71        8.8561   10.6998    4.8882 C.ar      2 RES2    0.0000
     87 C72        7.8709   11.6448    4.6124 C.ar      2 RES2    0.0000
     88 C73        7.6820   12.7711    5.4192 C.ar      2 RES2    0.0000
     89 C74        8.5059   12.8924    6.5372 C.ar      2 RES2    0.0000
     90 C75        6.6541   13.8618    5.1103 C.3       2 RES2    0.0000
     91 C76        5.7101   14.0465    6.2937 C.3       2 RES2    0.0000
     92 C77        5.7945   13.5252    3.8947 C.3       2 RES2    0.0000
     93 C78        7.3903   15.1848    4.8437 C.3       2 RES2    0.0000
     94 O13        6.1220   10.3340    1.6937 O.2       1 RES1    0.0000
     95 O14        5.9497   11.7250    0.0460 O.2       1 RES1    0.0000
     96 N4         5.5080   11.1945    1.0592 N.pl3     1 RES1    0.0000
     97 O15       10.3096    6.8433    8.7209 O.3       2 RES2    0.0000
     98 C79       11.2746    5.8781    9.2806 C.3       2 RES2    0.0000
     99 C80       12.6936    6.3345    9.1847 C.3       2 RES2    0.0000
    100 C81       13.1200    6.6592    7.7609 C.3       2 RES2    0.0000
    101 O16       10.1690    7.2234    5.3842 O.3       2 RES2    0.0000
    102 C82       10.7222    6.4999    4.2138 C.3       2 RES2    0.0000
    103 C83       12.1768    6.7793    4.1010 C.3       2 RES2    0.0000
    104 C84       12.8065    6.0864    2.9308 C.3       2 RES2    0.0000
    105 H1         4.6694   18.0081    3.9241 H         1 RES1    0.0000
    106 H2         2.4598   18.8933    4.8727 H         1 RES1    0.0000
    107 H3         1.2027   17.9407    4.8108 H         1 RES1    0.0000
    108 H4         3.9484   15.3493    9.0398 H         1 RES1    0.0000
    109 H5         4.1547   18.5227    6.5523 H         1 RES1    0.0000
    110 H6         6.9296   16.9574    9.9883 H         1 RES1    0.0000
    111 H7         5.5595   16.1978   10.2718 H         1 RES1    0.0000
    112 H8         6.4472   15.8333    8.9716 H         1 RES1    0.0000
    113 H9         7.2540   18.5870    8.3065 H         1 RES1    0.0000
    114 H10        6.1343   19.0005    7.2855 H         1 RES1    0.0000
    115 H11        6.8424   17.5731    7.1619 H         1 RES1    0.0000
    116 H12        5.6457   19.0557   10.2100 H         1 RES1    0.0000
    117 H13        4.5371   19.4355    9.1527 H         1 RES1    0.0000
    118 H14        4.2296   18.2899   10.2697 H         1 RES1    0.0000
    119 H15        2.0067   13.9893    9.0248 H         1 RES1    0.0000
    120 H16        0.8900   14.1731    7.8951 H         1 RES1    0.0000
    121 H17        3.6671   12.3260    8.8863 H         1 RES1    0.0000
    122 H18        3.5757    9.6213    5.9043 H         1 RES1    0.0000
    123 H19        0.7957   10.7852    4.2524 H         1 RES1    0.0000
    124 H20        1.9522    9.7040    4.1948 H         1 RES1    0.0000
    125 H21        4.0455   10.1910    2.9948 H         1 RES1    0.0000
    126 H22        4.0173   13.1438    0.2430 H         1 RES1    0.0000
    127 H23       -0.2708   12.3137    1.1340 H         1 RES1    0.0000
    128 H24       -0.7807   11.4990    2.4598 H         1 RES1    0.0000
    129 H25       -1.3818   14.1700    1.8502 H         1 RES1    0.0000
    130 H26       -1.9741   13.3093    3.1546 H         1 RES1    0.0000
    131 H27       -3.5501   13.4593    1.2256 H         1 RES1    0.0000
    132 H28       -2.4251   12.5986    0.3560 H         1 RES1    0.0000
    133 H29       -3.1451   11.9094    1.6050 H         1 RES1    0.0000
    134 H30        2.0535   14.6815    0.0831 H         1 RES1    0.0000
    135 H31        0.9438   14.6356    1.1830 H         1 RES1    0.0000
    136 H32        0.3434   18.2409    2.3191 H         1 RES1    0.0000
    137 H33        0.0493   17.1473    1.1809 H         1 RES1    0.0000
    138 H34       -1.9818   17.9683    1.9610 H         1 RES1    0.0000
    139 H35       -1.8487   16.4735    2.5088 H         1 RES1    0.0000
    140 H36       -2.6286   17.9101    4.2396 H         1 RES1    0.0000
    141 H37       -1.3061   18.7371    4.0989 H         1 RES1    0.0000
    142 H38       -1.2385   17.2576    4.6424 H         1 RES1    0.0000
    143 H39        4.4432   15.3401    0.9059 H         1 RES1    0.0000
    144 H40        6.7891   10.3533    8.9524 H         1 RES1    0.0000
    145 H41        5.9179   11.7134    8.8778 H         1 RES1    0.0000
    146 H42        6.4764   11.0425    7.5157 H         1 RES1    0.0000
    147 H43        5.0292    9.1526   10.1247 H         1 RES1    0.0000
    148 H44        4.0814   10.4452   10.1354 H         1 RES1    0.0000
    149 H45        3.5324    9.0730    9.5513 H         1 RES1    0.0000
    150 H46        5.9407    8.2766    8.0635 H         1 RES1    0.0000
    151 H47        5.6426    9.0025    6.6482 H         1 RES1    0.0000
    152 H48        4.4771    8.1387    7.4347 H         1 RES1    0.0000
    153 H49       10.4111   13.1316    8.2809 H         2 RES2    0.0000
    154 H50       11.1872   11.7716    8.0166 H         2 RES2    0.0000
    155 H51        8.0445   10.0532   12.3692 H         2 RES2    0.0000
    156 H52        8.7964   13.2572    9.9947 H         2 RES2    0.0000
    157 H53        7.3988   14.5805   12.9809 H         2 RES2    0.0000
    158 H54        8.8818   14.0076   12.8040 H         2 RES2    0.0000
    159 H55        8.0503   14.4855   11.5145 H         2 RES2    0.0000
    160 H56        6.8822   12.7763   14.2236 H         2 RES2    0.0000
    161 H57        8.2702   12.0411   14.0488 H         2 RES2    0.0000
    162 H58        6.8724   11.2631   13.7163 H         2 RES2    0.0000
    163 H59        5.4772   13.3583   12.2775 H         2 RES2    0.0000
    164 H60        6.0980   13.1316   10.8366 H         2 RES2    0.0000
    165 H61        5.6511   11.8481   11.7297 H         2 RES2    0.0000
    166 H62        9.2468    8.0284   12.0559 H         2 RES2    0.0000
    167 H63       10.3635    7.8875   10.9368 H         2 RES2    0.0000
    168 H64        6.9205    7.3546   11.4910 H         2 RES2    0.0000
    169 H65        6.3263    4.9898    8.2682 H         2 RES2    0.0000
    170 H66        9.5742    5.3727    6.8741 H         2 RES2    0.0000
    171 H67        8.2837    4.4507    6.8059 H         2 RES2    0.0000
    172 H68        6.4642    8.8830    3.6406 H         2 RES2    0.0000
    173 H69        6.1208    5.5688    5.9384 H         2 RES2    0.0000
    174 H70        8.7213    9.7193    3.0779 H         2 RES2    0.0000
    175 H71        9.9788    9.2261    3.9497 H         2 RES2    0.0000
    176 H72        7.3104   11.5265    3.8517 H         2 RES2    0.0000
    177 H73        8.3968   13.6493    7.1044 H         2 RES2    0.0000
    178 H74        5.1100   14.7673    6.0834 H         2 RES2    0.0000
    179 H75        6.1900   14.2680    7.1044 H         2 RES2    0.0000
    180 H76        5.1856   13.2419    6.4351 H         2 RES2    0.0000
    181 H77        5.1614   14.2588    3.7579 H         2 RES2    0.0000
    182 H78        6.3675   13.4532    3.0971 H         2 RES2    0.0000
    183 H79        5.3026   12.6813    4.0414 H         2 RES2    0.0000
    184 H80        6.7205   15.8945    4.7234 H         2 RES2    0.0000
    185 H81        7.9571   15.4075    5.5995 H         2 RES2    0.0000
    186 H82        7.9474   15.0859    4.0350 H         2 RES2    0.0000
    187 H83       11.0679    5.7434   10.2228 H         2 RES2    0.0000
    188 H84       11.2070    5.0296    8.8096 H         2 RES2    0.0000
    189 H85       12.8413    7.0666    9.8689 H         2 RES2    0.0000
    190 H86       13.2710    5.5442    9.4021 H         2 RES2    0.0000
    191 H87       14.0601    6.7695    7.7630 H         2 RES2    0.0000
    192 H88       12.7002    7.4618    7.4667 H         2 RES2    0.0000
    193 H89       12.8965    5.9455    7.1726 H         2 RES2    0.0000
    194 H90       10.2658    6.8154    3.3976 H         2 RES2    0.0000
    195 H91       10.5838    5.5381    4.2694 H         2 RES2    0.0000
    196 H92       12.3538    7.7344    4.0499 H         2 RES2    0.0000
    197 H93       12.5588    6.4509    4.9068 H         2 RES2    0.0000
    198 H94       13.7392    6.3498    2.9010 H         2 RES2    0.0000
    199 H95       12.3687    6.3682    2.1102 H         2 RES2    0.0000
    200 H96       12.7165    5.1277    3.0225 H         2 RES2    0.0000
    201 H97        0.6540   12.9233    4.8215 H         1 RES1    0.0000
    202 H98        0.8324   14.8776    5.7636 H         1 RES1    0.0000
    203 H99       10.6952    8.6288    8.9225 H         2 RES2    0.0000
    204 H100      10.9381    9.9031    6.9956 H         2 RES2    0.0000
    205 C85       11.1753    5.7311    9.0504 Du        3 SUP3    0.0000
    206 C86       12.3778    5.7924    8.1786 Du        3 SUP3    0.0000
    207 C87       13.1889    6.9962    8.6881 Du        3 SUP3    0.0000
    208 C88       11.1668    6.4234    4.8577 Du        3 SUP3    0.0000
    209 C89       11.6029    6.9839    3.5426 Du        3 SUP3    0.0000
    210 C90       12.5269    5.9976    2.8136 Du        3 SUP3    0.0000
    211 H101      10.7061    4.9041    8.8394 Du        3 SUP3    0.0000
    212 H102      11.4184    5.7495    9.9904 Du        3 SUP3    0.0000
    213 H103      12.9302    4.9868    8.1531 Du        3 SUP3    0.0000
    214 H104      12.1723    6.0742    7.2663 Du        3 SUP3    0.0000
    215 H105      13.0717    6.8461    9.6558 Du        3 SUP3    0.0000
    216 H106      14.1403    6.9533    8.4707 Du        3 SUP3    0.0000
    217 H107      12.8384    7.8722    8.4302 Du        3 SUP3    0.0000
    218 H108      10.8727    5.5044    4.8002 Du        3 SUP3    0.0000
    219 H109      11.9357    6.4662    5.4396 Du        3 SUP3    0.0000
    220 H110      11.9959    7.8722    3.6257 Du        3 SUP3    0.0000
    221 H111      10.8070    7.0329    2.9905 Du        3 SUP3    0.0000
    222 H112      13.2679    5.8475    3.3998 Du        3 SUP3    0.0000
    223 H113      12.8455    6.4295    2.0015 Du        3 SUP3    0.0000
    224 H114      12.1082    5.1644    2.5770 Du        3 SUP3    0.0000
@<TRIPOS>BOND
     1    1    2 2
     2    3    1 2
     3    4    1 1
     4    5    4 ar
     5    6    5 ar
     6    7    6 1
     7    8    7 1
     8    9    8 ar
     9   10    9 1
    10   11    9 ar
    11   12   11 ar
    12   13   12 ar
    13   14    8 ar
    14   15   13 1
    15   16   15 1
    16   17   15 1
    17   18   15 1
    18   19   11 1
    19   20   19 1
    20   21   20 ar
    21   22   21 ar
    22   23   22 ar
    23   24   23 ar
    24   25   20 ar
    25   26   25 1
    26   27   24 1
    27   28   27 1
    28   29   28 ar
    29   30   29 ar
    30   31   30 ar
    31   32   31 ar
    32   33   28 ar
    33   34   33 1
    34   35   34 1
    35   36   35 1
    36   37   36 1
    37   38   32 1
    38   39   38 1
    39   40    6 ar
    40   41   40 1
    41   42   41 1
    42   43   42 1
    43   44   43 1
    44   45    4 ar
    45   46   22 1
    46   47   46 1
    47   48   46 1
    48   49   46 1
    49   50   51 1
    50   51   52 ar
    51   52   53 1
    52   53   54 1
    53   54   55 ar
    54   55   56 1
    55   56  203 1
    56   57   55 ar
    57   58   57 ar
    58   59   58 ar
    59   60   54 ar
    60   61   59 1
    61   62   61 1
    62   63   61 1
    63   64   61 1
    64   65   57 1
    65   66   65 1
    66   67   66 ar
    67   68   67 ar
    68   69   68 1
    69   70   69 2
    70   71   69 2
    71   72   68 ar
    72   73   72 ar
    73   74   66 ar
    74   75   73 1
    75   76   75 1
    76   77   76 ar
    77   78   77 ar
    78   79   78 ar
    79   80   79 ar
    80   81   76 ar
    81   82   80 1
    82   83   82 2
    83   84   82 2
    84   85   78 1
    85   86   51 ar
    86   87   86 ar
    87   88   87 ar
    88   89   52 ar
    89   90   88 1
    90   91   90 1
    91   92   90 1
    92   93   90 1
    93   94   96 2
    94   95   96 2
    95   96   30 1
    96   97   74 1
    97   98   97 1
    98   99   98 1
    99  100   99 1
   100  101   77 1
   101  102  101 1
   102  103  102 1
   103  104  103 1
   104  105    5 1
   105  106    7 1
   106  107    7 1
   107  108   12 1
   108  109   14 1
   109  110   16 1
   110  111   16 1
   111  112   16 1
   112  113   17 1
   113  114   17 1
   114  115   17 1
   115  116   18 1
   116  117   18 1
   117  118   18 1
   118  119   19 1
   119  120   19 1
   120  121   21 1
   121  122   23 1
   122  123   27 1
   123  124   27 1
   124  125   29 1
   125  126   31 1
   126  127   35 1
   127  128   35 1
   128  129   36 1
   129  130   36 1
   130  131   37 1
   131  132   37 1
   132  133   37 1
   133  134   38 1
   134  135   38 1
   135  136   42 1
   136  137   42 1
   137  138   43 1
   138  139   43 1
   139  140   44 1
   140  141   44 1
   141  142   44 1
   142  143   45 1
   143  144   47 1
   144  145   47 1
   145  146   47 1
   146  147   48 1
   147  148   48 1
   148  149   48 1
   149  150   49 1
   150  151   49 1
   151  152   49 1
   152  153   53 1
   153  154   53 1
   154  155   58 1
   155  156   60 1
   156  157   62 1
   157  158   62 1
   158  159   62 1
   159  160   63 1
   160  161   63 1
   161  162   63 1
   162  163   64 1
   163  164   64 1
   164  165   64 1
   165  166   65 1
   166  167   65 1
   167  168   67 1
   168  169   72 1
   169  170   75 1
   170  171   75 1
   171  172   79 1
   172  173   81 1
   173  174   85 1
   174  175   85 1
   175  176   87 1
   176  177   89 1
   177  178   91 1
   178  179   91 1
   179  180   91 1
   180  181   92 1
   181  182   92 1
   182  183   92 1
   183  184   93 1
   184  185   93 1
   185  186   93 1
   186  187   98 1
   187  188   98 1
   188  189   99 1
   189  190   99 1
   190  191  100 1
   191  192  100 1
   192  193  100 1
   193  194  102 1
   194  195  102 1
   195  196  103 1
   196  197  103 1
   197  198  104 1
   198  199  104 1
   199  200  104 1
   200  201   26 1
   201  202   10 1
   202  204   50 1
   203   13   14 ar
   204   24   25 ar
   205   32   33 ar
   206   39   40 ar
   207   39   45 ar
   208   59   60 ar
   209   73   74 ar
   210   80   81 ar
   211   85   86 1
   212   88   89 ar
@<TRIPOS>SUBSTRUCTURE
     1 RES1 1
     2 RES2 50
     3 SUP3 205

@<TRIPOS>CRYSIN
  11.6699   30.6312   21.9350  90.0000 103.6530  90.0000 231 1

