# MOL2 file generated by ConQuest
# Please check atom types

@<TRIPOS>MOLECULE
KEFLEM
    16    17     1
SMALL
NO_CHARGES
****
Generated from CSD

@<TRIPOS>ATOM
      1 N1        18.5957    3.0568    6.2407 N.pl3     1 RES1    0.0000
      2 O1        18.3394    4.1040    5.6547 O.2       1 RES1    0.0000
      3 O2        17.7537    2.3144    6.7406 O.2       1 RES1    0.0000
      4 C1        20.0137    2.6740    6.3764 C.ar      1 RES1    0.0000
      5 C2        20.9681    3.4873    5.8179 C.ar      1 RES1    0.0000
      6 C3        22.2982    3.1027    5.9084 C.ar      1 RES1    0.0000
      7 C4        22.6741    1.9275    6.5344 C.ar      1 RES1    0.0000
      8 C5        21.6612    1.1613    7.1055 C.ar      1 RES1    0.0000
      9 C6        20.3408    1.5243    7.0246 C.ar      1 RES1    0.0000
     10 N2        28.1022    0.2036    6.6093 N.pl3     1 RES1    0.0000
     11 C7        26.8013    0.6283    6.5893 C.ar      1 RES1    0.0000
     12 C8        26.4499    1.8548    6.0449 C.ar      1 RES1    0.0000
     13 C9        25.1246    2.2748    6.0389 C.ar      1 RES1    0.0000
     14 C10       24.0946    1.5045    6.5789 C.ar      1 RES1    0.0000
     15 C11       24.4875    0.2950    7.1478 C.ar      1 RES1    0.0000
     16 C12       25.7909   -0.1373    7.1515 C.ar      1 RES1    0.0000
@<TRIPOS>BOND
     1    1    2 2
     2    3    1 2
     3    4    1 1
     4    5    4 ar
     5    6    5 ar
     6    7    6 ar
     7    8    7 ar
     8    9    4 ar
     9   10   11 1
    10   11   12 ar
    11   12   13 ar
    12   13   14 ar
    13   14    7 1
    14   15   14 ar
    15   16   11 ar
    16    8    9 ar
    17   15   16 ar
@<TRIPOS>SUBSTRUCTURE
     1 RES1 1

@<TRIPOS>CRYSIN
  24.4070    5.8180    7.4170  90.0000  90.0000  90.0000  29 1

