# MOL2 file generated by ConQuest
# Please check atom types

@<TRIPOS>MOLECULE
KEFMAJ
    22    23     1
SMALL
NO_CHARGES
****
Generated from CSD

@<TRIPOS>ATOM
      1 O1        -0.6310   -2.9817    4.4421 O.2       1 RES1    0.0000
      2 O2        -1.9134   -1.2942    4.7966 O.2       1 RES1    0.0000
      3 N1        -0.9819   -1.8285    4.2173 N.pl3     1 RES1    0.0000
      4 C1        -0.2517   -1.0595    3.2042 C.ar      1 RES1    0.0000
      5 C2         0.8992   -1.5794    2.6642 C.ar      1 RES1    0.0000
      6 C3         1.5786   -0.8356    1.7238 C.ar      1 RES1    0.0000
      7 C4         1.1047    0.4172    1.3218 C.ar      1 RES1    0.0000
      8 C5        -0.0691    0.8980    1.8836 C.ar      1 RES1    0.0000
      9 C6        -0.7533    0.1747    2.8291 C.ar      1 RES1    0.0000
     10 C7         1.8205    1.2018    0.3657 C.1       1 RES1    0.0000
     11 C8         2.4028    1.8735   -0.4309 C.1       1 RES1    0.0000
     12 C9         3.0650    2.6437   -1.3478 C.1       1 RES1    0.0000
     13 C10        3.6424    3.3365   -2.1527 C.1       1 RES1    0.0000
     14 C11        4.3055    4.1133   -3.0619 C.1       1 RES1    0.0000
     15 C12        4.8915    4.7940   -3.8619 C.1       1 RES1    0.0000
     16 N2         7.6522    7.7661   -7.7319 N.pl3     1 RES1    0.0000
     17 C13        6.9597    7.0439   -6.7804 C.ar      1 RES1    0.0000
     18 C14        7.3918    5.7677   -6.4164 C.ar      1 RES1    0.0000
     19 C15        6.7163    5.0575   -5.4658 C.ar      1 RES1    0.0000
     20 C16        5.5958    5.5702   -4.8272 C.ar      1 RES1    0.0000
     21 C17        5.1775    6.8662   -5.1794 C.ar      1 RES1    0.0000
     22 C18        5.8443    7.5734   -6.1418 C.ar      1 RES1    0.0000
@<TRIPOS>BOND
     1    1    3 2
     2    2    3 2
     3    3    4 1
     4    4    5 ar
     5    5    6 ar
     6    6    7 ar
     7    7    8 ar
     8    8    9 ar
     9    9    4 ar
    10   10    7 1
    11   11   10 3
    12   12   11 1
    13   13   12 3
    14   14   13 1
    15   15   14 3
    16   16   17 1
    17   17   18 ar
    18   18   19 ar
    19   19   20 ar
    20   20   15 1
    21   21   20 ar
    22   22   17 ar
    23   21   22 ar
@<TRIPOS>SUBSTRUCTURE
     1 RES1 1

@<TRIPOS>CRYSIN
   8.4260    6.0030   28.8350  90.0000  96.7600  90.0000  14 1

