# MOL2 file generated by ConQuest
# Please check atom types

@<TRIPOS>MOLECULE
KEFTIY
    74    74     2
SMALL
NO_CHARGES
****
Generated from CSD

@<TRIPOS>ATOM
      1 C1        -1.6504    1.7715   -2.5187 C.2       1 RES1    0.0000
      2 C2        -2.9017    2.0284   -2.1872 C.2       1 RES1    0.0000
      3 C3        -3.3692    2.5841   -0.8698 C.3       1 RES1    0.0000
      4 C4        -2.2985    2.4638    0.2372 C.3       1 RES1    0.0000
      5 C5        -0.9162    2.8043   -0.2911 C.3       1 RES1    0.0000
      6 C6        -0.5237    2.0434   -1.5647 C.3       1 RES1    0.0000
      7 C7        -1.2357    1.1245   -3.8243 C.3       1 RES1    0.0000
      8 C8        -2.3342    1.0451   -4.8574 C.3       1 RES1    0.0000
      9 C9        -0.6089   -0.2499   -3.6005 C.3       1 RES1    0.0000
     10 C10       -2.6402    3.2981    1.4688 C.3       1 RES1    0.0000
     11 N1        -3.7516    4.0625   -1.0583 N.pl3     1 RES1    0.0000
     12 O1        -2.9248    4.7883   -1.5546 O.2       1 RES1    0.0000
     13 O2        -4.8451    4.3946   -0.6747 O.2       1 RES1    0.0000
     14 N2        -2.4044    0.9799    0.6478 N.pl3     1 RES1    0.0000
     15 O3        -1.5384    0.2149    0.2843 O.2       1 RES1    0.0000
     16 O4        -3.3618    0.6522    1.3123 O.2       1 RES1    0.0000
     17 O5         0.0902    2.4758    0.6865 O.3       1 RES1    0.0000
     18 N3         0.7703    3.6190    1.2669 N.pl3     1 RES1    0.0000
     19 O6         0.3663    4.7053    0.9910 O.2       1 RES1    0.0000
     20 O7         1.6819    3.2555    1.9567 O.2       1 RES1    0.0000
     21 N4         0.5281    2.8651   -2.2916 N.pl3     1 RES1    0.0000
     22 O8         1.6065    2.3468   -2.5237 O.2       1 RES1    0.0000
     23 O9         0.2214    3.9980   -2.6297 O.2       1 RES1    0.0000
     24 H1        -3.5748    1.8439   -2.8468 H         1 RES1    0.0000
     25 H2        -4.1283    2.0687   -0.5872 H         1 RES1    0.0000
     26 H3        -0.9600    3.7433   -0.4862 H         1 RES1    0.0000
     27 H4        -0.2074    1.1835   -1.2787 H         1 RES1    0.0000
     28 H5        -0.5723    1.7149   -4.1894 H         1 RES1    0.0000
     29 H6        -2.6590    1.9143   -5.1737 H         1 RES1    0.0000
     30 H7        -3.0876    0.5199   -4.5158 H         1 RES1    0.0000
     31 H8        -1.9094    0.5660   -5.5993 H         1 RES1    0.0000
     32 H9         0.1896   -0.1934   -3.0352 H         1 RES1    0.0000
     33 H10       -0.3701   -0.6510   -4.4620 H         1 RES1    0.0000
     34 H11       -1.2857   -0.8032   -3.1580 H         1 RES1    0.0000
     35 H12       -3.5432    3.0590    1.7649 H         1 RES1    0.0000
     36 H13       -2.6019    4.2594    1.2821 H         1 RES1    0.0000
     37 H14       -1.9964    3.0770    2.1738 H         1 RES1    0.0000
     38 C11        2.2264    3.4222    8.2661 C.2       2 RES2    0.0000
     39 C12        3.4263    3.5563    7.7142 C.2       2 RES2    0.0000
     40 C13        3.7169    4.2471    6.4322 C.3       2 RES2    0.0000
     41 C14        2.5930    5.1860    5.9930 C.3       2 RES2    0.0000
     42 C15        1.2335    4.5177    6.1798 C.3       2 RES2    0.0000
     43 C16        0.9977    3.9907    7.5864 C.3       2 RES2    0.0000
     44 C17        1.9978    2.8381    9.6323 C.3       2 RES2    0.0000
     45 C18        2.9525    1.7094    9.9789 C.3       2 RES2    0.0000
     46 C19        2.0596    3.9572   10.6620 C.3       2 RES2    0.0000
     47 C20        2.7872    5.7496    4.5797 C.3       2 RES2    0.0000
     48 N5         4.0423    3.2179    5.3671 N.pl3     2 RES2    0.0000
     49 O10        3.1296    2.5640    4.9112 O.2       2 RES2    0.0000
     50 O11        5.1960    3.0503    5.0946 O.2       2 RES2    0.0000
     51 N6         2.7185    6.3943    6.9470 N.pl3     2 RES2    0.0000
     52 O12        1.8001    6.6994    7.6621 O.2       2 RES2    0.0000
     53 O13        3.7718    7.0032    6.9285 O.2       2 RES2    0.0000
     54 O14        0.1440    5.4038    5.8635 O.3       2 RES2    0.0000
     55 N7        -0.5725    5.0789    4.6555 N.pl3     2 RES2    0.0000
     56 O15       -0.1506    4.2076    3.9673 O.2       2 RES2    0.0000
     57 O16       -1.5115    5.8190    4.5209 O.2       2 RES2    0.0000
     58 N8        -0.0514    2.8732    7.4905 N.pl3     2 RES2    0.0000
     59 O17       -1.0732    3.0137    8.1062 O.2       2 RES2    0.0000
     60 O18        0.2347    1.9100    6.8292 O.2       2 RES2    0.0000
     61 H15        4.1709    3.1738    8.1836 H         2 RES2    0.0000
     62 H16        4.4817    4.8120    6.5684 H         2 RES2    0.0000
     63 H17        1.2567    3.7771    5.5690 H         2 RES2    0.0000
     64 H18        0.7176    4.7380    8.1197 H         2 RES2    0.0000
     65 H19        1.1271    2.4350    9.6356 H         2 RES2    0.0000
     66 H20        3.8365    2.1319   10.0226 H         2 RES2    0.0000
     67 H21        2.9569    1.0127    9.2907 H         2 RES2    0.0000
     68 H22        2.7392    1.3090   10.8487 H         2 RES2    0.0000
     69 H23        1.9689    3.5896   11.5654 H         2 RES2    0.0000
     70 H24        1.3132    4.5663   10.4802 H         2 RES2    0.0000
     71 H25        2.9047    4.4481   10.5913 H         2 RES2    0.0000
     72 H26        3.6809    6.1408    4.4822 H         2 RES2    0.0000
     73 H27        2.1108    6.4251    4.3644 H         2 RES2    0.0000
     74 H28        2.6952    4.9886    3.9690 H         2 RES2    0.0000
@<TRIPOS>BOND
     1    1    2 2
     2    2    3 1
     3    3    4 1
     4    4    5 1
     5    5    6 1
     6    6    1 1
     7    7    1 1
     8    8    7 1
     9    9    7 1
    10   10    4 1
    11   11    3 1
    12   12   11 2
    13   13   11 2
    14   14    4 1
    15   15   14 2
    16   16   14 2
    17   17    5 1
    18   18   17 1
    19   19   18 2
    20   20   18 2
    21   21    6 1
    22   22   21 2
    23   23   21 2
    24   24    2 1
    25   25    3 1
    26   26    5 1
    27   27    6 1
    28   28    7 1
    29   29    8 1
    30   30    8 1
    31   31    8 1
    32   32    9 1
    33   33    9 1
    34   34    9 1
    35   35   10 1
    36   36   10 1
    37   37   10 1
    38   38   39 2
    39   39   40 1
    40   40   41 1
    41   41   42 1
    42   42   43 1
    43   43   38 1
    44   44   38 1
    45   45   44 1
    46   46   44 1
    47   47   41 1
    48   48   40 1
    49   49   48 2
    50   50   48 2
    51   51   41 1
    52   52   51 2
    53   53   51 2
    54   54   42 1
    55   55   54 1
    56   56   55 2
    57   57   55 2
    58   58   43 1
    59   59   58 2
    60   60   58 2
    61   61   39 1
    62   62   40 1
    63   63   42 1
    64   64   43 1
    65   65   44 1
    66   66   45 1
    67   67   45 1
    68   68   45 1
    69   69   46 1
    70   70   46 1
    71   71   46 1
    72   72   47 1
    73   73   47 1
    74   74   47 1
@<TRIPOS>SUBSTRUCTURE
     1 RES1 1
     2 RES2 38

@<TRIPOS>CRYSIN
   7.7650   11.2850   16.9150  84.1300  88.9500  86.8800   2 1

