# MOL2 file generated by ConQuest
# Please check atom types

@<TRIPOS>MOLECULE
KEFVIA
    41    44     1
SMALL
NO_CHARGES
****
Generated from CSD

@<TRIPOS>ATOM
      1 O1         2.4475    6.2904   10.9653 O.2       1 RES1    0.0000
      2 O2         3.6396    7.3995    9.5436 O.2       1 RES1    0.0000
      3 N1         3.0018    6.3961    9.8784 N.pl3     1 RES1    0.0000
      4 C1         2.6652    1.9533    6.2373 C.3       1 RES1    0.0000
      5 C2         1.3337    1.8802    5.3597 C.3       1 RES1    0.0000
      6 C3         1.8999    1.8554    3.9119 C.3       1 RES1    0.0000
      7 C4         2.4563    0.4475    3.6411 C.3       1 RES1    0.0000
      8 C5         3.6965    0.3862    4.5802 C.3       1 RES1    0.0000
      9 C6         3.7619    1.8215    5.1609 C.3       1 RES1    0.0000
     10 C7         3.2006    2.6670    4.0178 C.3       1 RES1    0.0000
     11 C8         2.7772    3.1498    7.1580 C.ar      1 RES1    0.0000
     12 C9         2.0556    3.1380    8.3548 C.ar      1 RES1    0.0000
     13 C10        2.1200    4.1884    9.2559 C.ar      1 RES1    0.0000
     14 C11        2.9123    5.2740    8.9420 C.ar      1 RES1    0.0000
     15 C12        3.6525    5.3158    7.7832 C.ar      1 RES1    0.0000
     16 C13        3.5837    4.2576    6.8978 C.ar      1 RES1    0.0000
     17 C14        0.2745    2.9201    5.6527 C.ar      1 RES1    0.0000
     18 C15        0.2752    4.1832    5.0837 C.ar      1 RES1    0.0000
     19 C16       -0.7212    5.1109    5.3819 C.ar      1 RES1    0.0000
     20 C17       -1.7568    4.7664    6.2281 C.ar      1 RES1    0.0000
     21 C18       -1.7818    3.5138    6.7853 C.ar      1 RES1    0.0000
     22 C19       -0.7779    2.5966    6.5054 C.ar      1 RES1    0.0000
     23 H1         2.6849    1.2004    6.8402 H         1 RES1    0.0000
     24 H2         0.9029    1.0177    5.5585 H         1 RES1    0.0000
     25 H3         1.2872    2.2051    3.2174 H         1 RES1    0.0000
     26 H4         1.9235   -0.2349    3.9367 H         1 RES1    0.0000
     27 H5         2.7609    0.3262    2.7466 H         1 RES1    0.0000
     28 H6         3.5456   -0.3523    5.3231 H         1 RES1    0.0000
     29 H7         4.4887    0.0522    4.0152 H         1 RES1    0.0000
     30 H8         4.6643    2.1138    5.4539 H         1 RES1    0.0000
     31 H9         1.4958    2.2834    8.5536 H         1 RES1    0.0000
     32 H10        3.6775    2.5183    3.1128 H         1 RES1    0.0000
     33 H11        2.9800    3.7187    4.2375 H         1 RES1    0.0000
     34 H12        1.6126    4.1884   10.0838 H         1 RES1    0.0000
     35 H13        4.2199    6.0151    7.7034 H         1 RES1    0.0000
     36 H14        4.1397    4.3450    6.1732 H         1 RES1    0.0000
     37 H15        1.0497    4.3972    4.4860 H         1 RES1    0.0000
     38 H16       -0.6606    6.0934    4.9307 H         1 RES1    0.0000
     39 H17       -2.6589    5.4932    6.3302 H         1 RES1    0.0000
     40 H18       -2.5389    3.1707    7.3634 H         1 RES1    0.0000
     41 H19       -0.7721    1.6440    6.8795 H         1 RES1    0.0000
@<TRIPOS>BOND
     1    1    3 2
     2    2    3 2
     3    3   14 1
     4    4    5 1
     5    5    6 1
     6    6    7 1
     7    7    8 1
     8    8    9 1
     9    9    4 1
    10   10    6 1
    11   11    4 1
    12   12   11 ar
    13   13   12 ar
    14   14   13 ar
    15   15   14 ar
    16   16   11 ar
    17   17    5 1
    18   18   17 ar
    19   19   18 ar
    20   20   19 ar
    21   21   20 ar
    22   22   17 ar
    23   23    4 1
    24   24    5 1
    25   25    6 1
    26   26    7 1
    27   27    7 1
    28   28    8 1
    29   29    8 1
    30   30    9 1
    31   31   12 1
    32   32   10 1
    33   33   10 1
    34   34   13 1
    35   35   15 1
    36   36   16 1
    37   37   18 1
    38   38   19 1
    39   39   20 1
    40   40   21 1
    41   41   22 1
    42    9   10 1
    43   15   16 ar
    44   21   22 ar
@<TRIPOS>SUBSTRUCTURE
     1 RES1 1

@<TRIPOS>CRYSIN
   9.1410   13.0480   13.0910  90.0000  92.4700  90.0000 231 1

