# MOL2 file generated by ConQuest
# Please check atom types

@<TRIPOS>MOLECULE
KEFXOL
    38    40     1
SMALL
NO_CHARGES
****
Generated from CSD

@<TRIPOS>ATOM
      1 O1         5.2850    2.8967    0.8627 O.3       1 RES1    0.0000
      2 O2         7.3340    2.9676    0.0597 O.2       1 RES1    0.0000
      3 O3         2.7504    1.2551    1.9378 O.3       1 RES1    0.0000
      4 O4         9.3262    3.6971    1.9617 O.2       1 RES1    0.0000
      5 O5         8.5725    5.3827    3.2222 O.3       1 RES1    0.0000
      6 O6        -0.3354   -0.2351    1.4602 O.2       1 RES1    0.0000
      7 O7         1.5529   -1.0416    2.1910 O.2       1 RES1    0.0000
      8 C1         6.6026    3.2494    0.9709 C.2       1 RES1    0.0000
      9 C2         6.9715    4.0697    2.1482 C.2       1 RES1    0.0000
     10 C3         6.0239    4.6048    2.9081 C.2       1 RES1    0.0000
     11 H1         6.2824    5.2194    3.5846 H         1 RES1    0.0000
     12 C4         4.5633    4.2849    2.7528 C.3       1 RES1    0.0000
     13 H2         4.1372    4.9773    2.1691 H         1 RES1    0.0000
     14 C5         4.4730    2.9330    2.0664 C.3       1 RES1    0.0000
     15 H3         4.8146    2.2371    2.6971 H         1 RES1    0.0000
     16 C6         3.0884    2.5595    1.6601 C.2       1 RES1    0.0000
     17 C7         2.0379    3.2087    1.1113 C.2       1 RES1    0.0000
     18 H4         2.0198    4.1172    0.8320 H         1 RES1    0.0000
     19 C8         0.9673    2.2829    1.0295 C.2       1 RES1    0.0000
     20 H5         0.0927    2.4377    0.6914 H         1 RES1    0.0000
     21 C9         1.4583    1.1428    1.5344 C.2       1 RES1    0.0000
     22 C10        8.4194    4.3403    2.3986 C.2       1 RES1    0.0000
     23 C11        9.9473    5.7285    3.5274 C.3       1 RES1    0.0000
     24 H6         9.9629    6.4460    4.1943 H         1 RES1    0.0000
     25 H7        10.3962    6.0319    2.7101 H         1 RES1    0.0000
     26 H8        10.4113    4.9419    3.8821 H         1 RES1    0.0000
     27 C12        3.8432    4.2538    4.0982 C.ar      1 RES1    0.0000
     28 C13        2.6202    4.8909    4.2576 C.ar      1 RES1    0.0000
     29 H9         2.2216    5.3404    3.5209 H         1 RES1    0.0000
     30 C14        1.9784    4.8745    5.4860 C.ar      1 RES1    0.0000
     31 H10        1.1465    5.3205    5.5903 H         1 RES1    0.0000
     32 C15        2.5425    4.2115    6.5583 C.ar      1 RES1    0.0000
     33 H11        2.0953    4.1898    7.3965 H         1 RES1    0.0000
     34 C16        3.7634    3.5778    6.4043 C.ar      1 RES1    0.0000
     35 H12        4.1559    3.1197    7.1382 H         1 RES1    0.0000
     36 C17        4.4122    3.6107    5.1862 C.ar      1 RES1    0.0000
     37 H13        5.2574    3.1871    5.0933 H         1 RES1    0.0000
     38 N1         0.8581   -0.1357    1.7472 N.pl3     1 RES1    0.0000
@<TRIPOS>BOND
     1    1    8 1
     2    2    8 2
     3    3   16 1
     4    4   22 2
     5    5   22 1
     6    6   38 2
     7    7   38 2
     8    8    9 1
     9    9   10 2
    10   10   11 1
    11   12   10 1
    12   13   12 1
    13   14    1 1
    14   15   14 1
    15   16   14 1
    16   17   16 2
    17   18   17 1
    18   19   17 1
    19   20   19 1
    20   21    3 1
    21   22    9 1
    22   23    5 1
    23   24   23 1
    24   25   23 1
    25   26   23 1
    26   27   12 1
    27   28   27 ar
    28   29   28 1
    29   30   28 ar
    30   31   30 1
    31   32   30 ar
    32   33   32 1
    33   34   32 ar
    34   35   34 1
    35   36   27 ar
    36   37   36 1
    37   38   21 1
    38   12   14 1
    39   19   21 2
    40   34   36 ar
@<TRIPOS>SUBSTRUCTURE
     1 RES1 1

@<TRIPOS>CRYSIN
  11.0180    8.6442   16.6080  90.0000 100.1950  90.0000  14 1

