# MOL2 file generated by ConQuest
# Please check atom types

@<TRIPOS>MOLECULE
KEFYOK
    38    38     2
SMALL
NO_CHARGES
****
Generated from CSD

@<TRIPOS>ATOM
      1 O1         1.1361    6.1502    5.8999 O.2       1 RES1    0.0000
      2 O2         1.3775    6.4511    8.0114 O.2       1 RES1    0.0000
      3 O3         5.3147   11.2979    8.6726 O.2       2 RES2    0.0000
      4 O4         3.6682    9.9403    8.7952 O.2       2 RES2    0.0000
      5 N1         0.8419    5.8669    7.0618 N.pl3     1 RES1    0.0000
      6 N2        -0.1112    5.1719    9.7273 N.pl3     1 RES1    0.0000
      7 H1         0.5596    5.7908    9.5993 H         1 RES1    0.0000
      8 H2        -0.3697    4.9480   10.4924 H         1 RES1    0.0000
      9 N3         4.5036   10.5664    8.1273 N.pl3     2 RES2    0.0000
     10 N4         2.7199    8.7812    6.6499 N.pl3     2 RES2    0.0000
     11 H3         2.7411    8.8146    7.6697 H         2 RES2    0.0000
     12 H4         2.3088    8.1614    6.1392 H         2 RES2    0.0000
     13 C1        -2.1876    3.3092   10.1064 C.3       1 RES1    0.0000
     14 H5        -2.8732    2.6410   10.0301 H         1 RES1    0.0000
     15 H6        -2.5587    4.1051   10.4938 H         1 RES1    0.0000
     16 H7        -1.4816    2.9795   10.6661 H         1 RES1    0.0000
     17 C2        -1.6420    3.6236    8.7461 C.ar      1 RES1    0.0000
     18 C3        -0.5984    4.5799    8.6210 C.ar      1 RES1    0.0000
     19 C4        -0.1519    4.8671    7.3095 C.ar      1 RES1    0.0000
     20 C5        -0.6801    4.2249    6.1961 C.ar      1 RES1    0.0000
     21 H8        -0.3587    4.4266    5.3467 H         1 RES1    0.0000
     22 C6        -1.6642    3.3037    6.3482 C.ar      1 RES1    0.0000
     23 H9        -2.0195    2.8670    5.6080 H         1 RES1    0.0000
     24 C7        -2.1350    3.0207    7.6288 C.ar      1 RES1    0.0000
     25 H10       -2.8148    2.3933    7.7243 H         1 RES1    0.0000
     26 C8         2.8664    8.5523    3.8460 C.3       2 RES2    0.0000
     27 H11        3.0704    8.6147    2.9102 H         2 RES2    0.0000
     28 H12        1.9529    8.8100    3.9913 H         2 RES2    0.0000
     29 H13        2.9949    7.6480    4.1421 H         2 RES2    0.0000
     30 C9         3.7738    9.4666    4.6189 C.ar      2 RES2    0.0000
     31 C10        4.7129   10.2199    3.9816 C.ar      2 RES2    0.0000
     32 H14        4.7751   10.1697    3.0552 H         2 RES2    0.0000
     33 C11        5.5769   11.0571    4.6634 C.ar      2 RES2    0.0000
     34 H15        6.2133   11.5521    4.1995 H         2 RES2    0.0000
     35 C12        5.4897   11.1514    6.0106 C.ar      2 RES2    0.0000
     36 H16        6.0703   11.7089    6.4766 H         2 RES2    0.0000
     37 C13        4.5270   10.4109    6.7019 C.ar      2 RES2    0.0000
     38 C14        3.6521    9.5352    6.0318 C.ar      2 RES2    0.0000
@<TRIPOS>BOND
     1    1    5 2
     2    2    5 2
     3    3    9 2
     4    4    9 2
     5    5   19 1
     6    6    7 1
     7    8    6 1
     8    9   37 1
     9   10   11 1
    10   12   10 1
    11   13   14 1
    12   15   13 1
    13   16   13 1
    14   17   13 1
    15   18    6 1
    16   19   18 ar
    17   20   19 ar
    18   21   20 1
    19   22   20 ar
    20   23   22 1
    21   24   17 ar
    22   25   24 1
    23   26   27 1
    24   28   26 1
    25   29   26 1
    26   30   26 1
    27   31   30 ar
    28   32   31 1
    29   33   31 ar
    30   34   33 1
    31   35   33 ar
    32   36   35 1
    33   37   35 ar
    34   38   10 1
    35   17   18 ar
    36   22   24 ar
    37   30   38 ar
    38   37   38 ar
@<TRIPOS>SUBSTRUCTURE
     1 RES1 1
     2 RES2 3

@<TRIPOS>CRYSIN
   8.9844   11.3590   14.7850  90.0000 103.8140  90.0000  14 1

