# MOL2 file generated by ConQuest
# Please check atom types

@<TRIPOS>MOLECULE
KEFYOK01
    38    38     2
SMALL
NO_CHARGES
****
Generated from CSD

@<TRIPOS>ATOM
      1 C1         3.5458    7.3777    5.9254 C.ar      1 RES1    0.0000
      2 C2         3.6912    7.4711    4.5087 C.ar      1 RES1    0.0000
      3 C3         4.6597    6.7402    3.8720 C.ar      1 RES1    0.0000
      4 H1         4.7361    6.8002    2.9267 H         1 RES1    0.0000
      5 C4         5.5413    5.9068    4.5731 C.ar      1 RES1    0.0000
      6 H2         6.2138    5.4220    4.1090 H         1 RES1    0.0000
      7 C5         5.4245    5.7985    5.9289 C.ar      1 RES1    0.0000
      8 H3         6.0204    5.2397    6.4140 H         1 RES1    0.0000
      9 C6         4.4269    6.5127    6.6033 C.ar      1 RES1    0.0000
     10 C7         2.7704    8.3779    3.7415 C.3       1 RES1    0.0000
     11 H4         2.9851    8.3293    2.7862 H         1 RES1    0.0000
     12 H5         2.8840    9.2992    4.0550 H         1 RES1    0.0000
     13 H6         1.8425    8.0966    3.8819 H         1 RES1    0.0000
     14 N1         2.5755    8.1091    6.5219 N.3       1 RES1    0.0000
     15 N2         4.3765    6.3476    8.0293 N.pl3     1 RES1    0.0000
     16 O1         5.1982    5.6201    8.5863 O.2       1 RES1    0.0000
     17 O2         3.4986    6.9452    8.6897 O.2       1 RES1    0.0000
     18 H7         2.5238    8.0765    7.4146 H         1 RES1    0.0000
     19 H8         2.1746    8.7387    6.0662 H         1 RES1    0.0000
     20 C8         4.0160    6.6630   12.7709 C.ar      2 RES2    0.0000
     21 C9         5.0766    7.6108   12.6501 C.ar      2 RES2    0.0000
     22 C10        5.5819    8.2149   13.7691 C.ar      2 RES2    0.0000
     23 H9         6.2875    8.8439   13.6696 H         2 RES2    0.0000
     24 C11        5.1002    7.9417   15.0565 C.ar      2 RES2    0.0000
     25 H10        5.4606    8.3908   15.8114 H         2 RES2    0.0000
     26 C12        4.1052    7.0207   15.2072 C.ar      2 RES2    0.0000
     27 H11        3.7787    6.8136   16.0754 H         2 RES2    0.0000
     28 C13        3.5650    6.3818   14.0871 C.ar      2 RES2    0.0000
     29 C14        5.6369    7.9079   11.2887 C.3       2 RES2    0.0000
     30 H12        6.3287    8.5978   11.3632 H         2 RES2    0.0000
     31 H13        4.9193    8.2264   10.7032 H         2 RES2    0.0000
     32 H14        6.0283    7.0921   10.9119 H         2 RES2    0.0000
     33 N3         3.5246    6.0858   11.6567 N.3       2 RES2    0.0000
     34 N4         2.5662    5.3873   14.3318 N.pl3     2 RES2    0.0000
     35 O3         2.2794    5.0883   15.5027 O.2       2 RES2    0.0000
     36 O4         2.0134    4.8159   13.3740 O.2       2 RES2    0.0000
     37 H15        2.8722    5.4869   11.7422 H         2 RES2    0.0000
     38 H16        3.7777    6.3292   10.8480 H         2 RES2    0.0000
@<TRIPOS>BOND
     1    1    2 ar
     2    2    3 ar
     3    3    4 1
     4    5    3 ar
     5    6    5 1
     6    7    5 ar
     7    8    7 1
     8    9    1 ar
     9   10    2 1
    10   11   10 1
    11   12   10 1
    12   13   10 1
    13   14    1 1
    14   15    9 1
    15   16   15 2
    16   17   15 2
    17   18   14 1
    18   19   14 1
    19   20   21 ar
    20   21   22 ar
    21   22   23 1
    22   24   22 ar
    23   25   24 1
    24   26   24 ar
    25   27   26 1
    26   28   20 ar
    27   29   21 1
    28   30   29 1
    29   31   29 1
    30   32   29 1
    31   33   20 1
    32   34   28 1
    33   35   34 2
    34   36   34 2
    35   37   33 1
    36   38   33 1
    37    7    9 ar
    38   26   28 ar
@<TRIPOS>SUBSTRUCTURE
     1 RES1 1
     2 RES2 20

@<TRIPOS>CRYSIN
   8.9267   11.1863   14.6796  90.0000 104.7880  90.0000  14 1

