# MOL2 file generated by ConQuest
# Please check atom types

@<TRIPOS>MOLECULE
KEFYOK02
    19    19     1
SMALL
NO_CHARGES
****
Generated from CSD

@<TRIPOS>ATOM
      1 C1         1.2336   10.8199    3.6862 C.ar      1 RES1    0.0000
      2 C2         0.6631   11.8654    2.9114 C.ar      1 RES1    0.0000
      3 C3         0.1581   12.9796    3.5341 C.ar      1 RES1    0.0000
      4 H1        -0.2329   13.6630    3.0024 H         1 RES1    0.0000
      5 C4         0.1969   13.1458    4.9042 C.ar      1 RES1    0.0000
      6 H2        -0.1595   13.9303    5.3041 H         1 RES1    0.0000
      7 C5         0.7503   12.1738    5.6710 C.ar      1 RES1    0.0000
      8 H3         0.7953   12.2829    6.6141 H         1 RES1    0.0000
      9 C6         1.2541   11.0133    5.0782 C.ar      1 RES1    0.0000
     10 C7         0.6215   11.7357    1.4190 C.3       1 RES1    0.0000
     11 H4         0.1729   12.5181    1.0360 H         1 RES1    0.0000
     12 H5         0.1285   10.9247    1.1758 H         1 RES1    0.0000
     13 H6         1.5355   11.6803    1.0702 H         1 RES1    0.0000
     14 N1         1.7133    9.7135    3.0652 N.3       1 RES1    0.0000
     15 N2         1.8403   10.0414    5.9598 N.pl3     1 RES1    0.0000
     16 O1         1.9310   10.3151    7.1574 O.2       1 RES1    0.0000
     17 O2         2.2463    8.9666    5.5250 O.2       1 RES1    0.0000
     18 H7         2.0795    9.0513    3.5589 H         1 RES1    0.0000
     19 H8         1.7806    9.6925    2.1990 H         1 RES1    0.0000
@<TRIPOS>BOND
     1    1    2 ar
     2    2    3 ar
     3    3    4 1
     4    5    3 ar
     5    6    5 1
     6    7    5 ar
     7    8    7 1
     8    9    1 ar
     9   10    2 1
    10   11   10 1
    11   12   10 1
    12   13   10 1
    13   14    1 1
    14   15    9 1
    15   16   15 2
    16   17   15 2
    17   18   14 1
    18   19   14 1
    19    7    9 ar
@<TRIPOS>SUBSTRUCTURE
     1 RES1 1

@<TRIPOS>CRYSIN
   3.9248   12.8496   14.2746  90.0000  91.4640  90.0000  14 1

