# MOL2 file generated by ConQuest
# Please check atom types

@<TRIPOS>MOLECULE
KEFYIG
    40    43     1
SMALL
NO_CHARGES
****
Generated from CSD

@<TRIPOS>ATOM
      1 O1         6.2826   20.2479    4.5959 O.2       1 RES1    0.0000
      2 O2         4.8513   13.9538    0.9667 O.2       1 RES1    0.0000
      3 O3         5.3491   15.8749    1.9878 O.3       1 RES1    0.0000
      4 O4         1.1636    9.1561    5.4027 O.2       1 RES1    0.0000
      5 O5         2.2329    8.2713    3.7531 O.2       1 RES1    0.0000
      6 C1         5.9804   19.1353    4.1793 C.2       1 RES1    0.0000
      7 C2         4.6681   18.8744    3.5618 C.2       1 RES1    0.0000
      8 H1         4.0601   19.5939    3.4424 H         1 RES1    0.0000
      9 C3         4.3143   17.6552    3.1671 C.2       1 RES1    0.0000
     10 H2         3.4564   17.5346    2.7781 H         1 RES1    0.0000
     11 C4         5.2150   16.4600    3.3110 C.3       1 RES1    0.0000
     12 C5         6.5806   16.7932    3.8374 C.2       1 RES1    0.0000
     13 H3         7.2333   16.1039    3.8722 H         1 RES1    0.0000
     14 C6         6.9195   18.0048    4.2566 C.2       1 RES1    0.0000
     15 H4         7.7883   18.1455    4.6150 H         1 RES1    0.0000
     16 C7         4.5955   15.3322    4.1367 C.2       1 RES1    0.0000
     17 C8         4.4119   14.2529    3.3543 C.2       1 RES1    0.0000
     18 C9         4.8676   14.5950    1.9825 C.2       1 RES1    0.0000
     19 C10        4.3868   15.5127    5.5876 C.ar      1 RES1    0.0000
     20 C11        3.5584   16.5268    6.0736 C.ar      1 RES1    0.0000
     21 H5         3.1107   17.1070    5.4686 H         1 RES1    0.0000
     22 C12        3.3906   16.6862    7.4449 C.ar      1 RES1    0.0000
     23 H6         2.8310   17.3789    7.7756 H         1 RES1    0.0000
     24 C13        4.0321   15.8434    8.3277 C.ar      1 RES1    0.0000
     25 H7         3.9122   15.9561    9.2633 H         1 RES1    0.0000
     26 C14        4.8564   14.8264    7.8482 C.ar      1 RES1    0.0000
     27 H8         5.2951   14.2456    8.4580 H         1 RES1    0.0000
     28 C15        5.0359   14.6632    6.4875 C.ar      1 RES1    0.0000
     29 H9         5.6019   13.9717    6.1631 H         1 RES1    0.0000
     30 C16        3.8081   12.9407    3.6639 C.ar      1 RES1    0.0000
     31 C17        2.9132   12.8035    4.7275 C.ar      1 RES1    0.0000
     32 H10        2.7144   13.5559    5.2723 H         1 RES1    0.0000
     33 C18        2.3102   11.5865    5.0009 C.ar      1 RES1    0.0000
     34 H11        1.7113   11.4946    5.7323 H         1 RES1    0.0000
     35 C19        2.5999   10.5137    4.1881 C.ar      1 RES1    0.0000
     36 N1         1.9483    9.2235    4.4732 N.pl3     1 RES1    0.0000
     37 C20        3.4774   10.6045    3.1234 C.ar      1 RES1    0.0000
     38 H12        3.6614    9.8472    2.5808 H         1 RES1    0.0000
     39 C21        4.0833   11.8237    2.8653 C.ar      1 RES1    0.0000
     40 H13        4.6913   11.9025    2.1399 H         1 RES1    0.0000
@<TRIPOS>BOND
     1    1    6 2
     2    2   18 2
     3    3   11 1
     4    4   36 2
     5    5   36 2
     6    6    7 1
     7    7    8 1
     8    9    7 2
     9   10    9 1
    10   11    9 1
    11   12   11 1
    12   13   12 1
    13   14    6 1
    14   15   14 1
    15   16   11 1
    16   17   16 2
    17   18    3 1
    18   19   16 1
    19   20   19 ar
    20   21   20 1
    21   22   20 ar
    22   23   22 1
    23   24   22 ar
    24   25   24 1
    25   26   24 ar
    26   27   26 1
    27   28   19 ar
    28   29   28 1
    29   30   17 1
    30   31   30 ar
    31   32   31 1
    32   33   31 ar
    33   34   33 1
    34   35   33 ar
    35   36   35 1
    36   37   35 ar
    37   38   37 1
    38   39   30 ar
    39   40   39 1
    40   12   14 2
    41   17   18 1
    42   26   28 ar
    43   37   39 ar
@<TRIPOS>SUBSTRUCTURE
     1 RES1 1

@<TRIPOS>CRYSIN
   8.4218   19.7062   10.0798  90.0000  93.0530  90.0000 231 1

