# MOL2 file generated by ConQuest
# Please check atom types

@<TRIPOS>MOLECULE
KEGJOX
    45    45     2
SMALL
NO_CHARGES
****
Generated from CSD

@<TRIPOS>ATOM
      1 N1         9.6922    9.0460   22.2971 N.am      1 RES1    0.0000
      2 H1         9.5155    9.8858   22.3488 H         1 RES1    0.0000
      3 N2        10.0762   10.8456   16.3449 N.pl3     1 RES1    0.0000
      4 O1        13.2680    9.5163   22.8280 O.3       1 RES1    0.0000
      5 O2        11.5284   10.7189   23.4295 O.2       1 RES1    0.0000
      6 O3         8.9266    6.9662   22.1292 O.2       1 RES1    0.0000
      7 O4        12.8181    6.1023   19.6685 O.3       1 RES1    0.0000
      8 O5        14.9099    6.6686   20.1387 O.2       1 RES1    0.0000
      9 O6        11.0443   11.5722   15.7845 O.2       1 RES1    0.0000
     10 O7         9.0680   10.5443   15.8070 O.2       1 RES1    0.0000
     11 C1        11.9206    9.7083   22.9063 C.2       1 RES1    0.0000
     12 C2        11.0655    8.5997   22.3864 C.3       1 RES1    0.0000
     13 H2        11.0867    7.8895   23.0618 H         1 RES1    0.0000
     14 C3        11.6003    7.9864   21.0857 C.3       1 RES1    0.0000
     15 H3        11.2045    7.0928   21.0128 H         1 RES1    0.0000
     16 C4        13.0914    7.7906   21.2126 C.2       1 RES1    0.0000
     17 C5        13.8240    8.5057   22.0502 C.2       1 RES1    0.0000
     18 C6         8.6946    8.1736   22.1346 C.2       1 RES1    0.0000
     19 C7         7.3236    8.7331   21.9448 C.3       1 RES1    0.0000
     20 H4         7.0739    8.6602   21.0225 H         1 RES1    0.0000
     21 H5         7.3166    9.6564   22.2075 H         1 RES1    0.0000
     22 H6         6.7006    8.2417   22.4837 H         1 RES1    0.0000
     23 C8        11.2045    8.7437   19.8339 C.ar      1 RES1    0.0000
     24 C9        11.9194    9.8340   19.4048 C.ar      1 RES1    0.0000
     25 H7        12.6591   10.1181   19.8920 H         1 RES1    0.0000
     26 C10       11.5590   10.5078   18.2728 C.ar      1 RES1    0.0000
     27 H8        12.0596   11.2372   17.9844 H         1 RES1    0.0000
     28 C11       10.4672   10.1085   17.5711 C.ar      1 RES1    0.0000
     29 C12        9.7358    9.0422   17.9629 C.ar      1 RES1    0.0000
     30 H9         8.9867    8.7782   17.4770 H         1 RES1    0.0000
     31 C13       10.1174    8.3569   19.0895 C.ar      1 RES1    0.0000
     32 H10        9.6262    7.6121   19.3557 H         1 RES1    0.0000
     33 C14       13.7262    6.8164   20.3166 C.2       1 RES1    0.0000
     34 C15       13.2881    5.1925   18.6399 C.3       1 RES1    0.0000
     35 H11       13.8028    4.4717   19.0346 H         1 RES1    0.0000
     36 H12       13.8510    5.6628   18.0037 H         1 RES1    0.0000
     37 C16       12.0914    4.6598   17.9687 C.3       1 RES1    0.0000
     38 H13       11.5944    4.1156   18.5850 H         1 RES1    0.0000
     39 H14       12.3564    4.1290   17.2136 H         1 RES1    0.0000
     40 H15       11.5414    5.3873   17.6697 H         1 RES1    0.0000
     41 C17       15.2880    8.4529   22.3488 C.3       1 RES1    0.0000
     42 H16       15.5235    7.5689   22.6379 H         1 RES1    0.0000
     43 H17       15.4953    9.0835   23.0425 H         1 RES1    0.0000
     44 H18       15.7838    8.6746   21.5556 H         1 RES1    0.0000
     45 O8        10.4118   11.9302   16.2341 Du        2 SUP2    0.0000
@<TRIPOS>BOND
     1    1    2 1
     2    3    9 2
     3    4   11 1
     4    5   11 2
     5    6   18 2
     6    7   33 1
     7    8   33 2
     8   10    3 2
     9   11   12 1
    10   12    1 1
    11   13   12 1
    12   14   12 1
    13   15   14 1
    14   16   14 1
    15   17    4 1
    16   18    1 1
    17   19   18 1
    18   20   19 1
    19   21   19 1
    20   22   19 1
    21   23   14 1
    22   24   23 ar
    23   25   24 1
    24   26   24 ar
    25   27   26 1
    26   28    3 1
    27   29   28 ar
    28   30   29 1
    29   31   23 ar
    30   32   31 1
    31   33   16 1
    32   34    7 1
    33   35   34 1
    34   36   34 1
    35   37   34 1
    36   38   37 1
    37   39   37 1
    38   40   37 1
    39   41   17 1
    40   42   41 1
    41   43   41 1
    42   44   41 1
    43   16   17 2
    44   26   28 ar
    45   29   31 ar
@<TRIPOS>SUBSTRUCTURE
     1 RES1 1
     2 SUP2 45

@<TRIPOS>CRYSIN
  11.7781    9.5979   32.1150  90.0000  90.0000  90.0000  61 1

