# MOL2 file generated by ConQuest
# Please check atom types

@<TRIPOS>MOLECULE
KEGJIP
    64    70     1
SMALL
NO_CHARGES
****
Generated from CSD

@<TRIPOS>ATOM
      1 O1        10.5872   -0.4870   13.4885 O.3       1 RES1    0.0000
      2 O2         8.1743    0.6845   14.4463 O.2       1 RES1    0.0000
      3 O3         7.3917    3.2781   13.1520 O.3       1 RES1    0.0000
      4 O4         4.0280   -0.6048   10.4361 O.2       1 RES1    0.0000
      5 N1         9.5149   -0.0266   12.7398 N.am      1 RES1    0.0000
      6 N2         4.8552    1.4834   10.3119 N.am      1 RES1    0.0000
      7 C1         8.2241    0.3406   10.9242 C.ar      1 RES1    0.0000
      8 C2         9.4207   -0.2384   11.3819 C.ar      1 RES1    0.0000
      9 C3         5.1438    2.7585    9.6329 C.3       1 RES1    0.0000
     10 C4        10.3306   -1.7845   14.0795 C.3       1 RES1    0.0000
     11 C5         5.0010    1.6074   11.7668 C.3       1 RES1    0.0000
     12 C6         6.0886    0.7220   12.3548 C.3       1 RES1    0.0000
     13 C7         7.5579    1.0489   12.0790 C.3       1 RES1    0.0000
     14 C8         8.4264    0.5517   13.2793 C.2       1 RES1    0.0000
     15 C9         7.9084    0.1839    9.5905 C.ar      1 RES1    0.0000
     16 C10        8.7560   -0.5040    8.7448 C.ar      1 RES1    0.0000
     17 C11        9.9250   -1.0421    9.2358 C.ar      1 RES1    0.0000
     18 C12       10.2772   -0.9195   10.5574 C.ar      1 RES1    0.0000
     19 C13        7.8515    2.5950   11.9972 C.3       1 RES1    0.0000
     20 C14        7.4045    3.3101   10.7483 C.3       1 RES1    0.0000
     21 C15        5.9005    3.5622   10.6756 C.3       1 RES1    0.0000
     22 C16        5.2225    3.1262   11.9608 C.3       1 RES1    0.0000
     23 C17        5.9915    3.5009   13.2036 C.3       1 RES1    0.0000
     24 C18        4.3315    0.3678    9.7481 C.2       1 RES1    0.0000
     25 C19        4.1860    0.3065    8.2901 C.ar      1 RES1    0.0000
     26 C20        3.3163    1.1306    7.5596 C.ar      1 RES1    0.0000
     27 C21        3.1060    0.9263    6.2138 C.ar      1 RES1    0.0000
     28 C22        3.7540   -0.0681    5.5045 C.ar      1 RES1    0.0000
     29 C23        4.6630   -0.8786    6.2320 C.ar      1 RES1    0.0000
     30 C24        4.8387   -0.6811    7.5808 C.ar      1 RES1    0.0000
     31 C25        3.5017   -0.2861    4.0769 C.ar      1 RES1    0.0000
     32 C26        3.1176    0.7833    3.2372 C.ar      1 RES1    0.0000
     33 C27        2.8812    0.5381    1.8914 C.ar      1 RES1    0.0000
     34 C28        2.9985   -0.7220    1.3640 C.ar      1 RES1    0.0000
     35 C29        3.3808   -1.7640    2.1673 C.ar      1 RES1    0.0000
     36 C30        3.6136   -1.5393    3.5131 C.ar      1 RES1    0.0000
     37 H1         5.6792    2.6147    8.8630 H         1 RES1    0.0000
     38 H2         4.3395    3.1971    9.3843 H         1 RES1    0.0000
     39 H3         9.5675   -1.7334   14.6433 H         1 RES1    0.0000
     40 H4        10.1739   -2.4227   13.3915 H         1 RES1    0.0000
     41 H5        11.0837   -2.0556   14.5948 H         1 RES1    0.0000
     42 H6         4.1737    1.3717   12.1699 H         1 RES1    0.0000
     43 H7         5.9744    0.7308   13.2975 H         1 RES1    0.0000
     44 H8         5.9347   -0.1594   12.0275 H         1 RES1    0.0000
     45 H9         7.1020    0.5571    9.2510 H         1 RES1    0.0000
     46 H10        8.5323   -0.6069    7.8294 H         1 RES1    0.0000
     47 H11       10.5006   -1.5168    8.6448 H         1 RES1    0.0000
     48 H12       11.0870   -1.2893   10.8847 H         1 RES1    0.0000
     49 H13        8.7980    2.6754   12.0123 H         1 RES1    0.0000
     50 H14        7.8463    4.1533   10.7120 H         1 RES1    0.0000
     51 H15        7.6562    2.7911    9.9966 H         1 RES1    0.0000
     52 H16        5.7448    4.4864   10.4877 H         1 RES1    0.0000
     53 H17        4.3722    3.5472   12.0032 H         1 RES1    0.0000
     54 H18        5.6438    2.9873   13.9250 H         1 RES1    0.0000
     55 H19        5.8473    4.4224   13.3733 H         1 RES1    0.0000
     56 H20        2.8654    1.8444    8.0022 H         1 RES1    0.0000
     57 H21        2.4944    1.4882    5.7531 H         1 RES1    0.0000
     58 H22        5.1545   -1.5536    5.7864 H         1 RES1    0.0000
     59 H23        5.4356   -1.2573    8.0476 H         1 RES1    0.0000
     60 H24        3.0225    1.6598    3.5919 H         1 RES1    0.0000
     61 H25        2.6329    1.2566    1.3246 H         1 RES1    0.0000
     62 H26        2.8168   -0.8711    0.4425 H         1 RES1    0.0000
     63 H27        3.4837   -2.6393    1.8035 H         1 RES1    0.0000
     64 H28        3.8608   -2.2701    4.0647 H         1 RES1    0.0000
@<TRIPOS>BOND
     1    1    5 1
     2    2   14 2
     3    3   19 1
     4    4   24 2
     5    5    8 1
     6    6    9 1
     7    7    8 ar
     8    8   18 ar
     9    9   21 1
    10   10    1 1
    11   11    6 1
    12   12   11 1
    13   13    7 1
    14   14    5 1
    15   15    7 ar
    16   16   15 ar
    17   17   16 ar
    18   18   17 ar
    19   19   13 1
    20   20   19 1
    21   21   20 1
    22   22   11 1
    23   23    3 1
    24   24    6 1
    25   25   24 1
    26   26   25 ar
    27   27   26 ar
    28   28   27 ar
    29   29   28 ar
    30   30   25 ar
    31   31   28 1
    32   32   31 ar
    33   33   32 ar
    34   34   33 ar
    35   35   34 ar
    36   36   31 ar
    37   37    9 1
    38   38    9 1
    39   39   10 1
    40   40   10 1
    41   41   10 1
    42   42   11 1
    43   43   12 1
    44   44   12 1
    45   45   15 1
    46   46   16 1
    47   47   17 1
    48   48   18 1
    49   49   19 1
    50   50   20 1
    51   51   20 1
    52   52   21 1
    53   53   22 1
    54   54   23 1
    55   55   23 1
    56   56   26 1
    57   57   27 1
    58   58   29 1
    59   59   30 1
    60   60   32 1
    61   61   33 1
    62   62   34 1
    63   63   35 1
    64   64   36 1
    65   12   13 1
    66   13   14 1
    67   21   22 1
    68   22   23 1
    69   29   30 ar
    70   35   36 ar
@<TRIPOS>SUBSTRUCTURE
     1 RES1 1

@<TRIPOS>CRYSIN
  11.8610    6.8110   30.4100  90.0000  94.6200  90.0000 231 1

