# MOL2 file generated by ConQuest
# Please check atom types

@<TRIPOS>MOLECULE
KEGNUG
    61    64     1
SMALL
NO_CHARGES
****
Generated from CSD

@<TRIPOS>ATOM
      1 O1        -1.1714    1.9899    0.5688 O.3       1 RES1    0.0000
      2 O2        -0.9526   -0.0197    2.6024 O.2       1 RES1    0.0000
      3 O3        -1.2129    0.4078   -3.1790 O.3       1 RES1    0.0000
      4 O4        -1.6955   -4.2403   -3.9186 O.3       1 RES1    0.0000
      5 O5        -0.6416   -2.4636    0.4512 O.3       1 RES1    0.0000
      6 O6         0.1534    1.5449    3.6441 O.3       1 RES1    0.0000
      7 N1        -1.6596    0.9580   -0.2860 N.2       1 RES1    0.0000
      8 C1        -0.7345    0.1081   -0.4734 C.2       1 RES1    0.0000
      9 C2         0.5811    0.4344    0.1995 C.3       1 RES1    0.0000
     10 C3         0.9842    2.8216    1.3079 C.3       1 RES1    0.0000
     11 C4         0.1062    1.5714    1.1494 C.3       1 RES1    0.0000
     12 C5        -0.2716    0.9655    2.5094 C.2       1 RES1    0.0000
     13 C6         1.0215    2.7431    3.6469 C.3       1 RES1    0.0000
     14 C7         0.1442    3.9480    3.3292 C.3       1 RES1    0.0000
     15 C8         0.1372    4.0325    1.7877 C.3       1 RES1    0.0000
     16 C9         1.9938    2.6331    2.4715 C.3       1 RES1    0.0000
     17 C10        1.6076    2.7431    5.0488 C.3       1 RES1    0.0000
     18 C11        1.6470    0.8168   -0.8410 C.3       1 RES1    0.0000
     19 C12        2.2330   -0.3709   -1.5873 C.3       1 RES1    0.0000
     20 C13       -0.9800   -1.0493   -1.3650 C.ar      1 RES1    0.0000
     21 C14       -0.9610   -2.3409   -0.8687 C.ar      1 RES1    0.0000
     22 C15       -1.1967   -3.4535   -1.6788 C.ar      1 RES1    0.0000
     23 C16       -1.4486   -3.2407   -3.0198 C.ar      1 RES1    0.0000
     24 C17       -1.4844   -1.9591   -3.5559 C.ar      1 RES1    0.0000
     25 C18       -1.2424   -0.8786   -2.7304 C.ar      1 RES1    0.0000
     26 C19       -1.1742   -3.5051    1.1980 C.3       1 RES1    0.0000
     27 C20       -1.6610   -5.5863   -3.4488 C.3       1 RES1    0.0000
     28 C21       -1.4204    0.6259   -4.5609 C.3       1 RES1    0.0000
     29 C22        3.0111    3.7915    2.4616 C.3       1 RES1    0.0000
     30 C23        2.7965    1.3254    2.4515 C.3       1 RES1    0.0000
     31 H1        -1.1767   -4.4155   -1.2738 H         1 RES1    0.0000
     32 H2        -1.6767   -1.8231   -4.5771 H         1 RES1    0.0000
     33 H3         0.9574   -0.3832    0.7291 H         1 RES1    0.0000
     34 H4         1.4142    3.0504    0.3822 H         1 RES1    0.0000
     35 H5        -0.8143    3.8085    3.6957 H         1 RES1    0.0000
     36 H6         0.5533    4.8145    3.7389 H         1 RES1    0.0000
     37 H7        -0.8358    3.9608    1.4185 H         1 RES1    0.0000
     38 H8         0.5623    4.9239    1.4588 H         1 RES1    0.0000
     39 H9         0.8392    2.8423    5.7497 H         1 RES1    0.0000
     40 H10        2.2722    3.5345    5.1567 H         1 RES1    0.0000
     41 H11        2.1090    1.8455    5.2225 H         1 RES1    0.0000
     42 H12        2.4231    1.3130   -0.3540 H         1 RES1    0.0000
     43 H13        1.2172    1.4488   -1.5421 H         1 RES1    0.0000
     44 H14        2.9772   -0.0441   -2.2361 H         1 RES1    0.0000
     45 H15        1.4813   -0.8417   -2.1346 H         1 RES1    0.0000
     46 H16        2.6365   -1.0442   -0.9064 H         1 RES1    0.0000
     47 H17       -0.9351   -3.3870    2.1919 H         1 RES1    0.0000
     48 H18       -0.7651   -4.4118    0.8485 H         1 RES1    0.0000
     49 H19       -2.2015   -3.5331    1.0697 H         1 RES1    0.0000
     50 H20       -1.9303   -6.2421   -4.2092 H         1 RES1    0.0000
     51 H21       -2.3224   -5.6996   -2.6481 H         1 RES1    0.0000
     52 H22       -0.6958   -5.8224   -3.1211 H         1 RES1    0.0000
     53 H23       -1.1958    1.6235   -4.7874 H         1 RES1    0.0000
     54 H24       -2.4016    0.4275   -4.8056 H         1 RES1    0.0000
     55 H25       -0.7840    0.0072   -5.1073 H         1 RES1    0.0000
     56 H26        2.5001    4.7063    2.4882 H         1 RES1    0.0000
     57 H27        3.5885    3.7561    1.5957 H         1 RES1    0.0000
     58 H28        3.6310    3.7281    3.2933 H         1 RES1    0.0000
     59 H29        2.1403    0.5167    2.4926 H         1 RES1    0.0000
     60 H30        3.4287    1.2972    3.2770 H         1 RES1    0.0000
     61 H31        3.3579    1.2714    1.5804 H         1 RES1    0.0000
@<TRIPOS>BOND
     1    1    7 1
     2    2   12 2
     3    3   25 1
     4    4   23 1
     5    5   21 1
     6    6   12 1
     7    7    8 2
     8    8    9 1
     9    9   11 1
    10   10   11 1
    11   11    1 1
    12   12   11 1
    13   13    6 1
    14   14   13 1
    15   15   10 1
    16   16   10 1
    17   17   13 1
    18   18    9 1
    19   19   18 1
    20   20    8 1
    21   21   20 ar
    22   22   21 ar
    23   23   22 ar
    24   24   23 ar
    25   25   20 ar
    26   26    5 1
    27   27    4 1
    28   28    3 1
    29   29   16 1
    30   30   16 1
    31   31   22 1
    32   32   24 1
    33   33    9 1
    34   34   10 1
    35   35   14 1
    36   36   14 1
    37   37   15 1
    38   38   15 1
    39   39   17 1
    40   40   17 1
    41   41   17 1
    42   42   18 1
    43   43   18 1
    44   44   19 1
    45   45   19 1
    46   46   19 1
    47   47   26 1
    48   48   26 1
    49   49   26 1
    50   50   27 1
    51   51   27 1
    52   52   27 1
    53   53   28 1
    54   54   28 1
    55   55   28 1
    56   56   29 1
    57   57   29 1
    58   58   29 1
    59   59   30 1
    60   60   30 1
    61   61   30 1
    62   13   16 1
    63   14   15 1
    64   24   25 ar
@<TRIPOS>SUBSTRUCTURE
     1 RES1 1

@<TRIPOS>CRYSIN
   7.0353   15.6479   20.1686  90.0000  90.0000  90.0000  19 1

