# MOL2 file generated by ConQuest
# Please check atom types

@<TRIPOS>MOLECULE
KEGPIW
    67    71     1
SMALL
NO_CHARGES
****
Generated from CSD

@<TRIPOS>ATOM
      1 O1         6.9488   11.3477    1.4173 O.2       1 RES1    0.0000
      2 O2         6.3798    8.6269    2.5120 O.3       1 RES1    0.0000
      3 O3         3.6720   11.6408    0.7491 O.3       1 RES1    0.0000
      4 O4        -0.3481    9.9500   -1.0557 O.3       1 RES1    0.0000
      5 O5         2.6039    7.1919    1.6310 O.3       1 RES1    0.0000
      6 N1         5.2821    8.4956    1.6180 N.2       1 RES1    0.0000
      7 C1         8.2736   11.2703    3.4658 C.3       1 RES1    0.0000
      8 C2         7.1401   10.9302    2.5249 C.2       1 RES1    0.0000
      9 C3         6.2392    9.8919    3.2381 C.3       1 RES1    0.0000
     10 C4         6.9458    9.8200    4.6054 C.3       1 RES1    0.0000
     11 C5         8.2472    9.0292    4.4097 C.3       1 RES1    0.0000
     12 C6         9.1089    9.9818    3.5547 C.3       1 RES1    0.0000
     13 C7         7.4804   11.2579    4.7982 C.3       1 RES1    0.0000
     14 C8         8.3522   11.4265    6.0497 C.3       1 RES1    0.0000
     15 C9         6.4167   12.3514    4.8591 C.3       1 RES1    0.0000
     16 C10        9.0435   12.5242    3.0793 C.3       1 RES1    0.0000
     17 C11        4.7312   10.1809    3.1462 C.3       1 RES1    0.0000
     18 C12        4.3826    9.3417    1.9387 C.2       1 RES1    0.0000
     19 C13        3.9117    9.7523    4.3487 C.ar      1 RES1    0.0000
     20 C14        3.7647    8.4168    4.6763 C.ar      1 RES1    0.0000
     21 C15        3.0455    8.0255    5.7960 C.ar      1 RES1    0.0000
     22 C16        2.4425    8.9615    6.6190 C.ar      1 RES1    0.0000
     23 C17        2.5900   10.2873    6.3044 C.ar      1 RES1    0.0000
     24 C18        3.3156   10.6952    5.1737 C.ar      1 RES1    0.0000
     25 C19        1.6397    8.5343    7.8365 C.3       1 RES1    0.0000
     26 C20        3.1016    9.4274    1.1886 C.ar      1 RES1    0.0000
     27 C21        2.7653   10.6440    0.5883 C.ar      1 RES1    0.0000
     28 C22        1.5995   10.7933   -0.1428 C.ar      1 RES1    0.0000
     29 C23        0.7695    9.7039   -0.2946 C.ar      1 RES1    0.0000
     30 C24        1.0620    8.4818    0.2727 C.ar      1 RES1    0.0000
     31 C25        2.2387    8.3587    1.0238 C.ar      1 RES1    0.0000
     32 C26        1.7716    6.0485    1.4852 C.3       1 RES1    0.0000
     33 C27       -1.3492    8.9504   -1.1087 C.3       1 RES1    0.0000
     34 C28        3.6741   12.7344   -0.1338 C.3       1 RES1    0.0000
     35 H1         4.2032    7.7052    4.0714 H         1 RES1    0.0000
     36 H2         2.9558    7.0268    6.0220 H         1 RES1    0.0000
     37 H3         2.1431   11.0199    6.9167 H         1 RES1    0.0000
     38 H4         3.4100   11.7198    4.9563 H         1 RES1    0.0000
     39 H5         1.3531   11.7301   -0.5653 H         1 RES1    0.0000
     40 H6         0.4164    7.6926    0.1524 H         1 RES1    0.0000
     41 H7         6.3357    9.3543    5.3008 H         1 RES1    0.0000
     42 H8         8.0597    8.1440    3.9023 H         1 RES1    0.0000
     43 H9         8.7044    8.8325    5.3146 H         1 RES1    0.0000
     44 H10        9.2651    9.5925    2.5961 H         1 RES1    0.0000
     45 H11       10.0269   10.1677    4.0007 H         1 RES1    0.0000
     46 H12        9.1291   10.7438    6.0289 H         1 RES1    0.0000
     47 H13        7.7780   11.2955    6.8975 H         1 RES1    0.0000
     48 H14        8.7594   12.4011    6.0618 H         1 RES1    0.0000
     49 H15        5.8348   12.3368    3.9896 H         1 RES1    0.0000
     50 H16        6.8667   13.2987    4.9350 H         1 RES1    0.0000
     51 H17        5.7987   12.2106    5.6828 H         1 RES1    0.0000
     52 H18        9.5437   12.3747    2.1747 H         1 RES1    0.0000
     53 H19        9.7388   12.7680    3.8153 H         1 RES1    0.0000
     54 H20        8.3816   13.3298    2.9629 H         1 RES1    0.0000
     55 H21        4.5461   11.2071    2.9754 H         1 RES1    0.0000
     56 H22        1.6645    7.5006    7.9264 H         1 RES1    0.0000
     57 H23        0.6563    8.8549    7.7432 H         1 RES1    0.0000
     58 H24        2.0562    8.9615    8.6988 H         1 RES1    0.0000
     59 H25        2.2265    5.2433    1.9636 H         1 RES1    0.0000
     60 H26        1.6520    5.8374    0.4800 H         1 RES1    0.0000
     61 H27        0.8525    6.2406    1.9232 H         1 RES1    0.0000
     62 H28       -2.1553    9.3004   -1.6682 H         1 RES1    0.0000
     63 H29       -1.6632    8.7360   -0.1439 H         1 RES1    0.0000
     64 H30       -0.9587    8.1007   -1.5526 H         1 RES1    0.0000
     65 H31        4.5356   13.3073    0.0032 H         1 RES1    0.0000
     66 H32        2.8391   13.3499    0.0683 H         1 RES1    0.0000
     67 H33        3.6203   12.4101   -1.1110 H         1 RES1    0.0000
@<TRIPOS>BOND
     1    1    8 2
     2    2    6 1
     3    3   27 1
     4    4   29 1
     5    5   31 1
     6    6   18 2
     7    7    8 1
     8    8    9 1
     9    9    2 1
    10   10    9 1
    11   11   10 1
    12   12    7 1
    13   13    7 1
    14   14   13 1
    15   15   13 1
    16   16    7 1
    17   17    9 1
    18   18   17 1
    19   19   17 1
    20   20   19 ar
    21   21   20 ar
    22   22   21 ar
    23   23   22 ar
    24   24   19 ar
    25   25   22 1
    26   26   18 1
    27   27   26 ar
    28   28   27 ar
    29   29   28 ar
    30   30   29 ar
    31   31   26 ar
    32   32    5 1
    33   33    4 1
    34   34    3 1
    35   35   20 1
    36   36   21 1
    37   37   23 1
    38   38   24 1
    39   39   28 1
    40   40   30 1
    41   41   10 1
    42   42   11 1
    43   43   11 1
    44   44   12 1
    45   45   12 1
    46   46   14 1
    47   47   14 1
    48   48   14 1
    49   49   15 1
    50   50   15 1
    51   51   15 1
    52   52   16 1
    53   53   16 1
    54   54   16 1
    55   55   17 1
    56   56   25 1
    57   57   25 1
    58   58   25 1
    59   59   32 1
    60   60   32 1
    61   61   32 1
    62   62   33 1
    63   63   33 1
    64   64   33 1
    65   65   34 1
    66   66   34 1
    67   67   34 1
    68   10   13 1
    69   11   12 1
    70   23   24 ar
    71   30   31 ar
@<TRIPOS>SUBSTRUCTURE
     1 RES1 1

@<TRIPOS>CRYSIN
   9.2881   13.8252   10.2891  90.0000 103.8976  90.0000   4 1

