# MOL2 file generated by ConQuest
# Please check atom types

@<TRIPOS>MOLECULE
KEHTEZ
    32    25     2
SMALL
NO_CHARGES
****
Generated from CSD

@<TRIPOS>ATOM
      1 O1         5.2711   -0.4985    3.9055 O.2       1 RES1    0.0000
      2 O2         5.5632    0.6938    2.1386 O.2       1 RES1    0.0000
      3 N1         5.6516    5.0021    6.6140 N.3       1 RES1    0.0000
      4 N2         5.5785    4.4355    7.8634 N.2       1 RES1    0.0000
      5 N3         5.4380    0.5833    3.3536 N.pl3     1 RES1    0.0000
      6 C1         5.4902    2.8204    6.2798 C.ar      1 RES1    0.0000
      7 C2         5.4353    1.6476    5.5333 C.ar      1 RES1    0.0000
      8 H1         5.3900    0.7941    5.9494 H         1 RES1    0.0000
      9 C3         5.4860    1.7838    4.1713 C.ar      1 RES1    0.0000
     10 C4         5.5806    3.0293    3.5164 C.ar      1 RES1    0.0000
     11 H2         5.6474    3.0713    2.5899 H         1 RES1    0.0000
     12 C5         5.6244    4.1903    4.2430 C.ar      1 RES1    0.0000
     13 H3         5.6961    5.0565    3.8238 H         1 RES1    0.0000
     14 C6         5.5897    4.0722    5.6367 C.ar      1 RES1    0.0000
     15 C7         5.4867    3.1400    7.6616 C.2       1 RES1    0.0000
     16 H4         5.4179    2.4990    8.4294 H         1 RES1    0.0000
     17 C8         5.7955    6.4555    6.5749 C.3       1 RES1    0.0000
     18 H5         6.5561    6.6800    6.0161 H         1 RES1    0.0000
     19 H6         5.9830    6.7762    7.4707 H         1 RES1    0.0000
     20 C9         4.5881    7.1620    6.0521 C.2       1 RES1    0.0000
     21 H7         3.7685    6.9860    6.4550 H         1 RES1    0.0000
     22 C10        4.6167    8.0028    5.0735 C.2       1 RES1    0.0000
     23 H8         5.4226    8.1984    4.6513 H         1 RES1    0.0000
     24 H9         3.8322    8.4139    4.7894 H         1 RES1    0.0000
     25 C11        5.8491    6.4158    6.3037 Du        2 SUP2    0.0000
     26 H10        6.2465    6.5205    5.4220 Du        2 SUP2    0.0000
     27 H11        6.4304    6.8341    6.9572 Du        2 SUP2    0.0000
     28 C12        4.4859    7.0184    6.3416 Du        2 SUP2    0.0000
     29 H12        3.9671    6.8762    7.1010 Du        2 SUP2    0.0000
     30 C13        3.9782    7.7249    5.3863 Du        2 SUP2    0.0000
     31 H13        4.4759    7.8839    4.6146 Du        2 SUP2    0.0000
     32 H14        3.1236    8.0748    5.4687 Du        2 SUP2    0.0000
@<TRIPOS>BOND
     1    1    5 2
     2    2    5 2
     3    3    4 1
     4    4   15 2
     5    5    9 1
     6    6    7 ar
     7    7    8 1
     8    9    7 ar
     9   10    9 ar
    10   11   10 1
    11   12   10 ar
    12   13   12 1
    13   14    3 1
    14   15    6 1
    15   16   15 1
    16   17    3 1
    17   18   17 1
    18   19   17 1
    19   20   17 1
    20   21   20 1
    21   22   20 2
    22   23   22 1
    23   24   22 1
    24    6   14 ar
    25   12   14 ar
@<TRIPOS>SUBSTRUCTURE
     1 RES1 1
     2 SUP2 25

@<TRIPOS>CRYSIN
   6.9549   11.6778   12.2165  90.0000  90.0000  90.0000  19 1

