# MOL2 file generated by ConQuest
# Please check atom types

@<TRIPOS>MOLECULE
KEHWUR
    19    19     1
SMALL
USER_CHARGES
****
Generated from CSD

@<TRIPOS>ATOM
      1 N1         4.2131    3.7021    6.1237 N.pl3     1 RES1    0.0000
      2 N2         4.0424    2.3188    6.2040 N.2       1 RES1    0.0000
      3 C1         3.0076    2.2393    6.9970 C.2       1 RES1    0.0000
      4 N3         2.4743    3.4047    7.4585 N.2       1 RES1    0.0000
      5 C2         3.2561    4.3364    6.9093 C.2       1 RES1    0.0000
      6 C3         5.2449    4.2210    5.3526 C.2       1 RES1    0.0000
      7 N4         5.9697    3.3354    4.7230 N.3       1 RES1    0.0000
      8 H1         6.6428    3.5960    4.2202 H         1 RES1    0.0000
      9 H2         5.7847    2.4787    4.8012 H         1 RES1    0.0000
     10 N5         5.2985    5.5498    5.4115 N.2       1 RES1    0.0000
     11 N6         6.3330    6.1795    4.7782 N.pl3     1 RES1    0.0000
     12 O1         6.3522    7.4016    4.9349 O.2       1 RES1    0.0000
     13 O2         7.1841    5.5680    4.1022 O.2       1 RES1    0.0000
     14 N7         2.4013    1.0509    7.4011 N.2       1 RES1    0.0000
     15 N8         3.0234    0.0267    7.0280 N.1       1 RES1    1.0000
     16 N9         3.4868   -0.9653    6.7804 N.2       1 RES1   -1.0000
     17 N10        3.1398    5.6362    7.0789 N.3       1 RES1    0.0000
     18 H3         2.5022    5.9575    7.5935 H         1 RES1    0.0000
     19 H4         3.7000    6.1844    6.6779 H         1 RES1    0.0000
@<TRIPOS>BOND
     1    1    2 1
     2    2    3 2
     3    3    4 1
     4    4    5 2
     5    5    1 1
     6    6    1 1
     7    7    6 1
     8    8    7 1
     9    9    7 1
    10   10    6 2
    11   11   10 1
    12   12   11 2
    13   13   11 2
    14   14    3 1
    15   15   14 2
    16   16   15 2
    17   17    5 1
    18   18   17 1
    19   19   17 1
@<TRIPOS>SUBSTRUCTURE
     1 RES1 1

@<TRIPOS>CRYSIN
   5.1970    9.6150   16.4230  90.0000  96.4360  90.0000  14 1

