# MOL2 file generated by ConQuest
# Please check atom types

@<TRIPOS>MOLECULE
KEHXAY
    40    42     2
SMALL
NO_CHARGES
****
Generated from CSD

@<TRIPOS>ATOM
      1 O1         4.4621    3.1843    4.1162 O.2       1 RES1    0.0000
      2 O2         1.2797    4.5594    6.7596 O.2       1 RES1    0.0000
      3 O3         1.5625    0.9055    1.5975 O.2       1 RES1    0.0000
      4 O4        -0.0583   -0.4125    2.0867 O.2       1 RES1    0.0000
      5 O5        -3.5048    1.0698    4.8530 O.2       1 RES1    0.0000
      6 O6        -3.1537    2.4985    6.4567 O.2       1 RES1    0.0000
      7 N1         2.5020    2.2627    3.7303 N.ar      1 RES1    0.0000
      8 N2         3.2852    3.0735    4.4058 N.pl3     1 RES1    0.0000
      9 N3         2.8847    3.8825    5.4640 N.ar      1 RES1    0.0000
     10 N4         1.6327    3.8183    5.8314 N.pl3     1 RES1    0.0000
     11 N5         0.6527    0.5518    2.3078 N.pl3     1 RES1    0.0000
     12 N6        -2.7997    1.8609    5.4783 N.pl3     1 RES1    0.0000
     13 C1         1.2154    2.2038    4.1172 C.ar      1 RES1    0.0000
     14 C2         0.2809    1.3626    3.4868 C.ar      1 RES1    0.0000
     15 C3        -0.9919    1.2501    3.9278 C.ar      1 RES1    0.0000
     16 C4        -1.4152    2.0181    5.0168 C.ar      1 RES1    0.0000
     17 C5        -0.5904    2.8824    5.6636 C.ar      1 RES1    0.0000
     18 C6         0.7130    2.9432    5.2245 C.ar      1 RES1    0.0000
     19 O7         5.8505    6.9150    0.6642 O.2       2 RES2    0.0000
     20 O8         7.1322    4.5326    4.0773 O.2       2 RES2    0.0000
     21 O9         3.3050    9.5171    3.2626 O.2       2 RES2    0.0000
     22 O10        1.9690    9.0902    4.8776 O.2       2 RES2    0.0000
     23 O11        3.3614    6.4792    8.5618 O.2       2 RES2    0.0000
     24 O12        4.8556    4.9666    8.3132 O.2       2 RES2    0.0000
     25 N7         4.8547    7.4454    2.5534 N.ar      2 RES2    0.0000
     26 N8         5.7210    6.7114    1.8687 N.pl3     2 RES2    0.0000
     27 N9         6.5606    5.7006    2.3426 N.ar      2 RES2    0.0000
     28 N10        6.4261    5.4434    3.6218 N.pl3     2 RES2    0.0000
     29 N11        2.9876    8.8956    4.2451 N.pl3     2 RES2    0.0000
     30 N12        4.2297    5.9292    7.9089 N.pl3     2 RES2    0.0000
     31 C7         4.7647    7.1400    3.8623 C.ar      2 RES2    0.0000
     32 C8         3.8628    7.8044    4.7445 C.ar      2 RES2    0.0000
     33 C9         3.7026    7.4383    6.0443 C.ar      2 RES2    0.0000
     34 C10        4.4878    6.3971    6.5447 C.ar      2 RES2    0.0000
     35 C11        5.4124    5.7417    5.7966 C.ar      2 RES2    0.0000
     36 C12        5.5232    6.1078    4.4651 C.ar      2 RES2    0.0000
     37 H1         5.9435    5.1077    6.1712 H         2 RES2    0.0000
     38 H2        -0.7911    3.4111    6.4372 H         1 RES1    0.0000
     39 H3        -1.6317    0.7501    3.5615 H         1 RES1    0.0000
     40 H4         3.1448    8.0008    6.7443 H         2 RES2    0.0000
@<TRIPOS>BOND
     1    1    8 1
     2    2   10 1
     3    3   11 2
     4    4   11 2
     5    5   12 2
     6    6   12 2
     7    7    8 ar
     8    8    9 ar
     9    9   10 ar
    10   10   18 ar
    11   11   14 1
    12   12   16 1
    13   13    7 ar
    14   14   13 ar
    15   15   14 ar
    16   16   15 ar
    17   17   16 ar
    18   18   13 ar
    19   19   26 1
    20   20   28 1
    21   21   29 2
    22   22   29 2
    23   23   30 2
    24   24   30 2
    25   25   26 ar
    26   26   27 ar
    27   27   28 ar
    28   28   36 ar
    29   29   32 1
    30   30   34 1
    31   31   25 ar
    32   32   31 ar
    33   33   32 ar
    34   34   33 ar
    35   35   34 ar
    36   36   31 ar
    37   37   35 1
    38   38   17 1
    39   39   15 1
    40   40   33 1
    41   17   18 ar
    42   35   36 ar
@<TRIPOS>SUBSTRUCTURE
     1 RES1 1
     2 RES2 19

@<TRIPOS>CRYSIN
   9.8893   17.8590   10.2341  90.0000  90.0000  90.0000  29 1

