# MOL2 file generated by ConQuest
# Please check atom types

@<TRIPOS>MOLECULE
KEJGIP
    29    29     1
SMALL
NO_CHARGES
****
Generated from CSD

@<TRIPOS>ATOM
      1 C1         2.0191    4.3309    4.2227 C.ar      1 RES1    0.0000
      2 C2         1.1423    4.5687    3.1504 C.ar      1 RES1    0.0000
      3 N1         0.3785    5.8296    3.0500 N.pl3     1 RES1    0.0000
      4 O1        -0.7941    5.7354    2.6771 O.2       1 RES1    0.0000
      5 O2         0.9363    6.8617    3.2831 O.2       1 RES1    0.0000
      6 C3         1.0182    3.6899    2.0853 C.ar      1 RES1    0.0000
      7 C4         1.8176    2.5853    2.0620 C.ar      1 RES1    0.0000
      8 N2         1.6912    1.6368    0.9324 N.pl3     1 RES1    0.0000
      9 O3         2.5941    0.8278    0.7692 O.2       1 RES1    0.0000
     10 O4         0.6741    1.7316    0.2779 O.2       1 RES1    0.0000
     11 C5         2.7442    2.3209    3.0608 C.ar      1 RES1    0.0000
     12 N3         3.6470    2.7568    5.2591 N.pl3     1 RES1    0.0000
     13 C6         2.7759    3.1690    4.1420 C.ar      1 RES1    0.0000
     14 O5         4.7065    2.2142    4.9776 O.2       1 RES1    0.0000
     15 O6         3.2419    2.9591    6.4049 O.2       1 RES1    0.0000
     16 N4         2.1297    5.2458    5.2896 N.am      1 RES1    0.0000
     17 C7         1.0742    5.7487    5.9351 C.2       1 RES1    0.0000
     18 O7        -0.1018    5.4481    5.7074 O.2       1 RES1    0.0000
     19 O8         1.4674    6.6190    6.8639 O.3       1 RES1    0.0000
     20 C8         0.4056    7.1616    7.7013 C.3       1 RES1    0.0000
     21 C9         1.0309    8.2356    8.5440 C.3       1 RES1    0.0000
     22 H1         0.3854    3.8552    1.3825 H         1 RES1    0.0000
     23 H2         3.3432    1.5733    2.9980 H         1 RES1    0.0000
     24 H3        -0.2912    7.5312    7.1544 H         1 RES1    0.0000
     25 H4         0.0410    6.4733    8.2625 H         1 RES1    0.0000
     26 H5         0.3509    8.5808    9.1268 H         1 RES1    0.0000
     27 H6         1.3610    8.9421    7.9846 H         1 RES1    0.0000
     28 H7         1.7519    7.8799    9.0694 H         1 RES1    0.0000
     29 H8         3.1587    5.3212    5.6715 H         1 RES1    0.0000
@<TRIPOS>BOND
     1    1    2 ar
     2    2    3 1
     3    3    4 2
     4    5    3 2
     5    6    2 ar
     6    7    6 ar
     7    8    7 1
     8    9    8 2
     9   10    8 2
    10   11    7 ar
    11   12   13 1
    12   13    1 ar
    13   14   12 2
    14   15   12 2
    15   16    1 1
    16   17   16 1
    17   18   17 2
    18   19   17 1
    19   20   19 1
    20   21   20 1
    21   22    6 1
    22   23   11 1
    23   24   20 1
    24   25   20 1
    25   26   21 1
    26   27   21 1
    27   28   21 1
    28   29   16 1
    29   11   13 ar
@<TRIPOS>SUBSTRUCTURE
     1 RES1 1

@<TRIPOS>CRYSIN
   4.9780    6.9740   17.9910  90.0000  94.6900  90.0000   4 1

