# MOL2 file generated by ConQuest
# Please check atom types

@<TRIPOS>MOLECULE
KEJHEP
    56    59     1
SMALL
NO_CHARGES
****
Generated from CSD

@<TRIPOS>ATOM
      1 O1         5.5457    0.3829   10.9863 O.3       1 RES1    0.0000
      2 O2         3.2581    3.9258   12.2462 O.3       1 RES1    0.0000
      3 O3         6.7836    4.4044   12.8452 O.3       1 RES1    0.0000
      4 O4         5.9204    5.2586   14.7643 O.3       1 RES1    0.0000
      5 O5         6.2241    4.3516    6.3088 O.3       1 RES1    0.0000
      6 O6         6.1003    5.5334    8.2358 O.2       1 RES1    0.0000
      7 O7         6.5798    1.6216    6.6581 O.2       1 RES1    0.0000
      8 N1         5.2123    1.2222   12.0782 N.2       1 RES1    0.0000
      9 N2         6.5443    3.3217    8.2857 N.am      1 RES1    0.0000
     10 C1         6.5905    3.2656    9.7635 C.3       1 RES1    0.0000
     11 H1         6.8150    4.1280   10.2194 H         1 RES1    0.0000
     12 C2         5.2462    2.6144   10.1938 C.3       1 RES1    0.0000
     13 H2         4.4556    3.0378    9.7507 H         1 RES1    0.0000
     14 C3         5.4632    1.1504    9.7465 C.3       1 RES1    0.0000
     15 H3         4.7378    0.8236    9.1421 H         1 RES1    0.0000
     16 C4         6.8447    1.1644    9.0587 C.3       1 RES1    0.0000
     17 H4         7.2722    0.2715    8.9169 H         1 RES1    0.0000
     18 C5         7.6031    2.1325    9.9644 C.3       1 RES1    0.0000
     19 H5         8.5060    2.3553    9.6229 H         1 RES1    0.0000
     20 H6         7.6559    1.8230   10.9011 H         1 RES1    0.0000
     21 C6         5.0456    2.4221   11.6735 C.2       1 RES1    0.0000
     22 C7         4.5612    3.4760   12.6267 C.3       1 RES1    0.0000
     23 H7         4.5307    3.1030   13.5549 H         1 RES1    0.0000
     24 C8         5.4236    4.7296   12.6072 C.3       1 RES1    0.0000
     25 H8         5.3295    5.1983   11.7289 H         1 RES1    0.0000
     26 C9         5.0473    5.6745   13.7533 C.3       1 RES1    0.0000
     27 H9         5.2033    6.6202   13.5062 H         1 RES1    0.0000
     28 H10        4.1015    5.5581   14.0235 H         1 RES1    0.0000
     29 C10        7.1344    4.8765   14.1331 C.3       1 RES1    0.0000
     30 C11        7.6460    3.5701   14.8732 C.3       1 RES1    0.0000
     31 H11        6.9198    2.9132   14.9183 H         1 RES1    0.0000
     32 H12        7.9340    3.7995   15.7826 H         1 RES1    0.0000
     33 H13        8.4011    3.1888   14.3765 H         1 RES1    0.0000
     34 C12        8.1296    5.9039   14.0637 C.3       1 RES1    0.0000
     35 H14        7.7673    6.6780   13.5853 H         1 RES1    0.0000
     36 H15        8.9169    5.5647   13.5853 H         1 RES1    0.0000
     37 H16        8.3863    6.1729   14.9730 H         1 RES1    0.0000
     38 C13        6.6557    2.0153    7.8097 C.2       1 RES1    0.0000
     39 C14        6.2604    4.5133    7.6210 C.2       1 RES1    0.0000
     40 C15        6.1837    5.5457    5.4110 C.3       1 RES1    0.0000
     41 C16        7.4034    6.4090    5.6964 C.3       1 RES1    0.0000
     42 H17        7.3209    6.8059    6.5857 H         1 RES1    0.0000
     43 H18        7.4637    7.1203    5.0275 H         1 RES1    0.0000
     44 H19        8.2105    5.8552    5.6605 H         1 RES1    0.0000
     45 C17        6.2786    4.9144    4.0354 C.3       1 RES1    0.0000
     46 H20        5.4839    4.3648    3.8711 H         1 RES1    0.0000
     47 H21        7.0799    4.3524    3.9867 H         1 RES1    0.0000
     48 H22        6.3330    5.6192    3.3537 H         1 RES1    0.0000
     49 C18        4.9045    6.3050    5.5912 C.3       1 RES1    0.0000
     50 H23        4.1453    5.7174    5.3927 H         1 RES1    0.0000
     51 H24        4.8913    7.0717    4.9788 H         1 RES1    0.0000
     52 H25        4.8401    6.6227    6.5187 H         1 RES1    0.0000
     53 C19        2.2810    2.9074   12.2420 C.3       1 RES1    0.0000
     54 H26        1.4170    3.2862   11.9784 H         1 RES1    0.0000
     55 H27        2.2076    2.5220   13.1410 H         1 RES1    0.0000
     56 H28        2.5410    2.2084   11.6071 H         1 RES1    0.0000
@<TRIPOS>BOND
     1    1    8 1
     2    2   22 1
     3    3   24 1
     4    4   26 1
     5    5   39 1
     6    6   39 2
     7    7   38 2
     8    8   21 2
     9    9   10 1
    10   10   11 1
    11   12   10 1
    12   13   12 1
    13   14    1 1
    14   15   14 1
    15   16   14 1
    16   17   16 1
    17   18   10 1
    18   19   18 1
    19   20   18 1
    20   21   12 1
    21   22   21 1
    22   23   22 1
    23   24   22 1
    24   25   24 1
    25   26   24 1
    26   27   26 1
    27   28   26 1
    28   29    3 1
    29   30   29 1
    30   31   30 1
    31   32   30 1
    32   33   30 1
    33   34   29 1
    34   35   34 1
    35   36   34 1
    36   37   34 1
    37   38    9 1
    38   39    9 1
    39   40    5 1
    40   41   40 1
    41   42   41 1
    42   43   41 1
    43   44   41 1
    44   45   40 1
    45   46   45 1
    46   47   45 1
    47   48   45 1
    48   49   40 1
    49   50   49 1
    50   51   49 1
    51   52   49 1
    52   53    2 1
    53   54   53 1
    54   55   53 1
    55   56   53 1
    56    4   29 1
    57   12   14 1
    58   16   18 1
    59   16   38 1
@<TRIPOS>SUBSTRUCTURE
     1 RES1 1

@<TRIPOS>CRYSIN
   8.2526    8.2526   60.8660  90.0000  90.0000  90.0000  96 1

