# MOL2 file generated by ConQuest
# Please check atom types

@<TRIPOS>MOLECULE
KEJSOJ
    66    70     2
SMALL
NO_CHARGES
****
Generated from CSD

@<TRIPOS>ATOM
      1 O1         2.2224    5.8207    6.6895 O.2       1 RES1    0.0000
      2 O2         0.4293    6.4493    7.7085 O.2       1 RES1    0.0000
      3 N1         2.0330   -0.3976    2.4291 N.ar      1 RES1    0.0000
      4 N2         1.0483    5.6595    7.0047 N.pl3     1 RES1    0.0000
      5 C1         2.7741    0.6596    2.7427 C.ar      1 RES1    0.0000
      6 C2         2.1937    1.6717    3.6362 C.2       1 RES1    0.0000
      7 H1         2.6797    2.4750    3.7810 H         1 RES1    0.0000
      8 C3         1.0222    1.5232    4.2551 C.2       1 RES1    0.0000
      9 H2         0.5481    0.7185    4.0806 H         1 RES1    0.0000
     10 C4         0.3879    2.4705    5.1784 C.ar      1 RES1    0.0000
     11 C5         1.0223    3.6365    5.6268 C.ar      1 RES1    0.0000
     12 H3         1.8951    3.8594    5.3238 H         1 RES1    0.0000
     13 C6         0.3550    4.4575    6.5174 C.ar      1 RES1    0.0000
     14 C7        -0.9258    4.1979    6.9889 C.ar      1 RES1    0.0000
     15 H4        -1.3613    4.7942    7.5867 H         1 RES1    0.0000
     16 C8        -1.5450    3.0352    6.5550 C.ar      1 RES1    0.0000
     17 H5        -2.4149    2.8148    6.8666 H         1 RES1    0.0000
     18 C9        -0.8930    2.1960    5.6660 C.ar      1 RES1    0.0000
     19 H6        -1.3329    1.4052    5.3771 H         1 RES1    0.0000
     20 C10        4.0944    0.8446    2.2510 C.ar      1 RES1    0.0000
     21 H7         4.5899    1.6170    2.4947 H         1 RES1    0.0000
     22 C11        4.6477   -0.0905    1.4265 C.ar      1 RES1    0.0000
     23 H8         5.5388    0.0123    1.1140 H         1 RES1    0.0000
     24 C12        3.8778   -1.2189    1.0408 C.ar      1 RES1    0.0000
     25 C13        2.5695   -1.3194    1.5791 C.ar      1 RES1    0.0000
     26 C14        1.7585   -2.4178    1.1961 C.ar      1 RES1    0.0000
     27 H9         0.8831   -2.5037    1.5551 H         1 RES1    0.0000
     28 C15        2.2260   -3.3556    0.3149 C.ar      1 RES1    0.0000
     29 H10        1.6661   -4.0786    0.0574 H         1 RES1    0.0000
     30 C16        3.5281   -3.2594   -0.2138 C.ar      1 RES1    0.0000
     31 H11        3.8437   -3.9210   -0.8186 H         1 RES1    0.0000
     32 C17        4.3415   -2.2140    0.1403 C.ar      1 RES1    0.0000
     33 H12        5.2195   -2.1546   -0.2175 H         1 RES1    0.0000
     34 O3         2.0833   -5.8141    3.1022 O.2       2 RES2    0.0000
     35 O4         4.0483   -6.0436    2.2424 O.2       2 RES2    0.0000
     36 N3         1.8105    1.1652    8.1123 N.ar      2 RES2    0.0000
     37 N4         3.2385   -5.4417    2.9344 N.pl3     2 RES2    0.0000
     38 C18        1.4387   -0.0064    7.6019 C.ar      2 RES2    0.0000
     39 C19        2.4012   -0.6353    6.6963 C.2       2 RES2    0.0000
     40 H13        3.2110   -0.1652    6.5342 H         2 RES2    0.0000
     41 C20        2.2470   -1.8056    6.0792 C.2       2 RES2    0.0000
     42 H14        1.4520   -2.2883    6.2716 H         2 RES2    0.0000
     43 C21        3.1799   -2.4221    5.1349 C.ar      2 RES2    0.0000
     44 C22        2.7961   -3.6009    4.4851 C.ar      2 RES2    0.0000
     45 H15        1.9420   -3.9834    4.6488 H         2 RES2    0.0000
     46 C23        3.6721   -4.2039    3.6009 C.ar      2 RES2    0.0000
     47 C24        4.9268   -3.7015    3.3239 C.ar      2 RES2    0.0000
     48 H16        5.5124   -4.1452    2.7224 H         2 RES2    0.0000
     49 C25        5.3040   -2.5208    3.9575 C.ar      2 RES2    0.0000
     50 H17        6.1563   -2.1414    3.7790 H         2 RES2    0.0000
     51 C26        4.4477   -1.8977    4.8446 C.ar      2 RES2    0.0000
     52 H18        4.7246   -1.0942    5.2684 H         2 RES2    0.0000
     53 C27        0.1758   -0.6053    7.8860 C.ar      2 RES2    0.0000
     54 H19       -0.0418   -1.4616    7.5354 H         2 RES2    0.0000
     55 C28       -0.7127    0.0669    8.6658 C.ar      2 RES2    0.0000
     56 H20       -1.5676   -0.3080    8.8422 H         2 RES2    0.0000
     57 C29       -0.3664    1.3226    9.2146 C.ar      2 RES2    0.0000
     58 C30        0.9285    1.8248    8.9241 C.ar      2 RES2    0.0000
     59 C31        1.3199    3.0638    9.4877 C.ar      2 RES2    0.0000
     60 H21        2.1843    3.4129    9.3059 H         2 RES2    0.0000
     61 C32        0.4565    3.7616   10.2931 C.ar      2 RES2    0.0000
     62 H22        0.7349    4.5857   10.6763 H         2 RES2    0.0000
     63 C33       -0.8344    3.2735   10.5594 C.ar      2 RES2    0.0000
     64 H23       -1.4263    3.7726   11.1092 H         2 RES2    0.0000
     65 C34       -1.2387    2.0815   10.0270 C.ar      2 RES2    0.0000
     66 H24       -2.1147    1.7601   10.2045 H         2 RES2    0.0000
@<TRIPOS>BOND
     1    1    4 2
     2    2    4 2
     3    3    5 ar
     4    4   13 1
     5    5    6 1
     6    6    7 1
     7    8    6 2
     8    9    8 1
     9   10    8 1
    10   11   10 ar
    11   12   11 1
    12   13   11 ar
    13   14   13 ar
    14   15   14 1
    15   16   14 ar
    16   17   16 1
    17   18   10 ar
    18   19   18 1
    19   20    5 ar
    20   21   20 1
    21   22   20 ar
    22   23   22 1
    23   24   22 ar
    24   25    3 ar
    25   26   25 ar
    26   27   26 1
    27   28   26 ar
    28   29   28 1
    29   30   28 ar
    30   31   30 1
    31   32   24 ar
    32   33   32 1
    33   34   37 2
    34   35   37 2
    35   36   38 ar
    36   37   46 1
    37   38   39 1
    38   39   40 1
    39   41   39 2
    40   42   41 1
    41   43   41 1
    42   44   43 ar
    43   45   44 1
    44   46   44 ar
    45   47   46 ar
    46   48   47 1
    47   49   47 ar
    48   50   49 1
    49   51   43 ar
    50   52   51 1
    51   53   38 ar
    52   54   53 1
    53   55   53 ar
    54   56   55 1
    55   57   55 ar
    56   58   36 ar
    57   59   58 ar
    58   60   59 1
    59   61   59 ar
    60   62   61 1
    61   63   61 ar
    62   64   63 1
    63   65   57 ar
    64   66   65 1
    65   16   18 ar
    66   24   25 ar
    67   30   32 ar
    68   49   51 ar
    69   57   58 ar
    70   63   65 ar
@<TRIPOS>SUBSTRUCTURE
     1 RES1 1
     2 RES2 34

@<TRIPOS>CRYSIN
   6.1153   10.5326   20.5480  88.7600  86.8470  78.6690   2 1

