# MOL2 file generated by ConQuest
# Please check atom types

@<TRIPOS>MOLECULE
KEJSUN
    37    39     1
SMALL
NO_CHARGES
****
Generated from CSD

@<TRIPOS>ATOM
      1 O1        -0.2096   -3.4509  -11.8464 O.3       1 RES1    0.0000
      2 O2        -1.7983   -3.7849  -14.2776 O.2       1 RES1    0.0000
      3 O3        -3.0115   -2.6267  -12.1393 O.3       1 RES1    0.0000
      4 O4         3.8564   -3.7035  -13.2340 O.3       1 RES1    0.0000
      5 N1         0.2561   -4.4710  -15.0434 N.am      1 RES1    0.0000
      6 N2         2.6515   -3.1416  -12.7474 N.2       1 RES1    0.0000
      7 C1        -0.7811   -2.2917  -11.1842 C.3       1 RES1    0.0000
      8 C2        -0.4785   -1.1592  -12.0942 C.2       1 RES1    0.0000
      9 C3         0.0957   -1.6013  -13.2069 C.2       1 RES1    0.0000
     10 C4         0.2671   -3.0656  -13.1469 C.3       1 RES1    0.0000
     11 C5        -0.5587   -3.8224  -14.2160 C.2       1 RES1    0.0000
     12 C6         1.6753   -4.4518  -14.6560 C.3       1 RES1    0.0000
     13 C7         1.6598   -3.5569  -13.4472 C.2       1 RES1    0.0000
     14 C8        -2.2641   -2.5497  -10.9289 C.3       1 RES1    0.0000
     15 C9        -0.1805   -5.2171  -16.2342 C.3       1 RES1    0.0000
     16 C10        0.1349   -6.6568  -16.1667 C.ar      1 RES1    0.0000
     17 C11       -0.3755   -7.4649  -15.1455 C.ar      1 RES1    0.0000
     18 C12       -0.1112   -8.7997  -15.0945 C.ar      1 RES1    0.0000
     19 C13        0.6872   -9.3841  -16.0706 C.ar      1 RES1    0.0000
     20 C14        1.1995   -8.6134  -17.0902 C.ar      1 RES1    0.0000
     21 C15        0.9415   -7.2733  -17.1322 C.ar      1 RES1    0.0000
     22 H1        -2.7134   -3.2529  -12.6123 H         1 RES1    0.0000
     23 H2         4.5008   -3.4274  -12.7714 H         1 RES1    0.0000
     24 H3        -0.3154   -2.1472  -10.3103 H         1 RES1    0.0000
     25 H4        -0.6699   -0.2483  -11.9080 H         1 RES1    0.0000
     26 H5         0.3600   -1.0533  -13.9367 H         1 RES1    0.0000
     27 H6         2.2404   -4.0750  -15.3768 H         1 RES1    0.0000
     28 H7         1.9998   -5.3594  -14.4278 H         1 RES1    0.0000
     29 H8        -2.3662   -3.3974  -10.4289 H         1 RES1    0.0000
     30 H9        -2.6296   -1.8207  -10.3673 H         1 RES1    0.0000
     31 H10        0.2561   -4.8296  -17.0331 H         1 RES1    0.0000
     32 H11       -1.1585   -5.1079  -16.3408 H         1 RES1    0.0000
     33 H12       -0.9197   -7.0731  -14.4713 H         1 RES1    0.0000
     34 H13       -0.4721   -9.3306  -14.3947 H         1 RES1    0.0000
     35 H14        0.8796  -10.3132  -16.0345 H         1 RES1    0.0000
     36 H15        1.7345   -9.0148  -17.7659 H         1 RES1    0.0000
     37 H16        1.3153   -6.7488  -17.8305 H         1 RES1    0.0000
@<TRIPOS>BOND
     1    1    7 1
     2    2   11 2
     3    3   14 1
     4    4    6 1
     5    5   11 1
     6    6   13 2
     7    7    8 1
     8    8    9 2
     9    9   10 1
    10   10    1 1
    11   11   10 1
    12   12    5 1
    13   13   10 1
    14   14    7 1
    15   15    5 1
    16   16   15 1
    17   17   16 ar
    18   18   17 ar
    19   19   18 ar
    20   20   19 ar
    21   21   16 ar
    22   22    3 1
    23   23    4 1
    24   24    7 1
    25   25    8 1
    26   26    9 1
    27   27   12 1
    28   28   12 1
    29   29   14 1
    30   30   14 1
    31   31   15 1
    32   32   15 1
    33   33   17 1
    34   34   18 1
    35   35   19 1
    36   36   20 1
    37   37   21 1
    38   12   13 1
    39   20   21 ar
@<TRIPOS>SUBSTRUCTURE
     1 RES1 1

@<TRIPOS>CRYSIN
   9.1147   10.7039   15.0164  90.0000  90.0000  90.0000  19 1

