# MOL2 file generated by ConQuest
# Please check atom types

@<TRIPOS>MOLECULE
KEKRIC
    66    71     1
SMALL
NO_CHARGES
****
Generated from CSD

@<TRIPOS>ATOM
      1 C1         7.5916   10.2086    9.9816 C.ar      1 RES1    0.0000
      2 C2         8.6665   10.4372    9.1248 C.ar      1 RES1    0.0000
      3 H1         9.4295    9.9106    9.1991 H         1 RES1    0.0000
      4 C3         8.6207   11.4260    8.1666 C.ar      1 RES1    0.0000
      5 H2         9.3363   11.5625    7.5882 H         1 RES1    0.0000
      6 C4         7.4981   12.2050    8.0882 C.ar      1 RES1    0.0000
      7 C5         6.4157   12.0282    8.9477 C.ar      1 RES1    0.0000
      8 H3         5.6669   12.5752    8.8788 H         1 RES1    0.0000
      9 C6         6.4672   11.0414    9.8962 C.ar      1 RES1    0.0000
     10 C7         5.2997   10.8588   10.8492 C.3       1 RES1    0.0000
     11 H4         5.6162   10.9818   11.7573 H         1 RES1    0.0000
     12 H5         4.6413   11.5493   10.6708 H         1 RES1    0.0000
     13 C8         7.6644    9.0821   10.9816 C.3       1 RES1    0.0000
     14 H6         8.5172    8.6294   10.8816 H         1 RES1    0.0000
     15 H7         7.6311    9.4548   11.8762 H         1 RES1    0.0000
     16 C9         3.8376    9.2915    9.6626 C.2       1 RES1    0.0000
     17 C10        6.6866    6.9864   10.0374 C.2       1 RES1    0.0000
     18 C11        5.2384    8.3625   11.2832 C.3       1 RES1    0.0000
     19 C12        5.2048    8.3608   12.8209 C.2       1 RES1    0.0000
     20 C13        5.5153    6.9876   14.7264 C.3       1 RES1    0.0000
     21 H8         6.2335    7.5024   15.1264 H         1 RES1    0.0000
     22 H9         4.6749    7.3153   15.0832 H         1 RES1    0.0000
     23 C14        5.6734    5.5920   15.0656 C.3       1 RES1    0.0000
     24 H10        4.9751    5.0808   14.6507 H         1 RES1    0.0000
     25 H11        5.6249    5.4869   16.0183 H         1 RES1    0.0000
     26 H12        6.5264    5.2825   14.7521 H         1 RES1    0.0000
     27 C15        4.4212    7.2101   10.5819 C.3       1 RES1    0.0000
     28 C16        3.5165    6.3798   11.5114 C.2       1 RES1    0.0000
     29 C17        1.7863    6.6166   13.1398 C.3       1 RES1    0.0000
     30 H13        2.2692    6.0660   13.7750 H         1 RES1    0.0000
     31 H14        1.1366    6.0592   12.6844 H         1 RES1    0.0000
     32 C18        1.1024    7.7122   13.8426 C.3       1 RES1    0.0000
     33 H15        1.6229    7.9774   14.6034 H         1 RES1    0.0000
     34 H16        0.2378    7.4143   14.1345 H         1 RES1    0.0000
     35 H17        1.0000    8.4594   13.2479 H         1 RES1    0.0000
     36 C19        2.8357    7.2833    8.6153 C.3       1 RES1    0.0000
     37 H18        2.1288    7.8736    8.3112 H         1 RES1    0.0000
     38 H19        2.4199    6.4854    8.9802 H         1 RES1    0.0000
     39 C20        5.1295    5.4184    8.9261 C.3       1 RES1    0.0000
     40 H20        4.3885    4.8729    9.2329 H         1 RES1    0.0000
     41 H21        5.8956    4.8351    8.8126 H         1 RES1    0.0000
     42 C21        4.7695    6.0043    7.5841 C.ar      1 RES1    0.0000
     43 C22        5.5080    5.6542    6.4665 C.ar      1 RES1    0.0000
     44 H22        6.1923    5.0296    6.5517 H         1 RES1    0.0000
     45 C23        5.2550    6.2103    5.2300 C.ar      1 RES1    0.0000
     46 H23        5.7682    5.9817    4.4881 H         1 RES1    0.0000
     47 C24        4.2236    7.1142    5.1246 C.ar      1 RES1    0.0000
     48 C25        3.4171    7.4457    6.2030 C.ar      1 RES1    0.0000
     49 H24        2.7018    8.0295    6.0962 H         1 RES1    0.0000
     50 C26        3.6941    6.8957    7.4364 C.ar      1 RES1    0.0000
     51 N1         7.3978   13.2206    7.0341 N.pl3     1 RES1    0.0000
     52 N2         4.6544    9.5597   10.7488 N.am      1 RES1    0.0000
     53 N3         6.5902    8.1010   10.8381 N.am      1 RES1    0.0000
     54 N4         3.5818    7.9437    9.6617 N.am      1 RES1    0.0000
     55 N5         5.4426    6.4064    9.9610 N.am      1 RES1    0.0000
     56 N6         3.9414    7.7377    3.8299 N.pl3     1 RES1    0.0000
     57 O1         8.2654   13.2403    6.1726 O.2       1 RES1    0.0000
     58 O2         6.4556   13.9885    7.0706 O.2       1 RES1    0.0000
     59 O3         3.3898   10.1060    8.8899 O.2       1 RES1    0.0000
     60 O4         7.7018    6.5686    9.5276 O.2       1 RES1    0.0000
     61 O5         4.9617    9.3043   13.4958 O.2       1 RES1    0.0000
     62 O6         5.5339    7.1647   13.2809 O.3       1 RES1    0.0000
     63 O7         3.5428    5.1922   11.5952 O.2       1 RES1    0.0000
     64 O8         2.7081    7.1907   12.1779 O.3       1 RES1    0.0000
     65 O9         4.7996    7.6770    2.9772 O.2       1 RES1    0.0000
     66 O10        2.8486    8.2572    3.6637 O.2       1 RES1    0.0000
@<TRIPOS>BOND
     1    1    2 ar
     2    2    3 1
     3    4    2 ar
     4    5    4 1
     5    6    4 ar
     6    7    6 ar
     7    8    7 1
     8    9    1 ar
     9   10    9 1
    10   11   10 1
    11   12   10 1
    12   13    1 1
    13   14   13 1
    14   15   13 1
    15   16   52 1
    16   17   53 1
    17   18   19 1
    18   19   61 2
    19   20   21 1
    20   22   20 1
    21   23   20 1
    22   24   23 1
    23   25   23 1
    24   26   23 1
    25   27   18 1
    26   28   27 1
    27   29   30 1
    28   31   29 1
    29   32   29 1
    30   33   32 1
    31   34   32 1
    32   35   32 1
    33   36   37 1
    34   38   36 1
    35   39   40 1
    36   41   39 1
    37   42   39 1
    38   43   42 ar
    39   44   43 1
    40   45   43 ar
    41   46   45 1
    42   47   45 ar
    43   48   47 ar
    44   49   48 1
    45   50   36 1
    46   51    6 1
    47   52   10 1
    48   53   13 1
    49   54   16 1
    50   55   17 1
    51   56   47 1
    52   57   51 2
    53   58   51 2
    54   59   16 2
    55   60   17 2
    56   62   19 1
    57   63   28 2
    58   64   28 1
    59   65   56 2
    60   66   56 2
    61    7    9 ar
    62   18   52 1
    63   18   53 1
    64   20   62 1
    65   27   54 1
    66   27   55 1
    67   29   64 1
    68   36   54 1
    69   39   55 1
    70   42   50 ar
    71   48   50 ar
@<TRIPOS>SUBSTRUCTURE
     1 RES1 1

@<TRIPOS>CRYSIN
   8.4288   11.5610   13.7220  94.8200  98.7010  90.2630   2 1

