# MOL2 file generated by ConQuest
# Please check atom types

@<TRIPOS>MOLECULE
KEKSAV
    74    79     1
SMALL
NO_CHARGES
****
Generated from CSD

@<TRIPOS>ATOM
      1 C1         4.3380   10.6161    5.3018 C.3       1 RES1    0.0000
      2 H1         4.0920   10.7939    4.3918 H         1 RES1    0.0000
      3 H2         4.2288    9.6814    5.4870 H         1 RES1    0.0000
      4 H3         5.2552   10.8662    5.4399 H         1 RES1    0.0000
      5 C2         3.5152   12.7324    6.0595 C.ar      1 RES1    0.0000
      6 C3         4.4380   13.4137    5.2754 C.ar      1 RES1    0.0000
      7 H4         5.0906   12.9479    4.8049 H         1 RES1    0.0000
      8 C4         4.3730   14.7731    5.2064 C.ar      1 RES1    0.0000
      9 H5         5.0156   15.2452    4.7273 H         1 RES1    0.0000
     10 C5         3.3553   15.4481    5.8452 C.ar      1 RES1    0.0000
     11 C6         2.4153   14.8022    6.6498 C.ar      1 RES1    0.0000
     12 C7         2.5378   13.4242    6.7951 C.ar      1 RES1    0.0000
     13 C8         1.6334   12.6195    7.7092 C.3       1 RES1    0.0000
     14 H6         0.7424   12.6018    7.3280 H         1 RES1    0.0000
     15 H7         1.9582   11.7065    7.7383 H         1 RES1    0.0000
     16 C9         1.2677   15.5688    7.2900 C.3       1 RES1    0.0000
     17 H8         1.3575   16.5055    7.0535 H         1 RES1    0.0000
     18 H9         0.4361   15.2499    6.9038 H         1 RES1    0.0000
     19 C10        2.2749   12.6531   10.1214 C.2       1 RES1    0.0000
     20 C11        1.9917   16.2260    9.5619 C.2       1 RES1    0.0000
     21 C12        0.7384   14.2713    9.4072 C.3       1 RES1    0.0000
     22 C13       -0.7497   13.9675    9.1463 C.2       1 RES1    0.0000
     23 C14       -2.4262   12.2886    9.5186 C.3       1 RES1    0.0000
     24 H10       -2.7304   12.5593    8.6394 H         1 RES1    0.0000
     25 H11       -2.3643   11.3194    9.5267 H         1 RES1    0.0000
     26 C15       -3.3881   12.7072   10.4999 C.3       1 RES1    0.0000
     27 H12       -3.0580   12.5026   11.3788 H         1 RES1    0.0000
     28 H13       -4.2166   12.2446   10.3529 H         1 RES1    0.0000
     29 H14       -3.5310   13.6528   10.4250 H         1 RES1    0.0000
     30 C16        1.1202   14.5151   10.9055 C.3       1 RES1    0.0000
     31 C17       -0.0674   14.6949   11.8668 C.2       1 RES1    0.0000
     32 C18       -1.9605   16.0256   12.2915 C.3       1 RES1    0.0000
     33 H15       -2.4084   15.2216   12.5987 H         1 RES1    0.0000
     34 H16       -1.6632   16.5275   13.0645 H         1 RES1    0.0000
     35 C19       -2.8668   16.8280   11.4905 C.3       1 RES1    0.0000
     36 H17       -2.4031   17.5990   11.1570 H         1 RES1    0.0000
     37 H18       -3.6080   17.1097   12.0331 H         1 RES1    0.0000
     38 H19       -3.1906   16.3057   10.7522 H         1 RES1    0.0000
     39 C20        2.7116   13.2912   12.4554 C.3       1 RES1    0.0000
     40 H20        2.9095   12.3626   12.6542 H         1 RES1    0.0000
     41 H21        2.1966   13.6465   13.1976 H         1 RES1    0.0000
     42 C21        2.6997   16.1976   11.9441 C.3       1 RES1    0.0000
     43 H22        2.1824   16.1153   12.7595 H         1 RES1    0.0000
     44 H23        2.8970   17.1380   11.8141 H         1 RES1    0.0000
     45 C22        4.0068   15.4404   12.1110 C.ar      1 RES1    0.0000
     46 C23        4.0228   14.0592   12.3608 C.ar      1 RES1    0.0000
     47 C24        5.2748   13.4497   12.5033 C.ar      1 RES1    0.0000
     48 C25        6.4542   14.1327   12.3808 C.ar      1 RES1    0.0000
     49 H24        7.2631   13.6811   12.4462 H         1 RES1    0.0000
     50 C26        6.4376   15.4780   12.1634 C.ar      1 RES1    0.0000
     51 H25        7.2383   15.9469   12.0913 H         1 RES1    0.0000
     52 C27        5.2178   16.1582   12.0464 C.ar      1 RES1    0.0000
     53 C28        6.3077   18.2756   11.8094 C.3       1 RES1    0.0000
     54 H26        6.8496   18.1120   12.5849 H         1 RES1    0.0000
     55 H27        6.0784   19.2071   11.7697 H         1 RES1    0.0000
     56 H28        6.7969   18.0317   11.0211 H         1 RES1    0.0000
     57 N1         3.2777   16.8863    5.5713 N.pl3     1 RES1    0.0000
     58 N2         1.5462   13.1254    9.0664 N.am      1 RES1    0.0000
     59 N3         1.1671   15.4705    8.7456 N.am      1 RES1    0.0000
     60 N4         1.8917   13.3463   11.2471 N.am      1 RES1    0.0000
     61 N5         1.8973   15.7273   10.8304 N.am      1 RES1    0.0000
     62 N6         5.4029   12.0260   12.8444 N.pl3     1 RES1    0.0000
     63 O1         3.4975   11.3767    6.1796 O.3       1 RES1    0.0000
     64 O2         4.2670   17.5172    5.5793 O.2       1 RES1    0.0000
     65 O3         2.2084   17.3190    5.2064 O.2       1 RES1    0.0000
     66 O4         3.1097   11.7810   10.0953 O.2       1 RES1    0.0000
     67 O5         2.6521   17.1750    9.2106 O.2       1 RES1    0.0000
     68 O6        -1.4514   14.6367    8.4637 O.2       1 RES1    0.0000
     69 O7        -1.0942   12.8609    9.7690 O.3       1 RES1    0.0000
     70 O8        -0.2548   14.0454   12.8463 O.2       1 RES1    0.0000
     71 O9        -0.8228   15.6753   11.4534 O.3       1 RES1    0.0000
     72 O10        5.1170   17.4958   11.8903 O.3       1 RES1    0.0000
     73 O11        4.6441   11.5639   13.6967 O.2       1 RES1    0.0000
     74 O12        6.3058   11.3907   12.3289 O.2       1 RES1    0.0000
@<TRIPOS>BOND
     1    1    2 1
     2    3    1 1
     3    4    1 1
     4    5    6 ar
     5    6    7 1
     6    8    6 ar
     7    9    8 1
     8   10    8 ar
     9   11   10 ar
    10   12    5 ar
    11   13   12 1
    12   14   13 1
    13   15   13 1
    14   16   11 1
    15   17   16 1
    16   18   16 1
    17   19   58 1
    18   20   59 1
    19   21   22 1
    20   22   68 2
    21   23   24 1
    22   25   23 1
    23   26   23 1
    24   27   26 1
    25   28   26 1
    26   29   26 1
    27   30   21 1
    28   31   30 1
    29   32   33 1
    30   34   32 1
    31   35   32 1
    32   36   35 1
    33   37   35 1
    34   38   35 1
    35   39   40 1
    36   41   39 1
    37   42   43 1
    38   44   42 1
    39   45   42 1
    40   46   39 1
    41   47   46 ar
    42   48   47 ar
    43   49   48 1
    44   50   48 ar
    45   51   50 1
    46   52   45 ar
    47   53   54 1
    48   55   53 1
    49   56   53 1
    50   57   10 1
    51   58   13 1
    52   59   16 1
    53   60   19 1
    54   61   20 1
    55   62   47 1
    56   63    1 1
    57   64   57 2
    58   65   57 2
    59   66   19 2
    60   67   20 2
    61   69   22 1
    62   70   31 2
    63   71   31 1
    64   72   52 1
    65   73   62 2
    66   74   62 2
    67    5   63 1
    68   11   12 ar
    69   21   58 1
    70   21   59 1
    71   23   69 1
    72   30   60 1
    73   30   61 1
    74   32   71 1
    75   39   60 1
    76   42   61 1
    77   45   46 ar
    78   50   52 ar
    79   53   72 1
@<TRIPOS>SUBSTRUCTURE
     1 RES1 1

@<TRIPOS>CRYSIN
  12.9697   15.7345   28.2990  90.0000 101.5490  90.0000  15 1

