# MOL2 file generated by ConQuest
# Please check atom types

@<TRIPOS>MOLECULE
KEKTIF
    22    23     1
SMALL
NO_CHARGES
****
Generated from CSD

@<TRIPOS>ATOM
      1 O1         4.1941    2.6860    1.8243 O.3       1 RES1    0.0000
      2 N1         3.3302    0.0073    2.0811 N.3       1 RES1    0.0000
      3 N2         2.7918    2.3641    1.7324 N.2       1 RES1    0.0000
      4 C1         5.5885    0.7620    1.4878 C.ar      1 RES1    0.0000
      5 C2         5.2483   -1.2556    2.7772 C.ar      1 RES1    0.0000
      6 C3         4.9988    1.9757    0.8565 C.3       1 RES1    0.0000
      7 C4         2.5098    1.0995    1.8736 C.2       1 RES1    0.0000
      8 C5         4.7246   -0.1383    2.1223 C.ar      1 RES1    0.0000
      9 C6         6.6102   -1.4904    2.7691 C.ar      1 RES1    0.0000
     10 C7         6.9543    0.5199    1.5127 C.ar      1 RES1    0.0000
     11 C8         7.4701   -0.6142    2.1294 C.ar      1 RES1    0.0000
     12 C9         1.0601    0.7494    1.8317 C.3       1 RES1    0.0000
     13 H1         6.9647   -2.2638    3.2240 H         1 RES1    0.0000
     14 H2         4.6630   -1.9390    3.2382 H         1 RES1    0.0000
     15 H3         2.7055   -0.7311    2.2415 H         1 RES1    0.0000
     16 H4         7.6492    1.1231    0.9869 H         1 RES1    0.0000
     17 H5         8.4419   -0.7665    2.1511 H         1 RES1    0.0000
     18 H6         5.6436    2.6008    0.6006 H         1 RES1    0.0000
     19 H7         4.5148    1.7323    0.0450 H         1 RES1    0.0000
     20 H8         0.7306    0.3844    2.7157 H         1 RES1    0.0000
     21 H9         0.5483    1.5348    1.6230 H         1 RES1    0.0000
     22 H10        0.8386    0.1681    1.0951 H         1 RES1    0.0000
@<TRIPOS>BOND
     1    1    3 1
     2    2    7 1
     3    3    7 2
     4    4    6 1
     5    5    8 ar
     6    6    1 1
     7    7   12 1
     8    8    2 1
     9    9    5 ar
    10   10    4 ar
    11   11    9 ar
    12   12   20 1
    13   13    9 1
    14   14    5 1
    15   15    2 1
    16   16   10 1
    17   17   11 1
    18   18    6 1
    19   19    6 1
    20   21   12 1
    21   22   12 1
    22    4    8 ar
    23   10   11 ar
@<TRIPOS>SUBSTRUCTURE
     1 RES1 1

@<TRIPOS>CRYSIN
   9.8615   10.4810   15.4180  90.0000  90.0000  90.0000  61 1

