# MOL2 file generated by ConQuest
# Please check atom types

@<TRIPOS>MOLECULE
KELCAF
    17    16     1
SMALL
NO_CHARGES
****
Generated from CSD

@<TRIPOS>ATOM
      1 O1         5.0721    2.5442    0.9504 O.3       1 RES1    0.0000
      2 N1         5.3905    3.8585    1.4723 N.3       1 RES1    0.0000
      3 C1         4.2673    4.2673    2.2964 C.3       1 RES1    0.0000
      4 C2         6.5955    3.6699    2.2745 C.3       1 RES1    0.0000
      5 H1         4.7879    2.7225    0.1684 H         1 RES1    0.0000
      6 H2         4.0454    3.6016    2.8873 H         1 RES1    0.0000
      7 H3         6.5204    3.0469    2.9294 H         1 RES1    0.0000
      8 H4         6.8874    4.5233    2.6937 H         1 RES1    0.0000
      9 H5         7.3312    3.2858    1.7172 H         1 RES1    0.0000
     10 N1B        3.1441    4.6761    1.4723 N.3       1 RES1    0.0000
     11 H2B        4.4892    4.9330    2.8873 H         1 RES1    0.0000
     12 O1B        3.4625    5.9904    0.9504 O.3       1 RES1    0.0000
     13 C2B        1.9391    4.8647    2.2745 C.3       1 RES1    0.0000
     14 H1B        3.7467    5.8121    0.1684 H         1 RES1    0.0000
     15 H3B        2.0142    5.4877    2.9294 H         1 RES1    0.0000
     16 H4B        1.6472    4.0113    2.6937 H         1 RES1    0.0000
     17 H5B        1.2034    5.2488    1.7172 H         1 RES1    0.0000
@<TRIPOS>BOND
     1    1    2 1
     2    2    3 1
     3    3    6 1
     4    4    2 1
     5    5    1 1
     6    7    4 1
     7    8    4 1
     8    9    4 1
     9   10    3 1
    10   11    3 1
    11   12   10 1
    12   13   10 1
    13   14   12 1
    14   15   13 1
    15   16   13 1
    16   17   13 1
@<TRIPOS>SUBSTRUCTURE
     1 RES1 1

@<TRIPOS>CRYSIN
   8.5346    8.5346    8.4178  90.0000  90.0000  90.0000 114 1

