# MOL2 file generated by ConQuest
# Please check atom types

@<TRIPOS>MOLECULE
KELJOD
    66    69     1
SMALL
NO_CHARGES
****
Generated from CSD

@<TRIPOS>ATOM
      1 O1         5.7298    5.4627    2.7849 O.2       1 RES1    0.0000
      2 O2         8.1840    1.5424    3.0811 O.2       1 RES1    0.0000
      3 O3         3.9297    4.4221    9.2785 O.2       1 RES1    0.0000
      4 O4         5.9076    7.2101    6.1586 O.2       1 RES1    0.0000
      5 N1         6.2332    0.7014    7.3786 N.pl3     1 RES1    0.0000
      6 N2         4.3233    5.4672    8.6557 N.3       1 RES1    0.0000
      7 N3         5.2439    6.7882    7.1480 N.pl3     1 RES1    0.0000
      8 N4         7.6156    2.6116    2.6380 N.pl3     1 RES1    0.0000
      9 N5         6.4672    4.4715    2.5057 N.3       1 RES1    0.0000
     10 C1         6.8569    3.4639    3.3215 C.2       1 RES1    0.0000
     11 C2         6.1174    1.9825    6.6903 C.ar      1 RES1    0.0000
     12 O5         6.6645   -2.6666    9.6099 O.2       1 RES1    0.0000
     13 C3         5.5472    4.3101    6.7510 C.ar      1 RES1    0.0000
     14 C4         6.4549    3.3282    4.7394 C.ar      1 RES1    0.0000
     15 C5         7.3612   -0.0518    7.2633 C.2       1 RES1    0.0000
     16 H1         8.0286    0.2222    6.6757 H         1 RES1    0.0000
     17 C6         5.0328    5.4893    7.4867 C.2       1 RES1    0.0000
     18 C7         5.6106    3.0677    7.3774 C.ar      1 RES1    0.0000
     19 H2         5.3131    2.9701    8.2539 H         1 RES1    0.0000
     20 C8         7.7360    1.9075    0.2744 C.3       1 RES1    0.0000
     21 H3         8.4157    1.2502    0.4419 H         1 RES1    0.0000
     22 H4         7.8079    2.2171   -0.6313 H         1 RES1    0.0000
     23 H5         6.8709    1.5141    0.4103 H         1 RES1    0.0000
     24 C9         5.2328    0.2903    8.1944 C.2       1 RES1    0.0000
     25 H6         4.4609    0.8043    8.2576 H         1 RES1    0.0000
     26 C10        6.5507    2.0985    5.3828 C.ar      1 RES1    0.0000
     27 H7         6.9022    1.3617    4.9373 H         1 RES1    0.0000
     28 C11        2.8293    6.9694    9.9025 C.3       1 RES1    0.0000
     29 H8         2.1613    6.6031    9.3186 H         1 RES1    0.0000
     30 H9         2.6410    7.8978   10.0615 H         1 RES1    0.0000
     31 H10        2.8204    6.4942   10.7365 H         1 RES1    0.0000
     32 C12        5.3120    6.9237   10.3031 C.3       1 RES1    0.0000
     33 H11        5.2401    6.1864   10.9126 H         1 RES1    0.0000
     34 H12        5.2308    7.7481   10.7875 H         1 RES1    0.0000
     35 H13        6.1651    6.8945    9.8637 H         1 RES1    0.0000
     36 C13        5.9458    4.4388    5.4241 C.ar      1 RES1    0.0000
     37 H14        5.8744    5.2593    4.9931 H         1 RES1    0.0000
     38 C14        5.5810    3.8036    0.3496 C.3       1 RES1    0.0000
     39 H15        5.1795    3.0644    0.8122 H         1 RES1    0.0000
     40 H16        5.7974    3.5402   -0.5475 H         1 RES1    0.0000
     41 H17        4.9654    4.5397    0.3278 H         1 RES1    0.0000
     42 C15        6.8629    4.2289    1.0805 C.3       1 RES1    0.0000
     43 C16        5.3270   -0.8226    8.9058 C.2       1 RES1    0.0000
     44 H18        4.5973   -1.0910    9.4169 H         1 RES1    0.0000
     45 C17        7.5396   -1.1743    7.9711 C.2       1 RES1    0.0000
     46 H19        8.3222   -1.6623    7.8582 H         1 RES1    0.0000
     47 C18        9.3747    3.5842    1.1849 C.3       1 RES1    0.0000
     48 H20        9.4577    4.3565    1.7494 H         1 RES1    0.0000
     49 H21        9.6074    3.8201    0.2841 H         1 RES1    0.0000
     50 H22        9.9647    2.8944    1.4968 H         1 RES1    0.0000
     51 C19        7.4061    5.4973    0.4917 C.3       1 RES1    0.0000
     52 H23        6.7304    6.1795    0.5196 H         1 RES1    0.0000
     53 H24        7.6670    5.3424   -0.4188 H         1 RES1    0.0000
     54 H25        8.1701    5.7842    0.9991 H         1 RES1    0.0000
     55 C20        6.5345   -1.6469    8.9168 C.2       1 RES1    0.0000
     56 C21        3.1401    7.9977    7.2524 C.3       1 RES1    0.0000
     57 H26        3.3352    8.5268    6.4754 H         1 RES1    0.0000
     58 H27        2.5190    8.4680    7.8120 H         1 RES1    0.0000
     59 H28        2.7566    7.1600    6.9804 H         1 RES1    0.0000
     60 C22        5.2055    8.9947    8.2636 C.3       1 RES1    0.0000
     61 H29        6.0875    8.7765    8.5744 H         1 RES1    0.0000
     62 H30        4.7572    9.5278    8.9240 H         1 RES1    0.0000
     63 H31        5.2683    9.4883    7.4430 H         1 RES1    0.0000
     64 C23        7.9156    3.0721    1.2225 C.3       1 RES1    0.0000
     65 C24        4.1955    6.8348    9.2567 C.3       1 RES1    0.0000
     66 C25        4.4334    7.7370    8.0305 C.3       1 RES1    0.0000
@<TRIPOS>BOND
     1    1    9 1
     2    2    8 1
     3    3    6 1
     4    4    7 1
     5    5   11 1
     6    6   17 1
     7    7   17 2
     8    8   10 2
     9    9   10 1
    10   10   14 1
    11   11   18 ar
    12   12   55 2
    13   13   17 1
    14   14   26 ar
    15   15    5 1
    16   16   15 1
    17   18   13 ar
    18   19   18 1
    19   20   21 1
    20   22   20 1
    21   23   20 1
    22   24    5 1
    23   25   24 1
    24   26   11 ar
    25   27   26 1
    26   28   29 1
    27   30   28 1
    28   31   28 1
    29   32   33 1
    30   34   32 1
    31   35   32 1
    32   36   13 ar
    33   37   36 1
    34   38   39 1
    35   40   38 1
    36   41   38 1
    37   42    9 1
    38   43   24 2
    39   44   43 1
    40   45   15 2
    41   46   45 1
    42   47   48 1
    43   49   47 1
    44   50   47 1
    45   51   42 1
    46   52   51 1
    47   53   51 1
    48   54   51 1
    49   55   43 1
    50   56   57 1
    51   58   56 1
    52   59   56 1
    53   60   61 1
    54   62   60 1
    55   63   60 1
    56   64    8 1
    57   65    6 1
    58   66    7 1
    59   14   36 ar
    60   20   64 1
    61   28   65 1
    62   32   65 1
    63   38   42 1
    64   42   64 1
    65   45   55 1
    66   47   64 1
    67   56   66 1
    68   60   66 1
    69   65   66 1
@<TRIPOS>SUBSTRUCTURE
     1 RES1 1

@<TRIPOS>CRYSIN
   7.7840   12.8960   13.7060  62.5220  88.1700  79.7800   2 1

