# MOL2 file generated by ConQuest
# Please check atom types

@<TRIPOS>MOLECULE
KEMDIP
    15    14     1
SMALL
NO_CHARGES
****
Generated from CSD

@<TRIPOS>ATOM
      1 O1         2.6339    0.2776    2.8503 O.2       1 RES1    0.0000
      2 O2         0.2877    0.9648    3.2802 O.3       1 RES1    0.0000
      3 O3         3.6998    3.1104    1.5614 O.2       1 RES1    0.0000
      4 O4         6.0455    2.3736    1.3067 O.3       1 RES1    0.0000
      5 O5         4.4064    4.1417    4.7470 O.3       1 RES1    0.0000
      6 N1         2.3786    1.3938    3.3720 N.pl3     1 RES1    0.0000
      7 N2         1.2361    1.8761    3.6530 N.2       1 RES1    0.0000
      8 N3         4.2713    2.4829    2.4915 N.pl3     1 RES1    0.0000
      9 N4         5.4548    2.0231    2.4934 N.2       1 RES1    0.0000
     10 C1         3.5248    2.2436    3.7504 C.3       1 RES1    0.0000
     11 C2        -1.0101    1.4710    3.6680 C.3       1 RES1    0.0000
     12 C3         7.3492    1.7555    1.2364 C.3       1 RES1    0.0000
     13 C4         3.1679    3.5538    4.4108 C.3       1 RES1    0.0000
     14 H1         4.0932    1.7336    4.2712 H         1 RES1    0.0000
     15 H2         4.2182    4.8112    5.0674 H         1 RES1    0.0000
@<TRIPOS>BOND
     1    1    6 1
     2    2    7 1
     3    3    8 1
     4    4    9 1
     5    5   13 1
     6    6    7 2
     7    8    9 2
     8   10    6 1
     9   11    2 1
    10   12    4 1
    11   13   10 1
    12   14   10 1
    13   15    5 1
    14    8   10 1
@<TRIPOS>SUBSTRUCTURE
     1 RES1 1

@<TRIPOS>CRYSIN
  14.9510    6.2810    9.4190  90.0000  96.0400  90.0000  14 1

