# MOL2 file generated by ConQuest
# Please check atom types

@<TRIPOS>MOLECULE
KEMFUE01
    45    46     1
SMALL
NO_CHARGES
****
Generated from CSD

@<TRIPOS>ATOM
      1 C1        -1.9529    3.7359    0.5775 C.2       1 RES1    0.0000
      2 C2        -3.2041    3.0551    0.1278 C.3       1 RES1    0.0000
      3 H1        -3.1953    3.0204   -0.8415 H         1 RES1    0.0000
      4 H2        -3.9593    3.6084    0.3894 H         1 RES1    0.0000
      5 C3        -3.4510    1.6643    0.6403 C.3       1 RES1    0.0000
      6 H3        -4.1282    1.2418    0.0888 H         1 RES1    0.0000
      7 H4        -2.6354    1.1476    0.5527 H         1 RES1    0.0000
      8 C4        -2.1394   -1.2107    3.8262 C.2       1 RES1    0.0000
      9 C5        -3.1810   -0.4959    3.0511 C.3       1 RES1    0.0000
     10 H5        -4.0477   -0.6767    3.4511 H         1 RES1    0.0000
     11 H6        -3.1965   -0.8491    2.1480 H         1 RES1    0.0000
     12 C6        -2.9774    1.0091    2.9860 C.3       1 RES1    0.0000
     13 H7        -3.1290    1.3928    3.8629 H         1 RES1    0.0000
     14 H8        -2.0610    1.1982    2.7315 H         1 RES1    0.0000
     15 C7        -5.2057    1.8520    2.3244 C.ar      1 RES1    0.0000
     16 C8        -6.1211    2.2565    1.3622 C.ar      1 RES1    0.0000
     17 H9        -5.8205    2.4130    0.4959 H         1 RES1    0.0000
     18 C9        -7.4423    2.4317    1.6391 C.ar      1 RES1    0.0000
     19 H10       -8.0310    2.7053    0.9740 H         1 RES1    0.0000
     20 C10       -7.9006    2.1962    2.9280 C.ar      1 RES1    0.0000
     21 C11       -7.0124    1.8402    3.9044 C.ar      1 RES1    0.0000
     22 H11       -7.3145    1.7114    4.7742 H         1 RES1    0.0000
     23 C12       -5.7099    1.6733    3.6274 C.ar      1 RES1    0.0000
     24 H12       -5.1285    1.4351    4.3115 H         1 RES1    0.0000
     25 C13      -11.4474    2.3749    2.7824 C.ar      1 RES1    0.0000
     26 C14      -11.9133    2.4186    4.0689 C.ar      1 RES1    0.0000
     27 H13      -11.3243    2.4788    4.7849 H         1 RES1    0.0000
     28 C15      -13.2974    2.3708    4.2902 C.ar      1 RES1    0.0000
     29 H14      -13.6444    2.4165    5.1518 H         1 RES1    0.0000
     30 C16      -14.1216    2.2558    3.2073 C.ar      1 RES1    0.0000
     31 C17      -13.5982    2.2316    1.9528 C.ar      1 RES1    0.0000
     32 H15      -14.1680    2.1616    1.2226 H         1 RES1    0.0000
     33 C18      -12.2667    2.3077    1.7445 C.ar      1 RES1    0.0000
     34 H16      -11.9254    2.3133    0.8793 H         1 RES1    0.0000
     35 N1        -3.8830    1.6283    2.0238 N.pl3     1 RES1    0.0000
     36 N2        -9.3104    2.2544    3.3623 N.2       1 RES1    0.0000
     37 N3        -9.9806    2.4033    2.3717 N.2       1 RES1    0.0000
     38 N4       -15.5579    2.1311    3.4085 N.pl3     1 RES1    0.0000
     39 O1        -1.8524    4.9749    0.3550 O.co2     1 RES1    0.0000
     40 O2        -1.0491    3.0696    1.1373 O.co2     1 RES1    0.0000
     41 O3        -1.3217   -0.6026    4.5316 O.2       1 RES1    0.0000
     42 O4        -2.1544   -2.4781    3.6866 O.3       1 RES1    0.0000
     43 H17       -1.5622   -2.8404    3.9860 H         1 RES1    0.0000
     44 O5       -16.2352    1.8527    2.4356 O.2       1 RES1    0.0000
     45 O6       -16.0095    2.3382    4.5186 O.2       1 RES1    0.0000
@<TRIPOS>BOND
     1    1    2 1
     2    2    3 1
     3    4    2 1
     4    5    2 1
     5    6    5 1
     6    7    5 1
     7    8    9 1
     8    9   10 1
     9   11    9 1
    10   12    9 1
    11   13   12 1
    12   14   12 1
    13   15   16 ar
    14   16   17 1
    15   18   16 ar
    16   19   18 1
    17   20   18 ar
    18   21   20 ar
    19   22   21 1
    20   23   15 ar
    21   24   23 1
    22   25   26 ar
    23   26   27 1
    24   28   26 ar
    25   29   28 1
    26   30   28 ar
    27   31   30 ar
    28   32   31 1
    29   33   25 ar
    30   34   33 1
    31   35    5 1
    32   36   20 1
    33   37   25 1
    34   38   30 1
    35   39    1 1
    36   40    1 2
    37   41    8 2
    38   42    8 1
    39   43   42 1
    40   44   38 2
    41   45   38 2
    42   12   35 1
    43   15   35 1
    44   21   23 ar
    45   31   33 ar
    46   36   37 2
@<TRIPOS>SUBSTRUCTURE
     1 RES1 1

@<TRIPOS>CRYSIN
  42.6800    6.9260   12.0800  90.0000 101.5600  90.0000  15 1

