# MOL2 file generated by ConQuest
# Please check atom types

@<TRIPOS>MOLECULE
KEMFUE
    48    47     2
SMALL
NO_CHARGES
****
Generated from CSD

@<TRIPOS>ATOM
      1 O1         0.1620   -0.6148    1.3896 O.2       1 RES1    0.0000
      2 O2         0.9361   -2.5328    2.2208 O.3       1 RES1    0.0000
      3 H1         0.3647   -2.9771    1.7694 H         1 RES1    0.0000
      4 O3        -0.0865    2.9853    4.7802 O.2       1 RES1    0.0000
      5 H2        -0.0055    5.4693    5.3375 H         1 RES1    0.0000
      6 O4         0.7225    4.9308    5.5432 O.3       1 RES1    0.0000
      7 O5        14.9624    2.3354    1.4049 O.2       1 RES1    0.0000
      8 O6        15.1953    1.7846    3.4940 O.2       1 RES1    0.0000
      9 N1         2.7610    1.6030    3.8738 N.pl3     1 RES1    0.0000
     10 N2         8.1790    2.2247    2.5300 N.2       1 RES1    0.0000
     11 N3         8.9334    2.3636    3.5152 N.2       1 RES1    0.0000
     12 N4        14.5101    2.1106    2.5206 N.pl3     1 RES1    0.0000
     13 C1         0.9684   -1.2619    2.0997 C.2       1 RES1    0.0000
     14 C2         2.0448   -0.5302    2.8451 C.3       1 RES1    0.0000
     15 H3         2.9150   -0.7070    2.4030 H         1 RES1    0.0000
     16 H4         2.0977   -0.8940    3.7644 H         1 RES1    0.0000
     17 C3         1.8363    0.9793    2.9274 C.3       1 RES1    0.0000
     18 H5         1.9672    1.3768    2.0303 H         1 RES1    0.0000
     19 H6         0.9059    1.1650    3.2084 H         1 RES1    0.0000
     20 C4         0.8274    3.6778    5.3328 C.2       1 RES1    0.0000
     21 C5         2.0892    3.0307    5.7948 C.3       1 RES1    0.0000
     22 H7         2.0803    2.9997    6.7835 H         1 RES1    0.0000
     23 H8         2.8520    3.6029    5.5232 H         1 RES1    0.0000
     24 C6         2.3398    1.6243    5.2751 C.3       1 RES1    0.0000
     25 H9         3.0420    1.1959    5.8289 H         1 RES1    0.0000
     26 H10        1.5125    1.0921    5.3704 H         1 RES1    0.0000
     27 C7         4.0753    1.8183    3.5540 C.ar      1 RES1    0.0000
     28 C8         4.9993    2.2618    4.5263 C.ar      1 RES1    0.0000
     29 H11        4.6962    2.4496    5.4068 H         1 RES1    0.0000
     30 C9         6.3302    2.4262    4.2182 C.ar      1 RES1    0.0000
     31 H12        6.9375    2.7123    4.8895 H         1 RES1    0.0000
     32 C10        6.7929    2.1759    2.9262 C.ar      1 RES1    0.0000
     33 C11        5.8916    1.8025    1.9504 C.ar      1 RES1    0.0000
     34 H13        6.1963    1.6752    1.0593 H         1 RES1    0.0000
     35 C12        4.5662    1.6120    2.2408 C.ar      1 RES1    0.0000
     36 H14        3.9682    1.3383    1.5530 H         1 RES1    0.0000
     37 C13       10.3419    2.3499    3.1543 C.ar      1 RES1    0.0000
     38 C14       11.2079    2.2784    4.2112 C.ar      1 RES1    0.0000
     39 H15       10.8674    2.2797    5.0964 H         1 RES1    0.0000
     40 C15       12.5619    2.2041    4.0125 C.ar      1 RES1    0.0000
     41 H16       13.1567    2.1394    4.7520 H         1 RES1    0.0000
     42 C16       13.0518    2.2240    2.7158 C.ar      1 RES1    0.0000
     43 C17       12.2204    2.3389    1.6224 C.ar      1 RES1    0.0000
     44 H17       12.5714    2.3739    0.7407 H         1 RES1    0.0000
     45 C18       10.8372    2.4028    1.8517 C.ar      1 RES1    0.0000
     46 H18       10.2367    2.4819    1.1192 H         1 RES1    0.0000
     47 H19       -0.5389   -0.8761    0.8183 Du        2 SUP2    0.0000
     48 H20       -0.8245    3.4908    4.3946 Du        2 SUP2    0.0000
@<TRIPOS>BOND
     1    1   13 2
     2    2    3 1
     3    4   20 2
     4    5    6 1
     5    6   20 1
     6    7   12 2
     7    8   12 2
     8    9   17 1
     9   10   11 2
    10   11   37 1
    11   12   42 1
    12   13    2 1
    13   14   13 1
    14   15   14 1
    15   16   14 1
    16   17   14 1
    17   18   17 1
    18   19   17 1
    19   20   21 1
    20   21   22 1
    21   23   21 1
    22   24    9 1
    23   25   24 1
    24   26   24 1
    25   27    9 1
    26   28   27 ar
    27   29   28 1
    28   30   28 ar
    29   31   30 1
    30   32   10 1
    31   33   32 ar
    32   34   33 1
    33   35   27 ar
    34   36   35 1
    35   37   38 ar
    36   38   39 1
    37   40   38 ar
    38   41   40 1
    39   42   40 ar
    40   43   42 ar
    41   44   43 1
    42   45   37 ar
    43   46   45 1
    44   21   24 1
    45   30   32 ar
    46   33   35 ar
    47   43   45 ar
@<TRIPOS>SUBSTRUCTURE
     1 RES1 1
     2 SUP2 47

@<TRIPOS>CRYSIN
  43.0620    6.8770   11.9790  90.0000 101.0600  90.0000  15 1

