# MOL2 file generated by ConQuest
# Please check atom types

@<TRIPOS>MOLECULE
KEMJUK
   110   118     2
SMALL
NO_CHARGES
****
Generated from CSD

@<TRIPOS>ATOM
      1 O1         2.7417   10.2383   16.8968 O.2       1 RES1    0.0000
      2 O2         2.7429    6.6238   15.1486 O.3       1 RES1    0.0000
      3 N1         3.0977   11.3815   14.9988 N.am      1 RES1    0.0000
      4 N2         2.7284   10.8661   12.6656 N.ar      1 RES1    0.0000
      5 N3         4.0946    7.0991   14.8214 N.3       1 RES1    0.0000
      6 C1         3.2702   11.6168   13.6178 C.ar      1 RES1    0.0000
      7 C2         2.8033   10.2228   15.6683 C.2       1 RES1    0.0000
      8 C3         5.0758    9.2020   14.0274 C.ar      1 RES1    0.0000
      9 C4         4.0524   12.7532   13.4252 C.ar      1 RES1    0.0000
     10 C5         4.3631   13.1023   12.1345 C.ar      1 RES1    0.0000
     11 H1         4.9275   13.8447   11.9506 H         1 RES1    0.0000
     12 C6         5.1578    4.8462   14.6002 C.ar      1 RES1    0.0000
     13 C7         2.5863    8.9418   14.8836 C.3       1 RES1    0.0000
     14 H2         1.8416    9.0916   14.2317 H         1 RES1    0.0000
     15 C8         3.0188   11.2571   11.4102 C.ar      1 RES1    0.0000
     16 H3         2.6449   10.7614   10.6910 H         1 RES1    0.0000
     17 C9         3.8190    8.3741   14.1036 C.3       1 RES1    0.0000
     18 H4         3.5286    8.1553   13.1722 H         1 RES1    0.0000
     19 C10        6.8011   10.5399   15.0661 C.ar      1 RES1    0.0000
     20 H5         7.1969   10.9001   15.8502 H         1 RES1    0.0000
     21 C11        6.7496   10.3214   12.6874 C.ar      1 RES1    0.0000
     22 H6         7.1180   10.5174   11.8333 H         1 RES1    0.0000
     23 C12        5.6965    9.7095   15.1669 C.ar      1 RES1    0.0000
     24 H7         5.3569    9.4835   16.0262 H         1 RES1    0.0000
     25 C13        2.1960    7.7768   15.8122 C.3       1 RES1    0.0000
     26 H8         2.6441    7.8945   16.6991 H         1 RES1    0.0000
     27 C14        7.3304   10.8449   13.8252 C.ar      1 RES1    0.0000
     28 H9         8.0892   11.4125   13.7554 H         1 RES1    0.0000
     29 C15        4.6488    6.1035   13.9187 C.3       1 RES1    0.0000
     30 H10        5.3951    6.5145   13.4138 H         1 RES1    0.0000
     31 H11        3.9509    5.8481   13.2654 H         1 RES1    0.0000
     32 C16        5.6317    9.5115   12.7868 C.ar      1 RES1    0.0000
     33 H12        5.2367    9.1617   11.9955 H         1 RES1    0.0000
     34 C17        3.6628   12.5133   15.7687 C.3       1 RES1    0.0000
     35 H13        4.2741   12.1856   16.4748 H         1 RES1    0.0000
     36 H14        2.9407   13.0426   16.1918 H         1 RES1    0.0000
     37 C18        4.4240   13.3617   14.7441 C.3       1 RES1    0.0000
     38 H15        4.1422   14.3098   14.7907 H         1 RES1    0.0000
     39 H16        5.4006   13.3080   14.8943 H         1 RES1    0.0000
     40 C19        3.8276   12.3369   11.1017 C.ar      1 RES1    0.0000
     41 H17        4.0157   12.5531   10.1975 H         1 RES1    0.0000
     42 C20        5.8947    3.9331   13.8469 C.ar      1 RES1    0.0000
     43 H18        6.0618    4.1081   12.9272 H         1 RES1    0.0000
     44 C21        6.1531    2.5256   15.7601 C.ar      1 RES1    0.0000
     45 H19        6.4982    1.7369   16.1608 H         1 RES1    0.0000
     46 C22        6.3850    2.7761   14.4242 C.ar      1 RES1    0.0000
     47 H20        6.8792    2.1562   13.9004 H         1 RES1    0.0000
     48 C23        4.9228    4.5732   15.9302 C.ar      1 RES1    0.0000
     49 H21        4.4138    5.1817   16.4541 H         1 RES1    0.0000
     50 C24        0.7229    7.5583   16.0227 C.3       1 RES1    0.0000
     51 H22        0.3380    8.3383   16.4748 H         1 RES1    0.0000
     52 H23        0.2842    7.4340   15.1565 H         1 RES1    0.0000
     53 H24        0.5871    6.7600   16.5749 H         1 RES1    0.0000
     54 C25        5.4232    3.4180   16.5131 C.ar      1 RES1    0.0000
     55 H25        5.2624    3.2420   17.4341 H         1 RES1    0.0000
     56 O3         8.8355    8.0831    5.4321 O.3       2 RES2    0.0000
     57 O4         8.8417    9.2987    9.2799 O.2       2 RES2    0.0000
     58 N4         9.6802    5.1178    9.1315 N.ar      2 RES2    0.0000
     59 N5         7.5872    7.4806    5.9235 N.3       2 RES2    0.0000
     60 N6         9.0759    7.2322   10.1175 N.am      2 RES2    0.0000
     61 C26        9.2641    5.8386   10.1616 C.ar      2 RES2    0.0000
     62 C27        6.6067    7.4139    3.6659 C.ar      2 RES2    0.0000
     63 C28        9.0275    8.1036    9.0653 C.2       2 RES2    0.0000
     64 C29        8.0423    6.6933    7.1051 C.3       2 RES2    0.0000
     65 H26        8.4053    5.8145    6.7949 H         2 RES2    0.0000
     66 C30        9.3554    8.6837    6.6258 C.3       2 RES2    0.0000
     67 H27        8.7941    9.4682    6.8881 H         2 RES2    0.0000
     68 C31        7.0173    7.1459    2.3563 C.ar      2 RES2    0.0000
     69 H28        7.6590    6.4657    2.1913 H         2 RES2    0.0000
     70 C32        6.8885    6.4451    8.0441 C.ar      2 RES2    0.0000
     71 C33        8.9596    5.3638   11.4337 C.ar      2 RES2    0.0000
     72 C34        5.6738    8.4191    3.8661 C.ar      2 RES2    0.0000
     73 H29        5.3764    8.6082    4.7485 H         2 RES2    0.0000
     74 C35        6.4904    7.8730    1.2979 C.ar      2 RES2    0.0000
     75 H30        6.7644    7.6780    0.4107 H         2 RES2    0.0000
     76 C36        9.2164    7.5625    7.6638 C.3       2 RES2    0.0000
     77 H31       10.0518    7.0131    7.6473 H         2 RES2    0.0000
     78 C37        9.7785    3.7905    9.3893 C.ar      2 RES2    0.0000
     79 H32       10.0642    3.2222    8.6826 H         2 RES2    0.0000
     80 C38        9.0798    4.0140   11.6566 C.ar      2 RES2    0.0000
     81 H33        8.8854    3.6400   12.5062 H         2 RES2    0.0000
     82 C39        7.1352    6.6276    4.8351 C.3       2 RES2    0.0000
     83 H34        6.4225    6.0265    5.1695 H         2 RES2    0.0000
     84 H35        7.8893    6.0631    4.5311 H         2 RES2    0.0000
     85 C40        8.5388    6.4850   12.3271 C.3       2 RES2    0.0000
     86 H36        9.1337    6.5495   13.1170 H         2 RES2    0.0000
     87 H37        7.6067    6.3604   12.6373 H         2 RES2    0.0000
     88 C41        6.6200    5.1594    8.4972 C.ar      2 RES2    0.0000
     89 H38        7.1102    4.4268    8.1442 H         2 RES2    0.0000
     90 C42        6.1188    7.4930    8.5266 C.ar      2 RES2    0.0000
     91 H39        6.2710    8.3749    8.2063 H         2 RES2    0.0000
     92 C43        8.6606    7.7329   11.4471 C.3       2 RES2    0.0000
     93 H40        7.7925    8.2041   11.3881 H         2 RES2    0.0000
     94 H41        9.3375    8.3550   11.8126 H         2 RES2    0.0000
     95 C44        5.1672    9.1533    2.8115 C.ar      2 RES2    0.0000
     96 H42        4.5403    9.8479    2.9747 H         2 RES2    0.0000
     97 C45        9.4944    3.2115   10.5975 C.ar      2 RES2    0.0000
     98 H43        9.5795    2.2721   10.7117 H         2 RES2    0.0000
     99 C46        5.5731    8.8747    1.5246 C.ar      2 RES2    0.0000
    100 H44        5.2210    9.3722    0.7972 H         2 RES2    0.0000
    101 C47       10.7700    9.1198    6.3791 C.3       2 RES2    0.0000
    102 H45       11.1314    9.5307    7.1918 H         2 RES2    0.0000
    103 H46       11.3141    8.3413    6.1358 H         2 RES2    0.0000
    104 H47       10.7879    9.7717    5.6457 H         2 RES2    0.0000
    105 C48        5.1281    7.2632    9.4725 C.ar      2 RES2    0.0000
    106 H48        4.5973    7.9830    9.7938 H         2 RES2    0.0000
    107 C49        5.6606    4.9331    9.4459 C.ar      2 RES2    0.0000
    108 H49        5.5060    4.0487    9.7593 H         2 RES2    0.0000
    109 C50        4.9174    5.9792    9.9470 C.ar      2 RES2    0.0000
    110 H50        4.2616    5.8206   10.6151 H         2 RES2    0.0000
@<TRIPOS>BOND
     1    1    7 2
     2    2    5 1
     3    3    6 1
     4    4    6 ar
     5    5   17 1
     6    6    9 ar
     7    7    3 1
     8    8   17 1
     9    9   10 ar
    10   10   11 1
    11   12   29 1
    12   13    7 1
    13   14   13 1
    14   15    4 ar
    15   16   15 1
    16   17   13 1
    17   18   17 1
    18   19   20 1
    19   21   22 1
    20   23    8 ar
    21   24   23 1
    22   25    2 1
    23   26   25 1
    24   27   19 ar
    25   28   27 1
    26   29    5 1
    27   30   29 1
    28   31   29 1
    29   32    8 ar
    30   33   32 1
    31   34    3 1
    32   35   34 1
    33   36   34 1
    34   37    9 1
    35   38   37 1
    36   39   37 1
    37   40   10 ar
    38   41   40 1
    39   42   12 ar
    40   43   42 1
    41   44   45 1
    42   46   42 ar
    43   47   46 1
    44   48   12 ar
    45   49   48 1
    46   50   25 1
    47   51   50 1
    48   52   50 1
    49   53   50 1
    50   54   44 ar
    51   55   54 1
    52   56   59 1
    53   57   63 2
    54   58   61 ar
    55   59   64 1
    56   60   61 1
    57   61   71 ar
    58   62   68 ar
    59   63   60 1
    60   64   65 1
    61   66   56 1
    62   67   66 1
    63   68   69 1
    64   70   64 1
    65   71   80 ar
    66   72   62 ar
    67   73   72 1
    68   74   68 ar
    69   75   74 1
    70   76   63 1
    71   77   76 1
    72   78   58 ar
    73   79   78 1
    74   80   81 1
    75   82   59 1
    76   83   82 1
    77   84   82 1
    78   85   71 1
    79   86   85 1
    80   87   85 1
    81   88   70 ar
    82   89   88 1
    83   90   70 ar
    84   91   90 1
    85   92   60 1
    86   93   92 1
    87   94   92 1
    88   95   72 ar
    89   96   95 1
    90   97   78 ar
    91   98   97 1
    92   99   74 ar
    93  100   99 1
    94  101   66 1
    95  102  101 1
    96  103  101 1
    97  104  101 1
    98  105   90 ar
    99  106  105 1
   100  107   88 ar
   101  108  107 1
   102  109  105 ar
   103  110  109 1
   104   13   25 1
   105   15   40 ar
   106   19   23 ar
   107   21   27 ar
   108   21   32 ar
   109   34   37 1
   110   44   46 ar
   111   48   54 ar
   112   62   82 1
   113   64   76 1
   114   66   76 1
   115   80   97 ar
   116   85   92 1
   117   95   99 ar
   118  107  109 ar
@<TRIPOS>SUBSTRUCTURE
     1 RES1 1
     2 RES2 56

@<TRIPOS>CRYSIN
   7.8066   15.2492   34.5094  90.0000  90.0000  90.0000  19 1

