# MOL2 file generated by ConQuest
# Please check atom types

@<TRIPOS>MOLECULE
KEMLOG
   112   116     2
SMALL
NO_CHARGES
****
Generated from CSD

@<TRIPOS>ATOM
      1 O1         0.4289    2.6053   11.6063 O.2       1 RES1    0.0000
      2 O2        -4.9054    6.0554   14.8453 O.2       1 RES1    0.0000
      3 O3        -4.2476    4.6273   16.3207 O.2       1 RES1    0.0000
      4 O4         3.6565    2.0693   11.0290 O.2       1 RES1    0.0000
      5 O5         2.9348    2.9061   12.9912 O.3       1 RES1    0.0000
      6 N1         1.3284    4.6669   11.7788 N.am      1 RES1    0.0000
      7 N2        -4.1187    5.2131   15.2543 N.pl3     1 RES1    0.0000
      8 C1         2.5460    4.2343   11.0720 C.3       1 RES1    0.0000
      9 C2         3.5347    5.3705   11.4215 C.3       1 RES1    0.0000
     10 H1         3.9874    5.1985   12.2848 H         1 RES1    0.0000
     11 H2         4.2171    5.4820   10.7112 H         1 RES1    0.0000
     12 C3         2.6255    6.5912   11.5080 C.3       1 RES1    0.0000
     13 H3         3.0664    7.3292   11.9979 H         1 RES1    0.0000
     14 H4         2.3702    6.9091   10.6069 H         1 RES1    0.0000
     15 C4         1.4119    6.0755   12.2709 C.3       1 RES1    0.0000
     16 H5         0.5950    6.5818   11.9936 H         1 RES1    0.0000
     17 C5         0.3543    3.7690   12.0092 C.2       1 RES1    0.0000
     18 C6        -0.8316    4.2056   12.8204 C.ar      1 RES1    0.0000
     19 C7        -1.7163    5.1912   12.4096 C.ar      1 RES1    0.0000
     20 H6        -1.5730    5.6447   11.5850 H         1 RES1    0.0000
     21 C8        -2.8091    5.5175   13.1960 C.ar      1 RES1    0.0000
     22 H7        -3.4365    6.1721   12.9108 H         1 RES1    0.0000
     23 C9        -2.9652    4.8681   14.4054 C.ar      1 RES1    0.0000
     24 C10       -2.1041    3.8913   14.8427 C.ar      1 RES1    0.0000
     25 H8        -2.2338    3.4681   15.6843 H         1 RES1    0.0000
     26 C11       -1.0467    3.5390   14.0289 C.ar      1 RES1    0.0000
     27 H9        -0.4615    2.8385   14.2932 H         1 RES1    0.0000
     28 C12        3.0830    2.9174   11.6667 C.2       1 RES1    0.0000
     29 C13        3.4248    1.7625   13.7933 C.3       1 RES1    0.0000
     30 C14        2.8023    0.4660   13.3082 C.3       1 RES1    0.0000
     31 H10        1.8361    0.5879   13.1977 H         1 RES1    0.0000
     32 H11        2.9692   -0.2429   13.9672 H         1 RES1    0.0000
     33 H12        3.1999    0.2137   12.4500 H         1 RES1    0.0000
     34 C15        4.9378    1.7460   13.7659 C.3       1 RES1    0.0000
     35 H13        5.2461    1.5886   12.8500 H         1 RES1    0.0000
     36 H14        5.2677    1.0299   14.3497 H         1 RES1    0.0000
     37 H15        5.2795    2.6081   14.0802 H         1 RES1    0.0000
     38 C16        2.9240    2.1203   15.1796 C.3       1 RES1    0.0000
     39 H16        3.3060    2.9803   15.4539 H         1 RES1    0.0000
     40 H17        3.1960    1.4250   15.8147 H         1 RES1    0.0000
     41 H18        1.9461    2.1859   15.1670 H         1 RES1    0.0000
     42 C17        2.3300    4.1291    9.5531 C.ar      1 RES1    0.0000
     43 C18        3.3855    3.7464    8.7289 C.ar      1 RES1    0.0000
     44 H19        4.2299    3.5379    9.1115 H         1 RES1    0.0000
     45 C19        3.2146    3.6662    7.3561 C.ar      1 RES1    0.0000
     46 H20        3.9393    3.3920    6.8075 H         1 RES1    0.0000
     47 C20        2.0060    3.9799    6.7836 C.ar      1 RES1    0.0000
     48 H21        1.8881    3.9132    5.8425 H         1 RES1    0.0000
     49 C21        0.9593    4.3958    7.5930 C.ar      1 RES1    0.0000
     50 H22        0.1267    4.6346    7.2031 H         1 RES1    0.0000
     51 C22        1.1242    4.4646    8.9685 C.ar      1 RES1    0.0000
     52 H23        0.3996    4.7461    9.5158 H         1 RES1    0.0000
     53 C23        1.5788    6.1575   13.7850 C.3       1 RES1    0.0000
     54 H24        0.7934    5.7687   14.2236 H         1 RES1    0.0000
     55 H25        1.6711    7.0957   14.0541 H         1 RES1    0.0000
     56 H26        2.3810    5.6613   14.0541 H         1 RES1    0.0000
     57 O6         8.4086    2.0194    0.6364 O.2       2 RES2    0.0000
     58 O7        11.4741    7.6517    3.7102 O.2       2 RES2    0.0000
     59 O8        10.1123    6.9144    5.2156 O.2       2 RES2    0.0000
     60 O9         7.9613   -1.2157    0.2578 O.2       2 RES2    0.0000
     61 O10        8.7994   -0.3613    2.1714 O.3       2 RES2    0.0000
     62 N3        10.4951    1.1985    0.8920 N.am      2 RES2    0.0000
     63 N4        10.6818    6.8191    4.1332 N.pl3     2 RES2    0.0000
     64 C24       10.1049   -0.0610    0.2317 C.3       2 RES2    0.0000
     65 C25       11.2768   -1.0038    0.6060 C.3       2 RES2    0.0000
     66 H27       11.0941   -1.4802    1.4563 H         2 RES2    0.0000
     67 H28       11.4427   -1.6679   -0.1087 H         2 RES2    0.0000
     68 C26       12.4521   -0.0552    0.7542 C.3       2 RES2    0.0000
     69 H29       12.8075    0.2116   -0.1304 H         2 RES2    0.0000
     70 H30       13.1796   -0.4712    1.2824 H         2 RES2    0.0000
     71 C27       11.8581    1.1448    1.4910 C.3       2 RES2    0.0000
     72 H31       12.3667    1.9743    1.2563 H         2 RES2    0.0000
     73 C28        9.5565    2.1482    1.0685 C.2       2 RES2    0.0000
     74 C29        9.9079    3.3847    1.8401 C.ar      2 RES2    0.0000
     75 C30       10.9390    4.2372    1.4754 C.ar      2 RES2    0.0000
     76 H32       11.4820    4.0300    0.7260 H         2 RES2    0.0000
     77 C31       11.1776    5.3932    2.2061 C.ar      2 RES2    0.0000
     78 H33       11.8649    5.9970    1.9518 H         2 RES2    0.0000
     79 C32       10.3852    5.6429    3.3146 C.ar      2 RES2    0.0000
     80 C33        9.3366    4.8243    3.6842 C.ar      2 RES2    0.0000
     81 H34        8.8044    5.0265    4.4427 H         2 RES2    0.0000
     82 C34        9.0823    3.7037    2.9191 C.ar      2 RES2    0.0000
     83 H35        8.3410    3.1470    3.1299 H         2 RES2    0.0000
     84 C35        8.8014   -0.5983    0.8607 C.2       2 RES2    0.0000
     85 C36        7.6272   -0.6890    3.0134 C.3       2 RES2    0.0000
     86 C37        6.3939   -0.0021    2.4722 C.3       2 RES2    0.0000
     87 H36        6.5942    0.9413    2.2996 H         2 RES2    0.0000
     88 H37        5.6683   -0.0678    3.1299 H         2 RES2    0.0000
     89 H38        6.1190   -0.4347    1.6388 H         2 RES2    0.0000
     90 C38        7.4799   -2.1911    3.0986 C.3       2 RES2    0.0000
     91 H39        7.3159   -2.5549    2.2040 H         2 RES2    0.0000
     92 H40        6.7268   -2.4132    3.6863 H         2 RES2    0.0000
     93 H41        8.3027   -2.5800    3.4646 H         2 RES2    0.0000
     94 C39        8.0248   -0.1063    4.3588 C.3       2 RES2    0.0000
     95 H42        8.8280   -0.5619    4.6862 H         2 RES2    0.0000
     96 H43        7.2923   -0.2335    4.9991 H         2 RES2    0.0000
     97 H44        8.2094    0.8506    4.2601 H         2 RES2    0.0000
     98 C40        9.9699    0.0969   -1.2898 C.ar      2 RES2    0.0000
     99 C41        9.6665   -1.0174   -2.0688 C.ar      2 RES2    0.0000
    100 H45        9.5448   -1.8628   -1.6519 H         2 RES2    0.0000
    101 C42        9.5418   -0.9059   -3.4472 C.ar      2 RES2    0.0000
    102 H46        9.3307   -1.6720   -3.9689 H         2 RES2    0.0000
    103 C43        9.7225    0.3106   -4.0610 C.ar      2 RES2    0.0000
    104 H47        9.6263    0.3878   -5.0035 H         2 RES2    0.0000
    105 C44       10.0445    1.4156   -3.3042 C.ar      2 RES2    0.0000
    106 H48       10.1781    2.2547   -3.7298 H         2 RES2    0.0000
    107 C45       10.1741    1.3145   -1.9249 C.ar      2 RES2    0.0000
    108 H49       10.4039    2.0817   -1.4128 H         2 RES2    0.0000
    109 C46       11.8227    0.9621    3.0056 C.3       2 RES2    0.0000
    110 H50       11.3504    1.7168    3.4168 H         2 RES2    0.0000
    111 H51       12.7398    0.9246    3.3516 H         2 RES2    0.0000
    112 H52       11.3573    0.1282    3.2255 H         2 RES2    0.0000
@<TRIPOS>BOND
     1    1   17 2
     2    2    7 2
     3    3    7 2
     4    4   28 2
     5    5   28 1
     6    6    8 1
     7    7   23 1
     8    8    9 1
     9    9   10 1
    10   11    9 1
    11   12    9 1
    12   13   12 1
    13   14   12 1
    14   15    6 1
    15   16   15 1
    16   17    6 1
    17   18   17 1
    18   19   18 ar
    19   20   19 1
    20   21   19 ar
    21   22   21 1
    22   23   21 ar
    23   24   23 ar
    24   25   24 1
    25   26   18 ar
    26   27   26 1
    27   28    8 1
    28   29    5 1
    29   30   29 1
    30   31   30 1
    31   32   30 1
    32   33   30 1
    33   34   29 1
    34   35   34 1
    35   36   34 1
    36   37   34 1
    37   38   29 1
    38   39   38 1
    39   40   38 1
    40   41   38 1
    41   42    8 1
    42   43   42 ar
    43   44   43 1
    44   45   43 ar
    45   46   45 1
    46   47   45 ar
    47   48   47 1
    48   49   47 ar
    49   50   49 1
    50   51   42 ar
    51   52   51 1
    52   53   15 1
    53   54   53 1
    54   55   53 1
    55   56   53 1
    56   57   73 2
    57   58   63 2
    58   59   63 2
    59   60   84 2
    60   61   84 1
    61   62   64 1
    62   63   79 1
    63   64   65 1
    64   65   66 1
    65   67   65 1
    66   68   65 1
    67   69   68 1
    68   70   68 1
    69   71   62 1
    70   72   71 1
    71   73   62 1
    72   74   73 1
    73   75   74 ar
    74   76   75 1
    75   77   75 ar
    76   78   77 1
    77   79   77 ar
    78   80   79 ar
    79   81   80 1
    80   82   74 ar
    81   83   82 1
    82   84   64 1
    83   85   61 1
    84   86   85 1
    85   87   86 1
    86   88   86 1
    87   89   86 1
    88   90   85 1
    89   91   90 1
    90   92   90 1
    91   93   90 1
    92   94   85 1
    93   95   94 1
    94   96   94 1
    95   97   94 1
    96   98   64 1
    97   99   98 ar
    98  100   99 1
    99  101   99 ar
   100  102  101 1
   101  103  101 ar
   102  104  103 1
   103  105  103 ar
   104  106  105 1
   105  107   98 ar
   106  108  107 1
   107  109   71 1
   108  110  109 1
   109  111  109 1
   110  112  109 1
   111   12   15 1
   112   24   26 ar
   113   49   51 ar
   114   68   71 1
   115   80   82 ar
   116  105  107 ar
@<TRIPOS>SUBSTRUCTURE
     1 RES1 1
     2 RES2 57

@<TRIPOS>CRYSIN
   9.8187   10.4241   43.4708  90.0000  90.0000  90.0000  19 1

