# MOL2 file generated by ConQuest
# Please check atom types

@<TRIPOS>MOLECULE
KEMREZ
    30    31     1
SMALL
NO_CHARGES
****
Generated from CSD

@<TRIPOS>ATOM
      1 C1        -0.6460    1.4266   10.2257 C.ar      1 RES1    0.0000
      2 C2         0.6025    1.9212    9.9360 C.ar      1 RES1    0.0000
      3 C3         1.3698    1.2778    9.0112 C.ar      1 RES1    0.0000
      4 C4         0.9491    0.1738    8.3784 C.ar      1 RES1    0.0000
      5 C5        -0.2922   -0.3280    8.6670 C.ar      1 RES1    0.0000
      6 C6        -1.1265    0.3065    9.5973 C.ar      1 RES1    0.0000
      7 C7         1.9656   -0.3835    7.3099 C.2       1 RES1    0.0000
      8 C8         2.4729   -2.2797    5.8872 C.ar      1 RES1    0.0000
      9 C9         3.7354   -1.9177    5.4571 C.ar      1 RES1    0.0000
     10 C10        4.3409   -2.6453    4.4577 C.ar      1 RES1    0.0000
     11 C11        3.6917   -3.6991    3.9185 C.ar      1 RES1    0.0000
     12 C12        2.4470   -4.0880    4.3407 C.ar      1 RES1    0.0000
     13 C13        1.8412   -3.3622    5.3212 C.ar      1 RES1    0.0000
     14 N1        -1.4867    2.1023   11.2195 N.pl3     1 RES1    0.0000
     15 N2         1.7161   -1.6201    6.9222 N.am      1 RES1    0.0000
     16 N3         4.3826   -4.4267    2.8244 N.pl3     1 RES1    0.0000
     17 O1        -1.0187    3.0736   11.7855 O.2       1 RES1    0.0000
     18 O2        -2.5876    1.6685   11.4468 O.2       1 RES1    0.0000
     19 O3         2.8727    0.2850    6.9211 O.2       1 RES1    0.0000
     20 O4         5.4533   -3.9930    2.4166 O.2       1 RES1    0.0000
     21 O5         3.8577   -5.4178    2.3899 O.2       1 RES1    0.0000
     22 H1         0.8132    2.5969   10.2858 H         1 RES1    0.0000
     23 H2         2.0959    1.7044    8.7316 H         1 RES1    0.0000
     24 H3        -0.6800   -1.0735    8.2792 H         1 RES1    0.0000
     25 H4        -1.9377    0.0538    9.8290 H         1 RES1    0.0000
     26 H5         4.1492   -1.0825    5.6744 H         1 RES1    0.0000
     27 H6         5.1292   -2.3765    4.1535 H         1 RES1    0.0000
     28 H7         2.0586   -4.7493    3.9530 H         1 RES1    0.0000
     29 H8         1.0193   -3.6686    5.5551 H         1 RES1    0.0000
     30 H9         1.1964   -2.4033    7.5673 H         1 RES1    0.0000
@<TRIPOS>BOND
     1    1    2 ar
     2    2    3 ar
     3    3    4 ar
     4    4    5 ar
     5    5    6 ar
     6    6    1 ar
     7    7    4 1
     8    8    9 ar
     9    9   10 ar
    10   10   11 ar
    11   11   12 ar
    12   12   13 ar
    13   13    8 ar
    14   14    1 1
    15   15    7 1
    16   16   11 1
    17   17   14 2
    18   18   14 2
    19   19    7 2
    20   20   16 2
    21   21   16 2
    22   22    2 1
    23   23    3 1
    24   24    5 1
    25   25    6 1
    26   26    9 1
    27   27   10 1
    28   28   12 1
    29   29   13 1
    30   30   15 1
    31    8   15 1
@<TRIPOS>SUBSTRUCTURE
     1 RES1 1

@<TRIPOS>CRYSIN
   6.2300   17.9220   11.5620  90.0000 105.5000  90.0000 231 1

