# MOL2 file generated by ConQuest
# Please check atom types

@<TRIPOS>MOLECULE
KEMSUR
    41    29     2
SMALL
USER_CHARGES
****
Generated from CSD

@<TRIPOS>ATOM
      1 C1         2.7240    0.8682   -1.3016 C.2       1 RES1    0.0000
      2 H1         3.4855    0.4140   -0.9614 H         1 RES1    0.0000
      3 O1         2.6411    1.0495   -2.6575 O.3       1 RES1    0.0000
      4 C2         1.3650    1.5360   -3.1618 C.3       1 RES1    0.0000
      5 H2         0.7071    0.7967   -3.1748 H         1 RES1    0.0000
      6 H3         1.4756    1.8684   -4.0890 H         1 RES1    0.0000
      7 C3         0.8660    2.6459   -2.2793 C.3       1 RES1    0.0000
      8 H4         0.0112    2.9954   -2.6362 H         1 RES1    0.0000
      9 H5         1.5230    3.3862   -2.2724 H         1 RES1    0.0000
     10 C4         0.6545    2.1332   -0.8551 C.3       1 RES1    0.0000
     11 H6         0.5629    2.9007   -0.2362 H         1 RES1    0.0000
     12 H7        -0.1796    1.6025   -0.8126 H         1 RES1    0.0000
     13 C5         1.8131    1.2832   -0.4323 C.2       1 RES1    0.0000
     14 C6         1.2752    1.3959    1.9387 C.2       1 RES1    0.0000
     15 H8         0.7175    2.1433    1.7031 H         1 RES1    0.0000
     16 C7         1.2836    1.0108    3.3335 C.ar      1 RES1    0.0000
     17 C8         1.9950   -0.0652    3.8778 C.ar      1 RES1    0.0000
     18 H9         2.5928   -0.5620    3.2929 H         1 RES1    0.0000
     19 C9         1.8483   -0.3878    5.2164 C.ar      1 RES1    0.0000
     20 H10        2.3631   -1.1593    5.5819 H         1 RES1    0.0000
     21 C10        1.0105    0.3386    6.0392 C.ar      1 RES1    0.0000
     22 H11        0.9126    0.1239    6.9543 H         1 RES1    0.0000
     23 C11        0.3208    1.4156    5.5216 C.ar      1 RES1    0.0000
     24 H12       -0.2547    1.9308    6.0968 H         1 RES1    0.0000
     25 C12        0.4548    1.7490    4.1917 C.ar      1 RES1    0.0000
     26 H13       -0.0389    2.5009    3.8150 H         1 RES1    0.0000
     27 N1         1.9401    0.8403    0.9550 N.pl3     1 RES1    1.0000
     28 O2         2.7954   -0.1204    1.1492 O.2       1 RES1   -1.0000
     29 C13        2.5790    0.8561   -1.2850 Du        2 SUP2    0.0000
     30 H14        3.2196    0.2125   -1.0063 Du        2 SUP2    0.0000
     31 O3         2.6239    1.2963   -2.5795 Du        2 SUP2    0.0000
     32 C14        1.7536    2.4304   -2.8294 Du        2 SUP2    0.0000
     33 H15        1.6465    2.5533   -3.8055 Du        2 SUP2    0.0000
     34 H16        2.1689    3.2502   -2.4614 Du        2 SUP2    0.0000
     35 C15        0.4084    2.2320   -2.2039 Du        2 SUP2    0.0000
     36 H17        0.0078    1.3909   -2.5394 Du        2 SUP2    0.0000
     37 H18       -0.1891    2.9793   -2.4591 Du        2 SUP2    0.0000
     38 C16        0.5310    2.1705   -0.6898 Du        2 SUP2    0.0000
     39 H19        0.6864    3.0750   -0.3189 Du        2 SUP2    0.0000
     40 H20       -0.2970    1.8019   -0.2906 Du        2 SUP2    0.0000
     41 C17        1.6940    1.2791   -0.3968 Du        2 SUP2    0.0000
@<TRIPOS>BOND
     1    1    2 1
     2    3    1 1
     3    4    3 1
     4    5    4 1
     5    6    4 1
     6    7    4 1
     7    8    7 1
     8    9    7 1
     9   10    7 1
    10   11   10 1
    11   12   10 1
    12   13    1 2
    13   14   15 1
    14   16   14 1
    15   17   16 ar
    16   18   17 1
    17   19   17 ar
    18   20   19 1
    19   21   19 ar
    20   22   21 1
    21   23   21 ar
    22   24   23 1
    23   25   16 ar
    24   26   25 1
    25   27   13 1
    26   28   27 1
    27   10   13 1
    28   14   27 2
    29   23   25 ar
@<TRIPOS>SUBSTRUCTURE
     1 RES1 1
     2 SUP2 29

@<TRIPOS>CRYSIN
   8.6340   10.0720   23.6220  90.0000  90.0000  90.0000  61 1

