# MOL2 file generated by ConQuest
# Please check atom types

@<TRIPOS>MOLECULE
KEMTIF
    35    36     1
SMALL
NO_CHARGES
****
Generated from CSD

@<TRIPOS>ATOM
      1 C1        -2.2563    2.8402   11.7109 C.3       1 RES1    0.0000
      2 C2        -1.0875    1.9789   11.1471 C.3       1 RES1    0.0000
      3 C3         0.1799    2.2492   13.2641 C.3       1 RES1    0.0000
      4 C4        -1.7025    3.7498   12.8254 C.3       1 RES1    0.0000
      5 C5        -3.3780    1.9779   12.2486 C.3       1 RES1    0.0000
      6 C6        -2.7589    3.7691   10.5889 C.3       1 RES1    0.0000
      7 C7        -4.6188    2.2417   10.1091 C.3       1 RES1    0.0000
      8 N1        -0.9206    3.0129   13.8037 N.3       1 RES1    0.0000
      9 N2        -1.5652    2.4305   14.8827 N.pl3     1 RES1    0.0000
     10 N3        -0.3557    1.3343   12.2430 N.3       1 RES1    0.0000
     11 N4         0.5424    0.3690   11.8472 N.pl3     1 RES1    0.0000
     12 N5        -4.0741    1.3311   11.1378 N.3       1 RES1    0.0000
     13 N6        -4.9553    0.3261   11.5130 N.pl3     1 RES1    0.0000
     14 N7        -3.5355    3.0247    9.5789 N.3       1 RES1    0.0000
     15 N8        -2.8420    2.4874    8.5111 N.pl3     1 RES1    0.0000
     16 O1        -1.0075    1.5413   15.4876 O.2       1 RES1    0.0000
     17 O2        -2.6538    2.9100   15.1702 O.2       1 RES1    0.0000
     18 O3         0.3386   -0.1899   10.7887 O.2       1 RES1    0.0000
     19 O4         1.4571    0.0987   12.6238 O.2       1 RES1    0.0000
     20 O5        -4.8537   -0.1276   12.6369 O.2       1 RES1    0.0000
     21 O6        -5.7482   -0.0633   10.6822 O.2       1 RES1    0.0000
     22 O7        -1.8061    3.0279    8.1806 O.2       1 RES1    0.0000
     23 O8        -3.3682    1.5553    7.9081 O.2       1 RES1    0.0000
     24 H1        -0.4861    2.5442   10.6542 H         1 RES1    0.0000
     25 H2        -1.4428    1.3054   10.5628 H         1 RES1    0.0000
     26 H3         0.8233    2.8413   12.8665 H         1 RES1    0.0000
     27 H4         0.5993    1.7451   13.9661 H         1 RES1    0.0000
     28 H5        -2.4394    4.1724   13.2735 H         1 RES1    0.0000
     29 H6        -1.1431    4.4213   12.4259 H         1 RES1    0.0000
     30 H7        -3.9962    2.5260   12.7377 H         1 RES1    0.0000
     31 H8        -3.0131    1.3075   12.8310 H         1 RES1    0.0000
     32 H9        -2.0030    4.1778   10.1614 H         1 RES1    0.0000
     33 H10       -3.3166    4.4491   10.9716 H         1 RES1    0.0000
     34 H11       -5.2757    2.8209   10.5049 H         1 RES1    0.0000
     35 H12       -5.0260    1.7301    9.4053 H         1 RES1    0.0000
@<TRIPOS>BOND
     1    1    2 1
     2    2   10 1
     3    3    8 1
     4    4    1 1
     5    5    1 1
     6    6    1 1
     7    7   12 1
     8    8    4 1
     9    9    8 1
    10   10    3 1
    11   11   10 1
    12   12    5 1
    13   13   12 1
    14   14    6 1
    15   15   14 1
    16   16    9 2
    17   17    9 2
    18   18   11 2
    19   19   11 2
    20   20   13 2
    21   21   13 2
    22   22   15 2
    23   23   15 2
    24   24    2 1
    25   25    2 1
    26   26    3 1
    27   27    3 1
    28   28    4 1
    29   29    4 1
    30   30    5 1
    31   31    5 1
    32   32    6 1
    33   33    6 1
    34   34    7 1
    35   35    7 1
    36    7   14 1
@<TRIPOS>SUBSTRUCTURE
     1 RES1 1

@<TRIPOS>CRYSIN
  12.8310   10.7260   19.6440  90.0000 108.1300  90.0000  15 1

