# MOL2 file generated by ConQuest
# Please check atom types

@<TRIPOS>MOLECULE
KENFUH
    32    33     1
SMALL
NO_CHARGES
****
Generated from CSD

@<TRIPOS>ATOM
      1 N1         1.9344    5.4221    8.3456 N.pl3     1 RES1    0.0000
      2 N2         2.0347    4.3385    6.1524 N.pl3     1 RES1    0.0000
      3 N3         3.5979    6.1095    6.7047 N.3       1 RES1    0.0000
      4 N4         4.6219    5.5064    7.3616 N.2       1 RES1    0.0000
      5 N5         5.3990    7.1530    6.0156 N.2       1 RES1    0.0000
      6 N6         6.9941    5.8541    7.3440 N.pl3     1 RES1    0.0000
      7 O1         1.2120    4.3625    5.2815 O.2       1 RES1    0.0000
      8 O2         2.4892    6.1167    9.1525 O.2       1 RES1    0.0000
      9 O3         1.0802    4.5951    8.5488 O.2       1 RES1    0.0000
     10 O4         2.7070    3.3955    6.4843 O.2       1 RES1    0.0000
     11 O5         7.1042    5.0308    8.2177 O.2       1 RES1    0.0000
     12 O6         7.9065    6.4418    6.7995 O.2       1 RES1    0.0000
     13 C1         2.2583    5.6592    6.8785 C.3       1 RES1    0.0000
     14 H1         1.6357    6.2913    6.5799 H         1 RES1    0.0000
     15 C2         4.0956    7.0958    5.9004 C.2       1 RES1    0.0000
     16 C3         5.6469    6.1724    6.9045 C.2       1 RES1    0.0000
     17 N1B        5.4512    9.6289    2.6026 N.pl3     1 RES1    0.0000
     18 N2B        5.3509   10.7125    4.7959 N.pl3     1 RES1    0.0000
     19 N3B        3.7878    8.9415    4.2435 N.pl3     1 RES1    0.0000
     20 N4B        2.7638    9.5446    3.5866 N.2       1 RES1    0.0000
     21 N5B        1.9866    7.8980    4.9326 N.2       1 RES1    0.0000
     22 N6B        0.3915    9.1969    3.6043 N.pl3     1 RES1    0.0000
     23 O1B        6.1736   10.6885    5.6667 O.2       1 RES1    0.0000
     24 O2B        4.8964    8.9343    1.7957 O.2       1 RES1    0.0000
     25 O3B        6.3054   10.4559    2.3994 O.2       1 RES1    0.0000
     26 O4B        4.6786   11.6555    4.4639 O.2       1 RES1    0.0000
     27 O5B        0.2815   10.0202    2.7305 O.2       1 RES1    0.0000
     28 O6B       -0.5209    8.6092    4.1487 O.2       1 RES1    0.0000
     29 C1B        5.1274    9.3918    4.0697 C.3       1 RES1    0.0000
     30 H1B        5.7499    8.7597    4.3683 H         1 RES1    0.0000
     31 C2B        3.2901    7.9552    5.0478 C.2       1 RES1    0.0000
     32 C3B        1.7388    8.8786    4.0437 C.2       1 RES1    0.0000
@<TRIPOS>BOND
     1    1    8 2
     2    2    7 2
     3    3    4 1
     4    4   16 2
     5    5   15 2
     6    6   11 2
     7    9    1 2
     8   10    2 2
     9   12    6 2
    10   13    1 1
    11   14   13 1
    12   15    3 1
    13   16    5 1
    14   17   24 2
    15   18   23 2
    16   19   20 1
    17   20   32 2
    18   21   31 2
    19   22   27 2
    20   25   17 2
    21   26   18 2
    22   28   22 2
    23   29   17 1
    24   30   29 1
    25   31   15 1
    26   32   21 1
    27    2   13 1
    28    3   13 1
    29    6   16 1
    30   18   29 1
    31   19   29 1
    32   19   31 1
    33   22   32 1
@<TRIPOS>SUBSTRUCTURE
     1 RES1 1

@<TRIPOS>CRYSIN
   8.9555    7.5255   11.0602  90.0000  98.1600  90.0000 231 1

