# MOL2 file generated by ConQuest
# Please check atom types

@<TRIPOS>MOLECULE
KENQEC
   158   164     2
SMALL
NO_CHARGES
****
Generated from CSD

@<TRIPOS>ATOM
      1 O1        -2.1404   19.4981    5.6475 O.2       1 RES1    0.0000
      2 O2        -6.9265   22.4695    1.7978 O.3       1 RES1    0.0000
      3 O3         0.0935   13.9232    8.2003 O.3       1 RES1    0.0000
      4 O4         1.3552   15.5043    9.2015 O.2       1 RES1    0.0000
      5 N1        -3.0038   18.6610    5.2213 N.3       1 RES1    0.0000
      6 N2         5.4823    9.3119   10.6131 N.1       1 RES1    0.0000
      7 C1        -3.3438   18.5047    3.7897 C.3       1 RES1    0.0000
      8 C2        -3.9466   17.0800    3.8005 C.3       1 RES1    0.0000
      9 C3        -4.6384   17.0017    5.1688 C.3       1 RES1    0.0000
     10 C4        -3.6795   17.6975    6.1431 C.3       1 RES1    0.0000
     11 C5        -2.0689   18.6250    2.9527 C.3       1 RES1    0.0000
     12 C6        -4.3947   18.4811    7.2408 C.3       1 RES1    0.0000
     13 C7        -4.3514   19.5767    3.3536 C.ar      1 RES1    0.0000
     14 C8        -4.8497   19.5256    2.0525 C.ar      1 RES1    0.0000
     15 C9        -5.7046   20.4890    1.5738 C.ar      1 RES1    0.0000
     16 C10       -6.1073   21.5396    2.3928 C.ar      1 RES1    0.0000
     17 C11       -5.6583   21.5987    3.7009 C.ar      1 RES1    0.0000
     18 C12       -4.7727   20.6225    4.1663 C.ar      1 RES1    0.0000
     19 C13       -2.6358   16.7279    6.7138 C.ar      1 RES1    0.0000
     20 C14       -1.4319   16.4830    6.0653 C.ar      1 RES1    0.0000
     21 C15       -0.5163   15.5685    6.5525 C.ar      1 RES1    0.0000
     22 C16       -0.7990   14.9173    7.7272 C.ar      1 RES1    0.0000
     23 C17       -1.9645   15.1419    8.4141 C.ar      1 RES1    0.0000
     24 C18       -2.8828   16.0417    7.8980 C.ar      1 RES1    0.0000
     25 C19        1.1622   14.3542    8.9155 C.2       1 RES1    0.0000
     26 C20        2.0611   13.2208    9.2918 C.ar      1 RES1    0.0000
     27 C21        1.7972   11.9063    8.8997 C.ar      1 RES1    0.0000
     28 C22        2.6686   10.8942    9.2525 C.ar      1 RES1    0.0000
     29 C23        3.8079   11.1982    9.9959 C.ar      1 RES1    0.0000
     30 C24        4.0691   12.5086   10.3968 C.ar      1 RES1    0.0000
     31 C25        3.1930   13.5115   10.0337 C.ar      1 RES1    0.0000
     32 C26        4.7425   10.1440   10.3399 C.1       1 RES1    0.0000
     33 C27       -7.6741   23.3691    2.6398 C.3       1 RES1    0.0000
     34 C28       -8.4148   24.3052    1.7101 C.3       1 RES1    0.0000
     35 C29       -9.3351   25.2719    2.4501 C.3       1 RES1    0.0000
     36 C30       -9.8794   26.3637    1.5393 C.3       1 RES1    0.0000
     37 C31      -10.9752   27.2162    2.1688 C.3       1 RES1    0.0000
     38 C32      -11.4068   28.3702    1.2761 C.3       1 RES1    0.0000
     39 C33      -12.5950   29.1694    1.7938 C.3       1 RES1    0.0000
     40 C34      -13.0563   30.2357    0.8135 C.3       1 RES1    0.0000
     41 H1        -4.5849   16.9649    3.0793 H         1 RES1    0.0000
     42 H2        -3.2532   16.4064    3.7206 H         1 RES1    0.0000
     43 H3        -5.4949   17.4563    5.1468 H         1 RES1    0.0000
     44 H4        -4.7812   16.0781    5.4289 H         1 RES1    0.0000
     45 H5        -2.2857   18.5241    2.0231 H         1 RES1    0.0000
     46 H6        -1.6714   19.4868    3.0970 H         1 RES1    0.0000
     47 H7        -1.4495   17.9392    3.2132 H         1 RES1    0.0000
     48 H8        -4.8318   17.8693    7.8378 H         1 RES1    0.0000
     49 H9        -3.7547   19.0034    7.7300 H         1 RES1    0.0000
     50 H10       -5.0473   19.0634    6.8450 H         1 RES1    0.0000
     51 H11       -4.5981   18.8241    1.4963 H         1 RES1    0.0000
     52 H12       -6.0153   20.4388    0.6986 H         1 RES1    0.0000
     53 H13       -5.9431   22.2814    4.2646 H         1 RES1    0.0000
     54 H14       -4.4583   20.6740    5.0400 H         1 RES1    0.0000
     55 H15       -1.2367   16.9461    5.2830 H         1 RES1    0.0000
     56 H16        0.2745   15.3981    6.0937 H         1 RES1    0.0000
     57 H17       -2.1356   14.6977    9.2130 H         1 RES1    0.0000
     58 H18       -3.6805   16.1900    8.3526 H         1 RES1    0.0000
     59 H19        1.0359   11.7129    8.4018 H         1 RES1    0.0000
     60 H20        2.4966   10.0171    8.9959 H         1 RES1    0.0000
     61 H21        4.8245   12.7041   10.9026 H         1 RES1    0.0000
     62 H22        3.3644   14.3890   10.2895 H         1 RES1    0.0000
     63 H23       -7.0763   23.8682    3.2181 H         1 RES1    0.0000
     64 H24       -8.2997   22.8751    3.1927 H         1 RES1    0.0000
     65 H25       -8.9423   23.7804    1.0878 H         1 RES1    0.0000
     66 H26       -7.7697   24.8149    1.1952 H         1 RES1    0.0000
     67 H27      -10.0770   24.7762    2.8308 H         1 RES1    0.0000
     68 H28       -8.8453   25.6816    3.1802 H         1 RES1    0.0000
     69 H29      -10.2303   25.9510    0.7345 H         1 RES1    0.0000
     70 H30       -9.1471   26.9431    1.2767 H         1 RES1    0.0000
     71 H31      -11.7445   26.6556    2.3559 H         1 RES1    0.0000
     72 H32      -10.6547   27.5714    3.0126 H         1 RES1    0.0000
     73 H33      -11.6303   28.0166    0.4009 H         1 RES1    0.0000
     74 H34      -10.6545   28.9724    1.1646 H         1 RES1    0.0000
     75 H35      -13.3311   28.5633    1.9719 H         1 RES1    0.0000
     76 H36      -12.3507   29.5936    2.6312 H         1 RES1    0.0000
     77 H37      -13.8041   30.7098    1.1847 H         1 RES1    0.0000
     78 H38      -12.3380   30.8507    0.6480 H         1 RES1    0.0000
     79 H39      -13.3183   29.8204   -0.0115 H         1 RES1    0.0000
     80 O5        -4.7696   10.7555    4.6035 O.2       2 RES2    0.0000
     81 O6        -7.9687   16.0849    2.1928 O.3       2 RES2    0.0000
     82 O7         0.7466    7.4141    5.7610 O.3       2 RES2    0.0000
     83 O8         2.6239    8.3249    4.8964 O.2       2 RES2    0.0000
     84 N3        -3.8558   11.5427    4.1664 N.3       2 RES2    0.0000
     85 N4         5.4655    1.8719    7.5641 N.1       2 RES2    0.0000
     86 C35       -3.8914   12.1344    2.8065 C.3       2 RES2    0.0000
     87 C36       -2.4799   12.7412    2.7310 C.3       2 RES2    0.0000
     88 C37       -2.1257   13.0924    4.1773 C.3       2 RES2    0.0000
     89 C38       -2.6851   11.9188    4.9935 C.3       2 RES2    0.0000
     90 C39       -4.1131   11.0365    1.7630 C.3       2 RES2    0.0000
     91 C40       -3.1538   12.3195    6.3919 C.3       2 RES2    0.0000
     92 C41       -4.9951   13.1973    2.7240 C.ar      2 RES2    0.0000
     93 C42       -5.1448   13.9309    1.5439 C.ar      2 RES2    0.0000
     94 C43       -6.1297   14.8848    1.4049 C.ar      2 RES2    0.0000
     95 C44       -7.0077   15.1400    2.4507 C.ar      2 RES2    0.0000
     96 C45       -6.8680   14.4430    3.6403 C.ar      2 RES2    0.0000
     97 C46       -5.8710   13.4778    3.7654 C.ar      2 RES2    0.0000
     98 C47       -1.7097   10.7360    5.0933 C.ar      2 RES2    0.0000
     99 C48       -0.5337   10.8725    5.8290 C.ar      2 RES2    0.0000
    100 C49        0.3146    9.8001    6.0390 C.ar      2 RES2    0.0000
    101 C50       -0.0112    8.5722    5.4767 C.ar      2 RES2    0.0000
    102 C51       -1.1470    8.4099    4.7262 C.ar      2 RES2    0.0000
    103 C52       -1.9991    9.4885    4.5385 C.ar      2 RES2    0.0000
    104 C53        2.0603    7.4074    5.4312 C.2       2 RES2    0.0000
    105 C54        2.7174    6.1277    5.8244 C.ar      2 RES2    0.0000
    106 C55        4.1066    6.0709    5.7192 C.ar      2 RES2    0.0000
    107 C56        4.7878    4.9555    6.1464 C.ar      2 RES2    0.0000
    108 C57        4.0821    3.8793    6.6782 C.ar      2 RES2    0.0000
    109 C58        2.6898    3.9102    6.7590 C.ar      2 RES2    0.0000
    110 C59        2.0091    5.0386    6.3279 C.ar      2 RES2    0.0000
    111 C60        4.8301    2.7422    7.1719 C.1       2 RES2    0.0000
    112 C61       -8.7221   16.5789    3.3064 C.3       2 RES2    0.0000
    113 C62       -9.5724   17.7272    2.8067 C.3       2 RES2    0.0000
    114 C63       -8.7502   18.8605    2.2079 C.3       2 RES2    0.0000
    115 C64       -9.5432   20.1424    1.9507 C.3       2 RES2    0.0000
    116 C65      -10.6777   20.0118    0.9511 C.3       2 RES2    0.0000
    117 C66      -11.3184   21.3553    0.5791 C.3       2 RES2    0.0000
    118 C67      -12.0086   22.0644    1.7315 C.3       2 RES2    0.0000
    119 C68      -12.6581   23.3780    1.3199 C.3       2 RES2    0.0000
    120 H40       -1.8488   12.1002    2.3680 H         2 RES2    0.0000
    121 H41       -2.4760   13.5350    2.1734 H         2 RES2    0.0000
    122 H42       -2.5402   13.9281    4.4428 H         2 RES2    0.0000
    123 H43       -1.1653   13.1669    4.2908 H         2 RES2    0.0000
    124 H44       -4.1348   11.4275    0.8865 H         2 RES2    0.0000
    125 H45       -3.3965   10.3994    1.8115 H         2 RES2    0.0000
    126 H46       -4.9471   10.5937    1.9366 H         2 RES2    0.0000
    127 H47       -2.3945   12.5630    6.9264 H         2 RES2    0.0000
    128 H48       -3.7522   13.0674    6.3267 H         2 RES2    0.0000
    129 H49       -3.6092   11.5801    6.8008 H         2 RES2    0.0000
    130 H50       -4.5651   13.7712    0.8345 H         2 RES2    0.0000
    131 H51       -6.2068   15.3589    0.6087 H         2 RES2    0.0000
    132 H52       -7.4385   14.6189    4.3535 H         2 RES2    0.0000
    133 H53       -5.7897   13.0103    4.5652 H         2 RES2    0.0000
    134 H54       -0.3147   11.7027    6.1864 H         2 RES2    0.0000
    135 H55        1.0875    9.8991    6.5468 H         2 RES2    0.0000
    136 H56       -1.3445    7.5843    4.3465 H         2 RES2    0.0000
    137 H57       -2.7738    9.3788    4.0358 H         2 RES2    0.0000
    138 H58        4.5739    6.7897    5.3590 H         2 RES2    0.0000
    139 H59        5.7148    4.9200    6.0806 H         2 RES2    0.0000
    140 H60        2.2229    3.1811    7.0987 H         2 RES2    0.0000
    141 H61        1.0807    5.0684    6.3745 H         2 RES2    0.0000
    142 H62       -8.1242   16.8846    4.0063 H         2 RES2    0.0000
    143 H63       -9.2856   15.8770    3.6676 H         2 RES2    0.0000
    144 H64      -10.0982   18.0745    3.5442 H         2 RES2    0.0000
    145 H65      -10.1880   17.3948    2.1348 H         2 RES2    0.0000
    146 H66       -8.3676   18.5580    1.3695 H         2 RES2    0.0000
    147 H67       -8.0166   19.0639    2.8091 H         2 RES2    0.0000
    148 H68       -9.9107   20.4508    2.7939 H         2 RES2    0.0000
    149 H69       -8.9308   20.8241    1.6330 H         2 RES2    0.0000
    150 H70      -11.3593   19.4310    1.3237 H         2 RES2    0.0000
    151 H71      -10.3394   19.5911    0.1451 H         2 RES2    0.0000
    152 H72      -10.6300   21.9391    0.2235 H         2 RES2    0.0000
    153 H73      -11.9676   21.2047   -0.1257 H         2 RES2    0.0000
    154 H74      -11.3578   22.2394    2.4292 H         2 RES2    0.0000
    155 H75      -12.6879   21.4786    2.1005 H         2 RES2    0.0000
    156 H76      -13.0772   23.7808    2.0838 H         2 RES2    0.0000
    157 H77      -11.9880   23.9713    0.9725 H         2 RES2    0.0000
    158 H78      -13.3185   23.2102    0.6436 H         2 RES2    0.0000
@<TRIPOS>BOND
     1    1    5 1
     2    2   16 1
     3    3   22 1
     4    4   25 2
     5    5    7 1
     6    6   32 3
     7    7    8 1
     8    8    9 1
     9    9   10 1
    10   10    5 1
    11   11    7 1
    12   12   10 1
    13   13    7 1
    14   14   13 ar
    15   15   14 ar
    16   16   15 ar
    17   17   16 ar
    18   18   13 ar
    19   19   10 1
    20   20   19 ar
    21   21   20 ar
    22   22   21 ar
    23   23   22 ar
    24   24   19 ar
    25   25    3 1
    26   26   25 1
    27   27   26 ar
    28   28   27 ar
    29   29   28 ar
    30   30   29 ar
    31   31   26 ar
    32   32   29 1
    33   33    2 1
    34   34   33 1
    35   35   34 1
    36   36   35 1
    37   37   36 1
    38   38   37 1
    39   39   38 1
    40   40   39 1
    41   41    8 1
    42   42    8 1
    43   43    9 1
    44   44    9 1
    45   45   11 1
    46   46   11 1
    47   47   11 1
    48   48   12 1
    49   49   12 1
    50   50   12 1
    51   51   14 1
    52   52   15 1
    53   53   17 1
    54   54   18 1
    55   55   20 1
    56   56   21 1
    57   57   23 1
    58   58   24 1
    59   59   27 1
    60   60   28 1
    61   61   30 1
    62   62   31 1
    63   63   33 1
    64   64   33 1
    65   65   34 1
    66   66   34 1
    67   67   35 1
    68   68   35 1
    69   69   36 1
    70   70   36 1
    71   71   37 1
    72   72   37 1
    73   73   38 1
    74   74   38 1
    75   75   39 1
    76   76   39 1
    77   77   40 1
    78   78   40 1
    79   79   40 1
    80   80   84 1
    81   81   95 1
    82   82  101 1
    83   83  104 2
    84   84   86 1
    85   85  111 3
    86   86   87 1
    87   87   88 1
    88   88   89 1
    89   89   84 1
    90   90   86 1
    91   91   89 1
    92   92   86 1
    93   93   92 ar
    94   94   93 ar
    95   95   94 ar
    96   96   95 ar
    97   97   92 ar
    98   98   89 1
    99   99   98 ar
   100  100   99 ar
   101  101  100 ar
   102  102  101 ar
   103  103   98 ar
   104  104   82 1
   105  105  104 1
   106  106  105 ar
   107  107  106 ar
   108  108  107 ar
   109  109  108 ar
   110  110  105 ar
   111  111  108 1
   112  112   81 1
   113  113  112 1
   114  114  113 1
   115  115  114 1
   116  116  115 1
   117  117  116 1
   118  118  117 1
   119  119  118 1
   120  120   87 1
   121  121   87 1
   122  122   88 1
   123  123   88 1
   124  124   90 1
   125  125   90 1
   126  126   90 1
   127  127   91 1
   128  128   91 1
   129  129   91 1
   130  130   93 1
   131  131   94 1
   132  132   96 1
   133  133   97 1
   134  134   99 1
   135  135  100 1
   136  136  102 1
   137  137  103 1
   138  138  106 1
   139  139  107 1
   140  140  109 1
   141  141  110 1
   142  142  112 1
   143  143  112 1
   144  144  113 1
   145  145  113 1
   146  146  114 1
   147  147  114 1
   148  148  115 1
   149  149  115 1
   150  150  116 1
   151  151  116 1
   152  152  117 1
   153  153  117 1
   154  154  118 1
   155  155  118 1
   156  156  119 1
   157  157  119 1
   158  158  119 1
   159   17   18 ar
   160   23   24 ar
   161   30   31 ar
   162   96   97 ar
   163  102  103 ar
   164  109  110 ar
@<TRIPOS>SUBSTRUCTURE
     1 RES1 1
     2 RES2 80

@<TRIPOS>CRYSIN
  12.7390   14.0790   17.5190 104.9900 103.2770  91.3690   2 1

