# MOL2 file generated by ConQuest
# Please check atom types

@<TRIPOS>MOLECULE
KENVOQ
    38    41     1
SMALL
NO_CHARGES
****
Generated from CSD

@<TRIPOS>ATOM
      1 O1         3.1812    0.2419    9.1820 O.2       1 RES1    0.0000
      2 O2         3.1336    2.3919    8.9065 O.2       1 RES1    0.0000
      3 N1         3.3976    1.2475    8.5193 N.pl3     1 RES1    0.0000
      4 C1         4.0575    1.1061    7.2046 C.ar      1 RES1    0.0000
      5 C2         4.8846    2.1241    6.8447 C.ar      1 RES1    0.0000
      6 H1         4.9628    2.8756    7.3878 H         1 RES1    0.0000
      7 C3         5.6188    2.0380    5.6550 C.ar      1 RES1    0.0000
      8 H2         6.2007    2.7253    5.4245 H         1 RES1    0.0000
      9 C4         5.4915    0.9517    4.8227 C.ar      1 RES1    0.0000
     10 C5         4.5670   -0.0895    5.1557 C.ar      1 RES1    0.0000
     11 C6         4.3095   -1.1642    4.2586 C.ar      1 RES1    0.0000
     12 H3         4.7497   -1.1929    3.4410 H         1 RES1    0.0000
     13 C7         3.4260   -2.1541    4.5805 C.ar      1 RES1    0.0000
     14 H4         3.2819   -2.8558    3.9871 H         1 RES1    0.0000
     15 C8         2.7319   -2.1186    5.8057 C.ar      1 RES1    0.0000
     16 H5         2.1376   -2.8011    6.0208 H         1 RES1    0.0000
     17 C9         2.9281   -1.0863    6.6799 C.ar      1 RES1    0.0000
     18 H6         2.4508   -1.0685    7.4783 H         1 RES1    0.0000
     19 C10        3.8446   -0.0417    6.3963 C.ar      1 RES1    0.0000
     20 O1A        8.5924    0.2419   -0.8058 O.2       1 RES1    0.0000
     21 O2A        8.6401    2.3919   -0.5302 O.2       1 RES1    0.0000
     22 N1A        8.3760    1.2475   -0.1431 N.pl3     1 RES1    0.0000
     23 C1A        7.7162    1.1061    1.1717 C.ar      1 RES1    0.0000
     24 C2A        6.8890    2.1241    1.5315 C.ar      1 RES1    0.0000
     25 H1A        6.8108    2.8756    0.9884 H         1 RES1    0.0000
     26 C3A        6.1549    2.0380    2.7213 C.ar      1 RES1    0.0000
     27 H2A        5.5729    2.7253    2.9518 H         1 RES1    0.0000
     28 C4A        6.2821    0.9517    3.5535 C.ar      1 RES1    0.0000
     29 C5A        7.2066   -0.0895    3.2205 C.ar      1 RES1    0.0000
     30 C6A        7.4642   -1.1642    4.1176 C.ar      1 RES1    0.0000
     31 H3A        7.0239   -1.1929    4.9353 H         1 RES1    0.0000
     32 C7A        8.3476   -2.1541    3.7958 C.ar      1 RES1    0.0000
     33 H4A        8.4918   -2.8558    4.3892 H         1 RES1    0.0000
     34 C8A        9.0417   -2.1186    2.5705 C.ar      1 RES1    0.0000
     35 H5A        9.6361   -2.8011    2.3554 H         1 RES1    0.0000
     36 C9A        8.8456   -1.0863    1.6964 C.ar      1 RES1    0.0000
     37 H6A        9.3229   -1.0685    0.8979 H         1 RES1    0.0000
     38 C10A       7.9290   -0.0417    1.9800 C.ar      1 RES1    0.0000
@<TRIPOS>BOND
     1    1    3 2
     2    2    3 2
     3    3    4 1
     4    4    5 ar
     5    5    6 1
     6    7    5 ar
     7    8    7 1
     8    9    7 ar
     9   10    9 ar
    10   11   10 ar
    11   12   11 1
    12   13   11 ar
    13   14   13 1
    14   15   13 ar
    15   16   15 1
    16   17   15 ar
    17   18   17 1
    18   19    4 ar
    19   20   22 2
    20   21   22 2
    21   22   23 1
    22   23   24 ar
    23   24   25 1
    24   26   24 ar
    25   27   26 1
    26   28    9 1
    27   29   28 ar
    28   30   29 ar
    29   31   30 1
    30   32   30 ar
    31   33   32 1
    32   34   32 ar
    33   35   34 1
    34   36   34 ar
    35   37   36 1
    36   38   23 ar
    37   10   19 ar
    38   17   19 ar
    39   26   28 ar
    40   29   38 ar
    41   36   38 ar
@<TRIPOS>SUBSTRUCTURE
     1 RES1 1

@<TRIPOS>CRYSIN
  13.3700    6.8320   17.0540  90.0000 100.7900  90.0000  15 1

