# MOL2 file generated by ConQuest
# Please check atom types

@<TRIPOS>MOLECULE
KEPBUE
    29    30     1
SMALL
NO_CHARGES
****
Generated from CSD

@<TRIPOS>ATOM
      1 C1         0.5877    2.0752    8.1359 C.3       1 RES1    0.0000
      2 C2         1.2876    1.5172    9.3341 C.3       1 RES1    0.0000
      3 C3        -0.4444    3.1265    8.4517 C.3       1 RES1    0.0000
      4 C4         1.3728    2.0325    6.0015 C.ar      1 RES1    0.0000
      5 C5         1.9936    2.2791    4.8174 C.ar      1 RES1    0.0000
      6 C6         1.6047    1.4713    3.7276 C.ar      1 RES1    0.0000
      7 C7         0.6611    0.4467    3.8143 C.ar      1 RES1    0.0000
      8 C8         0.0548    0.2421    5.0663 C.ar      1 RES1    0.0000
      9 C9         0.4043    1.0424    6.1240 C.ar      1 RES1    0.0000
     10 C10        0.2697   -0.5183    2.7085 C.3       1 RES1    0.0000
     11 C11       -0.9726   -0.0809    1.9411 C.3       1 RES1    0.0000
     12 N1         2.2842    1.7767    2.4654 N.pl3     1 RES1    0.0000
     13 O1         1.5729    2.6357    7.2150 O.3       1 RES1    0.0000
     14 O2        -0.0531    0.9848    7.4002 O.3       1 RES1    0.0000
     15 O3         1.7375    1.4863    1.4055 O.2       1 RES1    0.0000
     16 O4         3.3801    2.3422    2.5199 O.2       1 RES1    0.0000
     17 H1         1.8962    0.7910    9.0371 H         1 RES1    0.0000
     18 H2         1.8194    2.2075    9.7545 H         1 RES1    0.0000
     19 H3         0.6495    1.1663    9.9742 H         1 RES1    0.0000
     20 H4        -0.8299    3.4290    7.5957 H         1 RES1    0.0000
     21 H5         0.0135    3.8656    8.9051 H         1 RES1    0.0000
     22 H6        -1.1313    2.7668    9.0352 H         1 RES1    0.0000
     23 H7         2.6378    2.9532    4.7420 H         1 RES1    0.0000
     24 H8        -0.5934   -0.4378    5.1728 H         1 RES1    0.0000
     25 H9         0.0711   -1.3699    3.1422 H         1 RES1    0.0000
     26 H10        0.9969   -0.6353    2.0825 H         1 RES1    0.0000
     27 H11       -1.2000   -0.7432    1.2736 H         1 RES1    0.0000
     28 H12       -1.7109    0.0405    2.5822 H         1 RES1    0.0000
     29 H13       -0.7862    0.7665    1.4924 H         1 RES1    0.0000
@<TRIPOS>BOND
     1    1    2 1
     2    2   17 1
     3    3    1 1
     4    4    5 ar
     5    5    6 ar
     6    6    7 ar
     7    7    8 ar
     8    8    9 ar
     9    9    4 ar
    10   10    7 1
    11   11   10 1
    12   12    6 1
    13   13    1 1
    14   14    1 1
    15   15   12 2
    16   16   12 2
    17   18    2 1
    18   19    2 1
    19   20    3 1
    20   21    3 1
    21   22    3 1
    22   23    5 1
    23   24    8 1
    24   25   10 1
    25   26   10 1
    26   27   11 1
    27   28   11 1
    28   29   11 1
    29    4   13 1
    30    9   14 1
@<TRIPOS>SUBSTRUCTURE
     1 RES1 1

@<TRIPOS>CRYSIN
   9.3296   12.2640   10.4903  90.0000 116.0150  90.0000 231 1

