# MOL2 file generated by ConQuest
# Please check atom types

@<TRIPOS>MOLECULE
KEPGOB
    41    43     1
SMALL
NO_CHARGES
****
Generated from CSD

@<TRIPOS>ATOM
      1 C1        -4.6139    3.0816   10.8059 C.ar      1 RES1    0.0000
      2 C2        -4.4977    4.4625   10.8348 C.ar      1 RES1    0.0000
      3 C3        -3.3984    5.0835   11.3758 C.ar      1 RES1    0.0000
      4 C4        -2.3621    4.3517   11.9283 C.ar      1 RES1    0.0000
      5 C5        -2.4859    2.9583   11.9038 C.ar      1 RES1    0.0000
      6 C6        -3.5781    2.3529   11.3570 C.ar      1 RES1    0.0000
      7 C7        -5.8052    2.4356   10.2332 C.3       1 RES1    0.0000
      8 C8        -5.7072    1.1312    9.5147 C.3       1 RES1    0.0000
      9 C9        -6.3752    1.1952   10.8074 C.3       1 RES1    0.0000
     10 C10       -1.1844    4.9602   12.5487 C.2       1 RES1    0.0000
     11 C11       -0.9166    6.4269   12.4073 C.3       1 RES1    0.0000
     12 C12        1.6256    3.8586   14.2872 C.ar      1 RES1    0.0000
     13 C13        2.8424    4.3158   14.8210 C.ar      1 RES1    0.0000
     14 C14        3.7940    3.4545   15.3173 C.ar      1 RES1    0.0000
     15 C15        3.5296    2.1204   15.3144 C.ar      1 RES1    0.0000
     16 C16        2.3320    1.6243   14.8412 C.ar      1 RES1    0.0000
     17 C17        1.3986    2.4668   14.3449 C.ar      1 RES1    0.0000
     18 N1        -0.4163    4.1551   13.1821 N.2       1 RES1    0.0000
     19 N2         0.7102    4.6809   13.7505 N.pl3     1 RES1    0.0000
     20 N3         3.1878    5.7201   14.8498 N.pl3     1 RES1    0.0000
     21 O1         2.4135    6.5330   14.3521 O.2       1 RES1    0.0000
     22 O2         4.2382    6.0462   15.3519 O.2       1 RES1    0.0000
     23 N4         4.5350    1.2139   15.8366 N.pl3     1 RES1    0.0000
     24 O3         5.6035    1.6602   16.1930 O.2       1 RES1    0.0000
     25 O4         4.2450    0.0296   15.8915 O.2       1 RES1    0.0000
     26 H1        -5.2080    4.9914   10.4640 H         1 RES1    0.0000
     27 H2        -3.3445    6.0415   11.3700 H         1 RES1    0.0000
     28 H3        -1.7828    2.4216   12.2760 H         1 RES1    0.0000
     29 H4        -3.6350    1.3933   11.3513 H         1 RES1    0.0000
     30 H5        -6.4559    3.0426    9.8739 H         1 RES1    0.0000
     31 H6        -4.8405    0.7193    9.4757 H         1 RES1    0.0000
     32 H7        -6.2528    0.9986    8.7356 H         1 RES1    0.0000
     33 H8        -7.3303    1.0985   10.8232 H         1 RES1    0.0000
     34 H9        -5.9177    0.8192   11.5619 H         1 RES1    0.0000
     35 H10       -0.1109    6.6547   12.8776 H         1 RES1    0.0000
     36 H11       -0.8145    6.6375   11.4768 H         1 RES1    0.0000
     37 H12       -1.6504    6.9293   12.7694 H         1 RES1    0.0000
     38 H13        4.6264    3.7884   15.6592 H         1 RES1    0.0000
     39 H14        2.1672    0.6803   14.8657 H         1 RES1    0.0000
     40 H15        0.5647    2.1142   14.0260 H         1 RES1    0.0000
     41 H16        0.8401    5.5718   13.7577 H         1 RES1    0.0000
@<TRIPOS>BOND
     1    1    2 ar
     2    2    3 ar
     3    3    4 ar
     4    4    5 ar
     5    5    6 ar
     6    6    1 ar
     7    7    1 1
     8    8    7 1
     9    9    7 1
    10   10    4 1
    11   11   10 1
    12   12   13 ar
    13   13   14 ar
    14   14   15 ar
    15   15   16 ar
    16   16   17 ar
    17   17   12 ar
    18   18   10 2
    19   19   12 1
    20   20   13 1
    21   21   20 2
    22   22   20 2
    23   23   15 1
    24   24   23 2
    25   25   23 2
    26   26    2 1
    27   27    3 1
    28   28    5 1
    29   29    6 1
    30   30    7 1
    31   31    8 1
    32   32    8 1
    33   33    9 1
    34   34    9 1
    35   35   11 1
    36   36   11 1
    37   37   11 1
    38   38   14 1
    39   39   16 1
    40   40   17 1
    41   41   19 1
    42    8    9 1
    43   18   19 1
@<TRIPOS>SUBSTRUCTURE
     1 RES1 1

@<TRIPOS>CRYSIN
   6.9690   15.6030   14.5970  90.0000  98.7500  90.0000  14 1

