# MOL2 file generated by ConQuest
# Please check atom types

@<TRIPOS>MOLECULE
KEPHOD
    57    58     1
SMALL
NO_CHARGES
****
Generated from CSD

@<TRIPOS>ATOM
      1 C1        -0.0919    5.5285    3.0957 C.3       1 RES1    0.0000
      2 H1        -0.8854    6.0617    3.3129 H         1 RES1    0.0000
      3 C2         0.9170    5.6388    4.2281 C.3       1 RES1    0.0000
      4 H2         1.6032    4.9455    4.1323 H         1 RES1    0.0000
      5 O1         0.1971    5.4537    5.4683 O.3       1 RES1    0.0000
      6 C3         0.3943    4.2994    6.1574 C.2       1 RES1    0.0000
      7 O2         1.1401    3.4423    5.8038 O.2       1 RES1    0.0000
      8 C4        -0.4624    4.2861    7.3684 C.3       1 RES1    0.0000
      9 H3        -1.3702    4.1034    7.1165 H         1 RES1    0.0000
     10 H4        -0.4168    5.1415    7.8021 H         1 RES1    0.0000
     11 H5        -0.1537    3.6055    7.9711 H         1 RES1    0.0000
     12 C5         1.5723    7.0107    4.3037 C.3       1 RES1    0.0000
     13 H6         0.9486    7.6705    4.6723 H         1 RES1    0.0000
     14 O3         2.7110    6.8567    5.1635 O.3       1 RES1    0.0000
     15 C6         2.9348    7.8016    6.1200 C.2       1 RES1    0.0000
     16 O4         2.2185    8.7463    6.2879 O.2       1 RES1    0.0000
     17 C7         4.1808    7.4957    6.8685 C.3       1 RES1    0.0000
     18 H7         4.4159    8.2478    7.4194 H         1 RES1    0.0000
     19 H8         4.8916    7.3196    6.2478 H         1 RES1    0.0000
     20 H9         4.0405    6.7251    7.4241 H         1 RES1    0.0000
     21 C8         2.0332    7.4265    2.9325 C.3       1 RES1    0.0000
     22 H10        2.7615    6.8416    2.6343 H         1 RES1    0.0000
     23 O5         2.4991    8.7923    3.0030 O.3       1 RES1    0.0000
     24 C9         3.8258    9.0276    2.8501 C.2       1 RES1    0.0000
     25 O6         4.6256    8.1563    2.6238 O.2       1 RES1    0.0000
     26 C10        4.1079   10.4714    3.0243 C.3       1 RES1    0.0000
     27 H11        4.1900   10.6709    3.9609 H         1 RES1    0.0000
     28 H12        3.3887   10.9847    2.6508 H         1 RES1    0.0000
     29 H13        4.9273   10.6934    2.5756 H         1 RES1    0.0000
     30 C11        0.8805    7.3621    1.9394 C.3       1 RES1    0.0000
     31 H14        0.1347    7.9009    2.2775 H         1 RES1    0.0000
     32 O7         0.4708    5.9885    1.8628 O.3       1 RES1    0.0000
     33 C12        1.2594    7.8540    0.5642 C.3       1 RES1    0.0000
     34 H15        0.5760    7.5977   -0.0751 H         1 RES1    0.0000
     35 H16        1.3225    8.8225    0.5682 H         1 RES1    0.0000
     36 O8         2.5251    7.2855    0.1770 O.3       1 RES1    0.0000
     37 C13        3.3838    8.1366   -0.4388 C.2       1 RES1    0.0000
     38 O9         3.1326    9.2760   -0.6790 O.2       1 RES1    0.0000
     39 C14        4.6804    7.4600   -0.7532 C.3       1 RES1    0.0000
     40 H17        5.3013    8.1035   -1.1012 H         1 RES1    0.0000
     41 H18        4.5323    6.7714   -1.4064 H         1 RES1    0.0000
     42 H19        5.0403    7.0694    0.0470 H         1 RES1    0.0000
     43 N1        -0.4631    4.1620    2.9447 N.3       1 RES1    0.0000
     44 C15       -1.6172    3.7210    2.3399 C.ar      1 RES1    0.0000
     45 C16       -1.9427    2.3607    2.2157 C.ar      1 RES1    0.0000
     46 C17       -3.1305    1.9451    1.6257 C.ar      1 RES1    0.0000
     47 H20       -3.3221    1.0381    1.5590 H         1 RES1    0.0000
     48 C18       -4.0181    2.8640    1.1451 C.ar      1 RES1    0.0000
     49 H21       -4.8144    2.5886    0.7513 H         1 RES1    0.0000
     50 C19       -3.7199    4.2159    1.2498 C.ar      1 RES1    0.0000
     51 H22       -4.3190    4.8462    0.9204 H         1 RES1    0.0000
     52 C20       -2.5531    4.6296    1.8337 C.ar      1 RES1    0.0000
     53 H23       -2.3777    5.5414    1.8971 H         1 RES1    0.0000
     54 N2        -1.0798    1.3029    2.7125 N.pl3     1 RES1    0.0000
     55 O10        0.0877    1.5749    3.0264 O.2       1 RES1    0.0000
     56 O11       -1.5267    0.1523    2.7895 O.2       1 RES1    0.0000
     57 H24        0.1123    3.5539    3.1720 H         1 RES1    0.0000
@<TRIPOS>BOND
     1    1    2 1
     2    3    1 1
     3    4    3 1
     4    5    3 1
     5    6    5 1
     6    7    6 2
     7    8    6 1
     8    9    8 1
     9   10    8 1
    10   11    8 1
    11   12    3 1
    12   13   12 1
    13   14   12 1
    14   15   14 1
    15   16   15 2
    16   17   15 1
    17   18   17 1
    18   19   17 1
    19   20   17 1
    20   21   12 1
    21   22   21 1
    22   23   21 1
    23   24   23 1
    24   25   24 2
    25   26   24 1
    26   27   26 1
    27   28   26 1
    28   29   26 1
    29   30   21 1
    30   31   30 1
    31   32    1 1
    32   33   30 1
    33   34   33 1
    34   35   33 1
    35   36   33 1
    36   37   36 1
    37   38   37 2
    38   39   37 1
    39   40   39 1
    40   41   39 1
    41   42   39 1
    42   43    1 1
    43   44   43 1
    44   45   44 ar
    45   46   45 ar
    46   47   46 1
    47   48   46 ar
    48   49   48 1
    49   50   48 ar
    50   51   50 1
    51   52   44 ar
    52   53   52 1
    53   54   45 1
    54   55   54 2
    55   56   54 2
    56   57   43 1
    57   30   32 1
    58   50   52 ar
@<TRIPOS>SUBSTRUCTURE
     1 RES1 1

@<TRIPOS>CRYSIN
   7.0160   13.2410   23.4790  90.0000  90.0000  90.0000  19 1

