# MOL2 file generated by ConQuest
# Please check atom types

@<TRIPOS>MOLECULE
KEPHUJ
    57    58     1
SMALL
NO_CHARGES
****
Generated from CSD

@<TRIPOS>ATOM
      1 C1        -0.1960    5.4546    2.8156 C.3       1 RES1    0.0000
      2 H1        -0.8307    6.0448    3.2732 H         1 RES1    0.0000
      3 C2         0.0457    4.1891    3.6438 C.3       1 RES1    0.0000
      4 H2         0.7181    3.6198    3.2144 H         1 RES1    0.0000
      5 O1        -1.2206    3.4945    3.7449 O.3       1 RES1    0.0000
      6 C3        -1.1666    2.1239    3.7512 C.2       1 RES1    0.0000
      7 O2        -0.1530    1.4903    3.7484 O.2       1 RES1    0.0000
      8 C4        -2.5598    1.5802    3.7882 C.3       1 RES1    0.0000
      9 H3        -2.5355    0.6279    3.6681 H         1 RES1    0.0000
     10 H4        -3.0776    1.9785    3.0840 H         1 RES1    0.0000
     11 H5        -2.9606    1.7858    4.6356 H         1 RES1    0.0000
     12 C5         0.5153    4.6275    5.0267 C.3       1 RES1    0.0000
     13 H6        -0.2028    5.0844    5.5111 H         1 RES1    0.0000
     14 O3         0.9883    3.4463    5.7735 O.3       1 RES1    0.0000
     15 C6         0.0824    2.8008    6.5770 C.2       1 RES1    0.0000
     16 O4        -1.0378    3.1854    6.7728 O.2       1 RES1    0.0000
     17 C7         0.7151    1.5786    7.1700 C.3       1 RES1    0.0000
     18 H7         0.3247    1.4004    8.0289 H         1 RES1    0.0000
     19 H8         1.6590    1.7240    7.2710 H         1 RES1    0.0000
     20 H9         0.5671    0.8279    6.5898 H         1 RES1    0.0000
     21 C8         1.7395    5.5148    4.9129 C.3       1 RES1    0.0000
     22 H10        2.5185    4.9816    4.6497 H         1 RES1    0.0000
     23 O5         1.9740    6.1387    6.2096 O.3       1 RES1    0.0000
     24 C9         3.1679    5.8962    6.8007 C.2       1 RES1    0.0000
     25 O6         4.0069    5.1639    6.3585 O.2       1 RES1    0.0000
     26 C10        3.2823    6.6309    8.1018 C.3       1 RES1    0.0000
     27 H11        2.8332    6.1347    8.7894 H         1 RES1    0.0000
     28 H12        2.8790    7.4981    8.0161 H         1 RES1    0.0000
     29 H13        4.2096    6.7305    8.3318 H         1 RES1    0.0000
     30 C11        1.5166    6.6470    3.9148 C.3       1 RES1    0.0000
     31 H14        0.8424    7.2653    4.2662 H         1 RES1    0.0000
     32 O7         1.0652    6.1050    2.6679 O.3       1 RES1    0.0000
     33 C12        2.7942    7.4034    3.6183 C.3       1 RES1    0.0000
     34 H15        2.6303    8.0827    2.9460 H         1 RES1    0.0000
     35 H16        3.1175    7.8402    4.4222 H         1 RES1    0.0000
     36 O8         3.7797    6.4511    3.1373 O.3       1 RES1    0.0000
     37 C13        4.9182    6.9746    2.6469 C.2       1 RES1    0.0000
     38 O9         5.1507    8.1485    2.6495 O.2       1 RES1    0.0000
     39 C14        5.8176    5.9163    2.0999 C.3       1 RES1    0.0000
     40 H17        5.5583    5.7115    1.1988 H         1 RES1    0.0000
     41 H18        5.7474    5.1262    2.6405 H         1 RES1    0.0000
     42 H19        6.7242    6.2310    2.1101 H         1 RES1    0.0000
     43 N1        -0.6855    5.1093    1.5120 N.3       1 RES1    0.0000
     44 C15       -1.3925    6.0094    0.7208 C.ar      1 RES1    0.0000
     45 C16       -1.3400    7.3737    0.9266 C.ar      1 RES1    0.0000
     46 H20       -0.8008    7.7398    1.5899 H         1 RES1    0.0000
     47 C17       -2.1206    8.1799    0.1061 C.ar      1 RES1    0.0000
     48 C18       -2.8973    7.7109   -0.9253 C.ar      1 RES1    0.0000
     49 H21       -3.4043    8.2850   -1.4532 H         1 RES1    0.0000
     50 C19       -2.8880    6.3346   -1.1464 C.ar      1 RES1    0.0000
     51 H22       -3.3856    5.9757   -1.8456 H         1 RES1    0.0000
     52 C20       -2.1517    5.5068   -0.3425 C.ar      1 RES1    0.0000
     53 H23       -2.1569    4.5914   -0.5048 H         1 RES1    0.0000
     54 N2        -2.1106    9.6445    0.3412 N.pl3     1 RES1    0.0000
     55 O10       -1.1497   10.1303    0.9523 O.2       1 RES1    0.0000
     56 O11       -3.0753   10.3005   -0.0698 O.2       1 RES1    0.0000
     57 H24       -0.7163    4.2557    1.3803 H         1 RES1    0.0000
@<TRIPOS>BOND
     1    1    2 1
     2    3    1 1
     3    4    3 1
     4    5    3 1
     5    6    5 1
     6    7    6 2
     7    8    6 1
     8    9    8 1
     9   10    8 1
    10   11    8 1
    11   12    3 1
    12   13   12 1
    13   14   12 1
    14   15   14 1
    15   16   15 2
    16   17   15 1
    17   18   17 1
    18   19   17 1
    19   20   17 1
    20   21   12 1
    21   22   21 1
    22   23   21 1
    23   24   23 1
    24   25   24 2
    25   26   24 1
    26   27   26 1
    27   28   26 1
    28   29   26 1
    29   30   21 1
    30   31   30 1
    31   32    1 1
    32   33   30 1
    33   34   33 1
    34   35   33 1
    35   36   33 1
    36   37   36 1
    37   38   37 2
    38   39   37 1
    39   40   39 1
    40   41   39 1
    41   42   39 1
    42   43    1 1
    43   44   43 1
    44   45   44 ar
    45   46   45 1
    46   47   45 ar
    47   48   47 ar
    48   49   48 1
    49   50   48 ar
    50   51   50 1
    51   52   44 ar
    52   53   52 1
    53   54   47 1
    54   55   54 2
    55   56   54 2
    56   57   43 1
    57   30   32 1
    58   50   52 ar
@<TRIPOS>SUBSTRUCTURE
     1 RES1 1

@<TRIPOS>CRYSIN
  10.6405    8.0297   13.0611  90.0000 101.8910  90.0000   4 1

