# MOL2 file generated by ConQuest
# Please check atom types

@<TRIPOS>MOLECULE
KEPJAR
    57    58     1
SMALL
NO_CHARGES
****
Generated from CSD

@<TRIPOS>ATOM
      1 C1        -0.9878   18.4995    9.8049 C.3       1 RES1    0.0000
      2 H1        -0.1424   18.3373   10.2740 H         1 RES1    0.0000
      3 C2        -1.5338   17.1934    9.2567 C.3       1 RES1    0.0000
      4 H2        -2.4064   17.3567    8.8412 H         1 RES1    0.0000
      5 O1        -1.6683   16.1616   10.2668 O.3       1 RES1    0.0000
      6 C3        -2.8885   15.9960   10.8361 C.2       1 RES1    0.0000
      7 O2        -3.7824   16.8064   10.6919 O.2       1 RES1    0.0000
      8 C4        -2.9766   14.7251   11.5979 C.3       1 RES1    0.0000
      9 H3        -3.5960   14.1329   11.1639 H         1 RES1    0.0000
     10 H4        -3.2804   14.9065   12.4905 H         1 RES1    0.0000
     11 H5        -2.1107   14.3127   11.6327 H         1 RES1    0.0000
     12 C5        -0.5878   16.5891    8.2220 C.3       1 RES1    0.0000
     13 H6         0.2056   16.2283    8.6700 H         1 RES1    0.0000
     14 O3        -1.2920   15.5339    7.5601 O.3       1 RES1    0.0000
     15 C6        -0.9043   14.2524    7.7985 C.2       1 RES1    0.0000
     16 O4         0.0533   13.9564    8.4455 O.2       1 RES1    0.0000
     17 C7        -1.8453   13.3091    7.1219 C.3       1 RES1    0.0000
     18 H7        -1.6381   12.4084    7.3828 H         1 RES1    0.0000
     19 H8        -1.7553   13.3958    6.1697 H         1 RES1    0.0000
     20 H9        -2.7467   13.5164    7.3791 H         1 RES1    0.0000
     21 C8        -0.1672   17.6122    7.1803 C.3       1 RES1    0.0000
     22 H10       -0.9178   17.8163    6.5845 H         1 RES1    0.0000
     23 O5         0.9147   17.0200    6.4310 O.3       1 RES1    0.0000
     24 C9         0.8146   16.9704    5.0802 C.2       1 RES1    0.0000
     25 O6        -0.1154   17.4284    4.4769 O.2       1 RES1    0.0000
     26 C10        1.9921   16.2840    4.4778 C.3       1 RES1    0.0000
     27 H11        2.0356   16.4876    3.5413 H         1 RES1    0.0000
     28 H12        1.9046   15.3364    4.5969 H         1 RES1    0.0000
     29 H13        2.7944   16.5878    4.9091 H         1 RES1    0.0000
     30 C11        0.3160   18.8779    7.8668 C.3       1 RES1    0.0000
     31 H14        1.0816   18.6649    8.4402 H         1 RES1    0.0000
     32 O7        -0.7648   19.3593    8.6764 O.3       1 RES1    0.0000
     33 C12        0.7028   19.9624    6.9045 C.3       1 RES1    0.0000
     34 H15        1.3010   19.6091    6.2265 H         1 RES1    0.0000
     35 H16       -0.0866   20.3144    6.4645 H         1 RES1    0.0000
     36 O8         1.3621   21.0074    7.6538 O.3       1 RES1    0.0000
     37 C13        2.5277   21.4740    7.1667 C.2       1 RES1    0.0000
     38 O9         3.0087   21.0997    6.1265 O.2       1 RES1    0.0000
     39 C14        3.1157   22.4928    8.0768 C.3       1 RES1    0.0000
     40 H17        3.8836   22.8898    7.6602 H         1 RES1    0.0000
     41 H18        3.3787   22.0730    8.8998 H         1 RES1    0.0000
     42 H19        2.4635   23.1742    8.2590 H         1 RES1    0.0000
     43 N1        -1.9125   19.1579   10.6793 N.3       1 RES1    0.0000
     44 C15       -1.5276   20.2486   11.4423 C.ar      1 RES1    0.0000
     45 C16       -0.3632   20.9662   11.1596 C.ar      1 RES1    0.0000
     46 H20        0.1834   20.7057   10.4544 H         1 RES1    0.0000
     47 C17       -0.0225   22.0601   11.9239 C.ar      1 RES1    0.0000
     48 H21        0.7555   22.5349   11.7398 H         1 RES1    0.0000
     49 C18       -0.8461   22.4495   12.9687 C.ar      1 RES1    0.0000
     50 C19       -2.0140   21.7677   13.2593 C.ar      1 RES1    0.0000
     51 H22       -2.5630   22.0480   13.9563 H         1 RES1    0.0000
     52 C20       -2.3505   20.6720   12.5049 C.ar      1 RES1    0.0000
     53 H23       -3.1310   20.2029   12.6974 H         1 RES1    0.0000
     54 N2        -0.4679   23.6055   13.7693 N.pl3     1 RES1    0.0000
     55 O10        0.5191   24.2562   13.4337 O.2       1 RES1    0.0000
     56 O11       -1.1561   23.8938   14.7545 O.2       1 RES1    0.0000
     57 H24       -2.5231   18.6194   10.9405 H         1 RES1    0.0000
@<TRIPOS>BOND
     1    1    2 1
     2    3    1 1
     3    4    3 1
     4    5    3 1
     5    6    5 1
     6    7    6 2
     7    8    6 1
     8    9    8 1
     9   10    8 1
    10   11    8 1
    11   12    3 1
    12   13   12 1
    13   14   12 1
    14   15   14 1
    15   16   15 2
    16   17   15 1
    17   18   17 1
    18   19   17 1
    19   20   17 1
    20   21   12 1
    21   22   21 1
    22   23   21 1
    23   24   23 1
    24   25   24 2
    25   26   24 1
    26   27   26 1
    27   28   26 1
    28   29   26 1
    29   30   21 1
    30   31   30 1
    31   32    1 1
    32   33   30 1
    33   34   33 1
    34   35   33 1
    35   36   33 1
    36   37   36 1
    37   38   37 2
    38   39   37 1
    39   40   39 1
    40   41   39 1
    41   42   39 1
    42   43    1 1
    43   44   43 1
    44   45   44 ar
    45   46   45 1
    46   47   45 ar
    47   48   47 1
    48   49   47 ar
    49   50   49 ar
    50   51   50 1
    51   52   44 ar
    52   53   52 1
    53   54   49 1
    54   55   54 2
    55   56   54 2
    56   57   43 1
    57   30   32 1
    58   50   52 ar
@<TRIPOS>SUBSTRUCTURE
     1 RES1 1

@<TRIPOS>CRYSIN
   5.4225   22.7510    9.4038  90.0000 103.2020  90.0000   4 1

