# MOL2 file generated by ConQuest
# Please check atom types

@<TRIPOS>MOLECULE
KEPJOF
    62    63     1
SMALL
NO_CHARGES
****
Generated from CSD

@<TRIPOS>ATOM
      1 C1         0.5070    3.5238   21.6559 C.3       1 RES1    0.0000
      2 H1         1.0517    4.0262   22.2966 H         1 RES1    0.0000
      3 C2        -0.7853    3.0803   22.3292 C.3       1 RES1    0.0000
      4 H2        -1.3734    2.6326   21.6852 H         1 RES1    0.0000
      5 O1        -1.4174    4.2524   22.8581 O.3       1 RES1    0.0000
      6 C3        -2.6083    4.6628   22.3557 C.2       1 RES1    0.0000
      7 O2        -3.2194    4.0246   21.5257 O.2       1 RES1    0.0000
      8 C4        -2.9985    5.9661   22.9376 C.3       1 RES1    0.0000
      9 H3        -3.8719    6.2098   22.6201 H         1 RES1    0.0000
     10 H4        -2.3649    6.6369   22.6736 H         1 RES1    0.0000
     11 H5        -3.0132    5.8977   23.8939 H         1 RES1    0.0000
     12 C5        -0.4559    2.1575   23.4815 C.3       1 RES1    0.0000
     13 H6         0.0238    2.6545   24.1767 H         1 RES1    0.0000
     14 O3        -1.6657    1.6017   24.0269 O.3       1 RES1    0.0000
     15 C6        -1.9929    1.9344   25.3122 C.2       1 RES1    0.0000
     16 O4        -1.3790    2.7490   25.9575 O.2       1 RES1    0.0000
     17 C7        -3.1740    1.1637   25.7748 C.3       1 RES1    0.0000
     18 H7        -3.9544    1.7208   25.7410 H         1 RES1    0.0000
     19 H8        -3.0306    0.8679   26.6759 H         1 RES1    0.0000
     20 H9        -3.3013    0.4011   25.2060 H         1 RES1    0.0000
     21 C8         0.3986    1.0035   22.9951 C.3       1 RES1    0.0000
     22 H10       -0.1084    0.4655   22.3526 H         1 RES1    0.0000
     23 O5         0.7056    0.2108   24.1574 O.3       1 RES1    0.0000
     24 C9         0.7070   -1.1335   23.9933 C.2       1 RES1    0.0000
     25 O6         0.5189   -1.6828   22.9373 O.2       1 RES1    0.0000
     26 C10        0.9482   -1.8399   25.2847 C.3       1 RES1    0.0000
     27 H11        1.1048   -2.7709   25.1142 H         1 RES1    0.0000
     28 H12        0.1790   -1.7427   25.8505 H         1 RES1    0.0000
     29 H13        1.7153   -1.4594   25.7180 H         1 RES1    0.0000
     30 C11        1.6489    1.5538   22.3305 C.3       1 RES1    0.0000
     31 H14        2.1593    2.0932   22.9692 H         1 RES1    0.0000
     32 O7         1.2216    2.3686   21.2332 O.3       1 RES1    0.0000
     33 C12        2.5551    0.5339   21.6732 C.3       1 RES1    0.0000
     34 H15        2.0447   -0.0246   21.0661 H         1 RES1    0.0000
     35 H16        3.2516    0.9816   21.1680 H         1 RES1    0.0000
     36 O8         3.1404   -0.2741   22.7187 O.3       1 RES1    0.0000
     37 C13        3.8495   -1.3334   22.2971 C.2       1 RES1    0.0000
     38 O9         4.0453   -1.5687   21.1288 O.2       1 RES1    0.0000
     39 C14        4.2893   -2.1931   23.4412 C.3       1 RES1    0.0000
     40 H17        5.1089   -2.6367   23.2112 H         1 RES1    0.0000
     41 H18        3.6124   -2.8475   23.6290 H         1 RES1    0.0000
     42 H19        4.4278   -1.6455   24.2175 H         1 RES1    0.0000
     43 N1         0.2867    4.3351   20.4692 N.am      1 RES1    0.0000
     44 C15       -0.0385    3.6717   19.2196 C.ar      1 RES1    0.0000
     45 C16       -1.3587    3.5868   18.8041 C.ar      1 RES1    0.0000
     46 H20       -2.0433    3.9071   19.3465 H         1 RES1    0.0000
     47 C17       -1.6461    3.0241   17.5789 C.ar      1 RES1    0.0000
     48 H21       -2.5251    2.9639   17.2804 H         1 RES1    0.0000
     49 C18       -0.6049    2.5532   16.8050 C.ar      1 RES1    0.0000
     50 C19        0.7014    2.5847   17.2139 C.ar      1 RES1    0.0000
     51 H22        1.3797    2.2424   16.6766 H         1 RES1    0.0000
     52 C20        0.9839    3.1460   18.4543 C.ar      1 RES1    0.0000
     53 H23        1.8594    3.1679   18.7682 H         1 RES1    0.0000
     54 N2        -0.8979    2.0576   15.4451 N.pl3     1 RES1    0.0000
     55 O10       -2.0691    1.9708   15.0991 O.2       1 RES1    0.0000
     56 O11        0.0455    1.7804   14.7228 O.2       1 RES1    0.0000
     57 C21        0.5692    5.6814   20.5079 C.2       1 RES1    0.0000
     58 O12        0.8657    6.2389   21.5550 O.2       1 RES1    0.0000
     59 C22        0.4727    6.4411   19.2148 C.3       1 RES1    0.0000
     60 H24        0.7433    7.3502   19.3567 H         1 RES1    0.0000
     61 H25       -0.4342    6.4220   18.9006 H         1 RES1    0.0000
     62 H26        1.0461    6.0346   18.5618 H         1 RES1    0.0000
@<TRIPOS>BOND
     1    1    2 1
     2    3    1 1
     3    4    3 1
     4    5    3 1
     5    6    5 1
     6    7    6 2
     7    8    6 1
     8    9    8 1
     9   10    8 1
    10   11    8 1
    11   12    3 1
    12   13   12 1
    13   14   12 1
    14   15   14 1
    15   16   15 2
    16   17   15 1
    17   18   17 1
    18   19   17 1
    19   20   17 1
    20   21   12 1
    21   22   21 1
    22   23   21 1
    23   24   23 1
    24   25   24 2
    25   26   24 1
    26   27   26 1
    27   28   26 1
    28   29   26 1
    29   30   21 1
    30   31   30 1
    31   32    1 1
    32   33   30 1
    33   34   33 1
    34   35   33 1
    35   36   33 1
    36   37   36 1
    37   38   37 2
    38   39   37 1
    39   40   39 1
    40   41   39 1
    41   42   39 1
    42   43    1 1
    43   44   43 1
    44   45   44 ar
    45   46   45 1
    46   47   45 ar
    47   48   47 1
    48   49   47 ar
    49   50   49 ar
    50   51   50 1
    51   52   44 ar
    52   53   52 1
    53   54   49 1
    54   55   54 2
    55   56   54 2
    56   57   43 1
    57   58   57 2
    58   59   57 1
    59   60   59 1
    60   61   59 1
    61   62   59 1
    62   30   32 1
    63   50   52 ar
@<TRIPOS>SUBSTRUCTURE
     1 RES1 1

@<TRIPOS>CRYSIN
   6.9927   13.6900   25.4760  90.0000  90.0000  90.0000  19 1

