# MOL2 file generated by ConQuest
# Please check atom types

@<TRIPOS>MOLECULE
KEPJEV
    62    63     1
SMALL
NO_CHARGES
****
Generated from CSD

@<TRIPOS>ATOM
      1 C1         0.9730    6.8999   14.5066 C.3       1 RES1    0.0000
      2 H1         0.1366    6.3903   14.4943 H         1 RES1    0.0000
      3 C2         0.8144    8.1432   13.6577 C.3       1 RES1    0.0000
      4 H2         1.6344    8.6803   13.6684 H         1 RES1    0.0000
      5 O1        -0.3035    8.8997   14.1806 O.3       1 RES1    0.0000
      6 C3        -0.1406   10.2436   14.3592 C.2       1 RES1    0.0000
      7 O2         0.9250   10.7949   14.2311 O.2       1 RES1    0.0000
      8 C4        -1.4329   10.8893   14.6918 C.3       1 RES1    0.0000
      9 H3        -1.2686   11.7299   15.1247 H         1 RES1    0.0000
     10 H4        -1.9337   10.3184   15.2804 H         1 RES1    0.0000
     11 H5        -1.9335   11.0363   13.8857 H         1 RES1    0.0000
     12 C5         0.4453    7.7460   12.2381 C.3       1 RES1    0.0000
     13 H6        -0.4612    7.3733   12.2302 H         1 RES1    0.0000
     14 O3         0.4711    8.9634   11.4600 O.3       1 RES1    0.0000
     15 C6        -0.4834    9.1128   10.5088 C.2       1 RES1    0.0000
     16 O4        -1.3208    8.2918   10.2598 O.2       1 RES1    0.0000
     17 C7        -0.3299   10.4269    9.8247 C.3       1 RES1    0.0000
     18 H7         0.3835   10.3734    9.1853 H         1 RES1    0.0000
     19 H8        -0.1263   11.1040   10.4732 H         1 RES1    0.0000
     20 H9        -1.1476   10.6510    9.3737 H         1 RES1    0.0000
     21 C8         1.4186    6.7206   11.6764 C.3       1 RES1    0.0000
     22 H10        2.2668    7.1468   11.4314 H         1 RES1    0.0000
     23 O5         0.8240    6.0694   10.5271 O.3       1 RES1    0.0000
     24 C9         1.1502    6.5051    9.2871 C.2       1 RES1    0.0000
     25 O6         1.8536    7.4519    9.0945 O.2       1 RES1    0.0000
     26 C10        0.5168    5.6550    8.2400 C.3       1 RES1    0.0000
     27 H11        0.5141    6.1261    7.4029 H         1 RES1    0.0000
     28 H12       -0.3851    5.4505    8.4952 H         1 RES1    0.0000
     29 H13        1.0147    4.8395    8.1456 H         1 RES1    0.0000
     30 C11        1.6548    5.5819   12.6694 C.3       1 RES1    0.0000
     31 H14        0.8243    5.0691   12.7609 H         1 RES1    0.0000
     32 O7         2.0004    6.1190   13.9448 O.3       1 RES1    0.0000
     33 C12        2.7512    4.6484   12.2580 C.3       1 RES1    0.0000
     34 H15        2.8936    3.9721   12.9384 H         1 RES1    0.0000
     35 H16        2.5245    4.2065   11.4241 H         1 RES1    0.0000
     36 O8         3.9447    5.4615   12.0932 O.3       1 RES1    0.0000
     37 C13        5.1205    4.8293   12.1847 C.2       1 RES1    0.0000
     38 O9         5.2237    3.6426   12.3055 O.2       1 RES1    0.0000
     39 C14        6.2508    5.8013   12.1631 C.3       1 RES1    0.0000
     40 H17        6.4448    6.0859   13.0597 H         1 RES1    0.0000
     41 H18        6.0084    6.5625   11.6324 H         1 RES1    0.0000
     42 H19        7.0275    5.3813   11.7864 H         1 RES1    0.0000
     43 N1         1.3489    7.1720   15.8880 N.am      1 RES1    0.0000
     44 C15        2.7174    7.5148   16.1515 C.ar      1 RES1    0.0000
     45 C16        3.7335    6.5633   16.2321 C.ar      1 RES1    0.0000
     46 C17        5.0523    6.8928   16.4488 C.ar      1 RES1    0.0000
     47 H20        5.7068    6.2322   16.4705 H         1 RES1    0.0000
     48 C18        5.3864    8.2163   16.6342 C.ar      1 RES1    0.0000
     49 H21        6.2668    8.4538   16.8183 H         1 RES1    0.0000
     50 C19        4.4039    9.1946   16.5464 C.ar      1 RES1    0.0000
     51 H22        4.6303   10.0895   16.6589 H         1 RES1    0.0000
     52 C20        3.0877    8.8407   16.2906 C.ar      1 RES1    0.0000
     53 H23        2.4434    9.5060   16.2115 H         1 RES1    0.0000
     54 N2         3.4517    5.1226   16.0981 N.pl3     1 RES1    0.0000
     55 O10        2.4644    4.6744   16.6668 O.2       1 RES1    0.0000
     56 O11        4.2528    4.4581   15.4505 O.2       1 RES1    0.0000
     57 C21        0.4696    6.8267   16.8996 C.2       1 RES1    0.0000
     58 O12       -0.6413    6.4005   16.6455 O.2       1 RES1    0.0000
     59 C22        0.9533    7.0328   18.3023 C.3       1 RES1    0.0000
     60 H24        0.2119    6.9714   18.9086 H         1 RES1    0.0000
     61 H25        1.3573    7.9002   18.3778 H         1 RES1    0.0000
     62 H26        1.6012    6.3580   18.5191 H         1 RES1    0.0000
@<TRIPOS>BOND
     1    1    2 1
     2    3    1 1
     3    4    3 1
     4    5    3 1
     5    6    5 1
     6    7    6 2
     7    8    6 1
     8    9    8 1
     9   10    8 1
    10   11    8 1
    11   12    3 1
    12   13   12 1
    13   14   12 1
    14   15   14 1
    15   16   15 2
    16   17   15 1
    17   18   17 1
    18   19   17 1
    19   20   17 1
    20   21   12 1
    21   22   21 1
    22   23   21 1
    23   24   23 1
    24   25   24 2
    25   26   24 1
    26   27   26 1
    27   28   26 1
    28   29   26 1
    29   30   21 1
    30   31   30 1
    31   32    1 1
    32   33   30 1
    33   34   33 1
    34   35   33 1
    35   36   33 1
    36   37   36 1
    37   38   37 2
    38   39   37 1
    39   40   39 1
    40   41   39 1
    41   42   39 1
    42   43    1 1
    43   44   43 1
    44   45   44 ar
    45   46   45 ar
    46   47   46 1
    47   48   46 ar
    48   49   48 1
    49   50   48 ar
    50   51   50 1
    51   52   44 ar
    52   53   52 1
    53   54   45 1
    54   55   54 2
    55   56   54 2
    56   57   43 1
    57   58   57 2
    58   59   57 1
    59   60   59 1
    60   61   59 1
    61   62   59 1
    62   30   32 1
    63   50   52 ar
@<TRIPOS>SUBSTRUCTURE
     1 RES1 1

@<TRIPOS>CRYSIN
   8.8620    7.8640   18.5640  90.0000 102.6500  90.0000   4 1

