# MOL2 file generated by ConQuest
# Please check atom types

@<TRIPOS>MOLECULE
KEPZOW
    41    42     1
SMALL
NO_CHARGES
****
Generated from CSD

@<TRIPOS>ATOM
      1 C1         3.8257    9.3129    1.2654 C.3       1 RES1    0.0000
      2 H1         3.2866    8.5329    1.0157 H         1 RES1    0.0000
      3 H2         3.5187   10.0964    0.7636 H         1 RES1    0.0000
      4 H3         3.7298    9.4819    2.2260 H         1 RES1    0.0000
      5 C2         5.2628    9.0480    0.9473 C.3       1 RES1    0.0000
      6 H4         5.3755    8.8877   -0.0231 H         1 RES1    0.0000
      7 H5         5.8194    9.8256    1.2045 H         1 RES1    0.0000
      8 C3         6.9711    7.6720    1.8403 C.2       1 RES1    0.0000
      9 C4         7.2873    6.3987    2.6383 C.3       1 RES1    0.0000
     10 C5         7.3944    5.2230    1.6245 C.3       1 RES1    0.0000
     11 H6         7.7553    5.5575    0.7535 H         1 RES1    0.0000
     12 C6         5.2621    5.2379    2.5113 C.2       1 RES1    0.0000
     13 C7         8.5068    6.6311    3.5130 C.3       1 RES1    0.0000
     14 H7         8.3379    7.3862    4.1148 H         1 RES1    0.0000
     15 H8         9.2814    6.8310    2.9464 H         1 RES1    0.0000
     16 H9         8.6878    5.8258    4.0414 H         1 RES1    0.0000
     17 C8         8.1973    4.0408    2.0890 C.3       1 RES1    0.0000
     18 H10        7.8819    3.7591    2.9738 H         1 RES1    0.0000
     19 H11        9.1439    4.2894    2.1439 H         1 RES1    0.0000
     20 H12        8.0900    3.3024    1.4537 H         1 RES1    0.0000
     21 C9         5.7450    6.3025    5.6060 C.2       1 RES1    0.0000
     22 C10        4.7883    6.9770    6.5276 C.ar      1 RES1    0.0000
     23 C11        5.0561    6.9247    7.8972 C.ar      1 RES1    0.0000
     24 H13        5.8605    6.5277    8.2095 H         1 RES1    0.0000
     25 C12        4.1454    7.4538    8.8005 C.ar      1 RES1    0.0000
     26 H14        4.3121    7.4280    9.7353 H         1 RES1    0.0000
     27 C13        2.9836    8.0225    8.2971 C.ar      1 RES1    0.0000
     28 C14        2.6919    8.0893    6.9484 C.ar      1 RES1    0.0000
     29 H15        1.8851    8.4857    6.6420 H         1 RES1    0.0000
     30 C15        3.6141    7.5596    6.0531 C.ar      1 RES1    0.0000
     31 H16        3.4441    7.5944    5.1191 H         1 RES1    0.0000
     32 N1         6.1449    5.8688    3.3790 N.am      1 RES1    0.0000
     33 N2         2.0016    8.5852    9.2464 N.pl3     1 RES1    0.0000
     34 O1         5.6646    7.8646    1.7056 O.3       1 RES1    0.0000
     35 O2         7.8352    8.3632    1.3659 O.2       1 RES1    0.0000
     36 O3         4.0878    5.0497    2.6654 O.2       1 RES1    0.0000
     37 O4         5.9854    4.8133    1.4579 O.3       1 RES1    0.0000
     38 O5         5.5047    6.7167    4.3063 O.3       1 RES1    0.0000
     39 O6         6.5789    5.5122    5.9165 O.2       1 RES1    0.0000
     40 O7         1.0128    9.1405    8.7881 O.2       1 RES1    0.0000
     41 O8         2.2311    8.4875   10.4407 O.2       1 RES1    0.0000
@<TRIPOS>BOND
     1    1    2 1
     2    3    1 1
     3    4    1 1
     4    5    1 1
     5    6    5 1
     6    7    5 1
     7    8    9 1
     8    9   10 1
     9   10   11 1
    10   12   32 1
    11   13    9 1
    12   14   13 1
    13   15   13 1
    14   16   13 1
    15   17   10 1
    16   18   17 1
    17   19   17 1
    18   20   17 1
    19   21   22 1
    20   22   23 ar
    21   23   24 1
    22   25   23 ar
    23   26   25 1
    24   27   25 ar
    25   28   27 ar
    26   29   28 1
    27   30   22 ar
    28   31   30 1
    29   32    9 1
    30   33   27 1
    31   34    5 1
    32   35    8 2
    33   36   12 2
    34   37   10 1
    35   38   21 1
    36   39   21 2
    37   40   33 2
    38   41   33 2
    39    8   34 1
    40   12   37 1
    41   28   30 ar
    42   32   38 1
@<TRIPOS>SUBSTRUCTURE
     1 RES1 1

@<TRIPOS>CRYSIN
   7.3187    7.5958   14.8087  76.6510  89.9430  87.0980   2 1

