# MOL2 file generated by ConQuest
# Please check atom types

@<TRIPOS>MOLECULE
KEPZIQ
   188   188     4
SMALL
NO_CHARGES
****
Generated from CSD

@<TRIPOS>ATOM
      1 C1         0.7741   10.5835   28.9668 C.3       1 RES1    0.0000
      2 C2         1.6956    9.9569   29.9837 C.3       1 RES1    0.0000
      3 H1         1.1965    9.7753   30.8080 H         1 RES1    0.0000
      4 H2         2.4351   10.5708   30.1779 H         1 RES1    0.0000
      5 H3         2.0537    9.1175   29.6279 H         1 RES1    0.0000
      6 C3         0.1560   11.8593   29.4984 C.3       1 RES1    0.0000
      7 H4        -0.4917   12.2038   28.8481 H         1 RES1    0.0000
      8 H5         0.8596   12.5259   29.6453 H         1 RES1    0.0000
      9 H6        -0.2983   11.6728   30.3450 H         1 RES1    0.0000
     10 C4         1.4745   10.8051   27.6336 C.3       1 RES1    0.0000
     11 H7         1.6758    9.9383   27.2224 H         1 RES1    0.0000
     12 H8         2.3090   11.2980   27.7794 H         1 RES1    0.0000
     13 H9         0.8913   11.3205   27.0379 H         1 RES1    0.0000
     14 C5        -1.1717    9.6016   27.8640 C.2       1 RES1    0.0000
     15 C6        -1.9309    8.2712   27.7095 C.3       1 RES1    0.0000
     16 C7        -3.1944    8.5074   26.8823 C.3       1 RES1    0.0000
     17 H10       -3.6857    7.6651   26.7873 H         1 RES1    0.0000
     18 H11       -2.9473    8.8422   25.9971 H         1 RES1    0.0000
     19 H12       -3.7617    9.1672   27.3338 H         1 RES1    0.0000
     20 C8        -1.0548    7.2981   26.8775 C.2       1 RES1    0.0000
     21 C9        -1.5714    5.9052   26.6655 C.3       1 RES1    0.0000
     22 H13       -1.9201    5.8203   25.7534 H         1 RES1    0.0000
     23 H14       -2.2884    5.7217   27.3060 H         1 RES1    0.0000
     24 H15       -0.8422    5.2630   26.7977 H         1 RES1    0.0000
     25 C10       -1.3506    6.9848   29.7393 C.2       1 RES1    0.0000
     26 C11       -0.9469    5.9228   31.8040 C.3       1 RES1    0.0000
     27 H16       -0.0060    6.2244   31.8732 H         1 RES1    0.0000
     28 H17       -0.9600    5.0277   31.3824 H         1 RES1    0.0000
     29 C12       -1.5718    5.8623   33.1602 C.ar      1 RES1    0.0000
     30 C13       -2.9534    5.8467   33.3193 C.ar      1 RES1    0.0000
     31 H18       -3.5174    5.8652   32.5555 H         1 RES1    0.0000
     32 C14       -3.5066    5.8047   34.5847 C.ar      1 RES1    0.0000
     33 H19       -4.4512    5.8096   34.6860 H         1 RES1    0.0000
     34 C15       -2.6993    5.7559   35.7004 C.ar      1 RES1    0.0000
     35 H20       -3.0851    5.7237   36.5693 H         1 RES1    0.0000
     36 C16       -1.3295    5.7539   35.5469 C.ar      1 RES1    0.0000
     37 H21       -0.7669    5.7090   36.3117 H         1 RES1    0.0000
     38 C17       -0.7706    5.8184   34.2794 C.ar      1 RES1    0.0000
     39 H22        0.1752    5.8330   34.1812 H         1 RES1    0.0000
     40 N1        -2.2633    7.6748   29.0058 N.am      1 RES1    0.0000
     41 O1        -0.2615    9.5291   28.8276 O.3       1 RES1    0.0000
     42 O2        -1.3943   10.5581   27.1674 O.2       1 RES1    0.0000
     43 O3        -3.1711    8.4631   29.7386 O.3       1 RES1    0.0000
     44 H23       -3.8746    8.0262   29.8751 H         1 RES1    0.0000
     45 O4        -0.3633    6.4711   29.2425 O.2       1 RES1    0.0000
     46 O5        -1.7173    6.8625   31.0127 O.3       1 RES1    0.0000
     47 O6        -0.0717    7.7206   26.3191 O.2       1 RES1    0.0000
     48 C18        8.5077   11.3449   12.3458 C.3       2 RES2    0.0000
     49 C19        7.8271   12.6440   12.6926 C.3       2 RES2    0.0000
     50 H24        7.3447   12.9798   11.9090 H         2 RES2    0.0000
     51 H25        8.4992   13.3019   12.9672 H         2 RES2    0.0000
     52 H26        7.1951   12.4956   13.4267 H         2 RES2    0.0000
     53 C20        9.4610   11.4971   11.1734 C.3       2 RES2    0.0000
     54 H27        9.7713   10.6118   10.8890 H         2 RES2    0.0000
     55 H28       10.2283   12.0408   11.4460 H         2 RES2    0.0000
     56 H29        8.9970   11.9354   10.4295 H         2 RES2    0.0000
     57 C21        9.2018   10.7436   13.5559 C.3       2 RES2    0.0000
     58 H30        8.5396   10.5640   14.2552 H         2 RES2    0.0000
     59 H31        9.8726   11.3732   13.8932 H         2 RES2    0.0000
     60 H32        9.6410    9.9061   13.2979 H         2 RES2    0.0000
     61 C22        6.7504   10.3883   10.9447 C.2       2 RES2    0.0000
     62 C23        5.9908    9.0833   10.6825 C.3       2 RES2    0.0000
     63 C24        4.7611    9.3752    9.8220 C.3       2 RES2    0.0000
     64 H33        4.2322    8.5562    9.7193 H         2 RES2    0.0000
     65 H34        5.0478    9.6914    8.9395 H         2 RES2    0.0000
     66 H35        4.2158   10.0643   10.2554 H         2 RES2    0.0000
     67 C25        6.9302    8.1482    9.8812 C.2       2 RES2    0.0000
     68 C26        6.3751    6.8423    9.4126 C.3       2 RES2    0.0000
     69 H36        5.9405    6.9662    8.5427 H         2 RES2    0.0000
     70 H37        5.7200    6.5143   10.0640 H         2 RES2    0.0000
     71 H38        7.1017    6.1912    9.3225 H         2 RES2    0.0000
     72 C27        6.4388    7.7207   12.6978 C.2       2 RES2    0.0000
     73 C28        6.8993    6.7154   14.7621 C.3       2 RES2    0.0000
     74 H39        7.8009    7.1107   14.8679 H         2 RES2    0.0000
     75 H40        6.9947    5.8428   14.3040 H         2 RES2    0.0000
     76 C29        6.2657    6.5201   16.1016 C.ar      2 RES2    0.0000
     77 C30        7.0661    6.4704   17.2264 C.ar      2 RES2    0.0000
     78 H41        7.9962    6.6461   17.1515 H         2 RES2    0.0000
     79 C31        6.5213    6.1668   18.4608 C.ar      2 RES2    0.0000
     80 H42        7.0857    6.1141   19.2228 H         2 RES2    0.0000
     81 C32        5.1690    5.9413   18.5931 C.ar      2 RES2    0.0000
     82 H43        4.7982    5.7266   19.4421 H         2 RES2    0.0000
     83 C33        4.3607    6.0331   17.4795 C.ar      2 RES2    0.0000
     84 H44        3.4248    5.9013   17.5658 H         2 RES2    0.0000
     85 C34        4.8996    6.3152   16.2363 C.ar      2 RES2    0.0000
     86 H45        4.3343    6.3698   15.4736 H         2 RES2    0.0000
     87 N2         5.5646    8.4362   11.9330 N.am      2 RES2    0.0000
     88 O7         7.4955   10.2963   12.0482 O.3       2 RES2    0.0000
     89 O8         6.6854   11.3389   10.2154 O.2       2 RES2    0.0000
     90 O9         4.6427    9.2210   12.6508 O.3       2 RES2    0.0000
     91 H46        3.8671    8.9223   12.5321 H         2 RES2    0.0000
     92 O10        7.4208    7.1799   12.2087 O.2       2 RES2    0.0000
     93 O11        6.0580    7.6033   13.9701 O.3       2 RES2    0.0000
     94 O12        8.0244    8.5486    9.5529 O.2       2 RES2    0.0000
     95 C35       -0.5401    7.1077    4.7159 C.3       3 RES3    0.0000
     96 C36       -0.5955    8.1531    5.8030 C.3       3 RES3    0.0000
     97 H47       -0.8712    7.7344    6.6455 H         3 RES3    0.0000
     98 H48       -1.2419    8.8471    5.5559 H         3 RES3    0.0000
     99 H49        0.2914    8.5553    5.9144 H         3 RES3    0.0000
    100 C37       -0.0950    7.7110    3.3976 C.3       3 RES3    0.0000
    101 H50        0.8227    8.0409    3.4846 H         3 RES3    0.0000
    102 H51       -0.6889    8.4547    3.1609 H         3 RES3    0.0000
    103 H52       -0.1318    7.0277    2.6944 H         3 RES3    0.0000
    104 C38       -1.8664    6.3747    4.6010 C.3       3 RES3    0.0000
    105 H53       -1.8137    5.7168    3.8745 H         3 RES3    0.0000
    106 H54       -2.5797    7.0179    4.4071 H         3 RES3    0.0000
    107 H55       -2.0603    5.9150    5.4445 H         3 RES3    0.0000
    108 C39        0.7768    5.0668    4.5624 C.2       3 RES3    0.0000
    109 C40        1.6787    4.1219    5.3759 C.3       3 RES3    0.0000
    110 C41        2.7004    4.8442    6.2570 C.3       3 RES3    0.0000
    111 H56        3.3166    4.1903    6.6455 H         3 RES3    0.0000
    112 H57        2.2329    5.3206    6.9762 H         3 RES3    0.0000
    113 H58        3.2042    5.4865    5.7125 H         3 RES3    0.0000
    114 C42        0.7923    3.2942    6.3207 C.2       3 RES3    0.0000
    115 C43        1.4189    2.1542    7.0590 C.3       3 RES3    0.0000
    116 H59        1.3583    2.3172    8.0240 H         3 RES3    0.0000
    117 H60        2.3611    2.0751    6.7986 H         3 RES3    0.0000
    118 H61        0.9483    1.3236    6.8369 H         3 RES3    0.0000
    119 C44        1.5512    2.4226    3.6639 C.2       3 RES3    0.0000
    120 C45        1.2392    1.3392    1.6100 C.3       3 RES3    0.0000
    121 H62        0.3738    1.7784    1.4133 H         3 RES3    0.0000
    122 H63        1.0571    0.4793    2.0643 H         3 RES3    0.0000
    123 C46        1.9977    1.1020    0.3446 C.ar      3 RES3    0.0000
    124 C47        1.9332   -0.1386   -0.2719 C.ar      3 RES3    0.0000
    125 H64        1.4363   -0.8375    0.1358 H         3 RES3    0.0000
    126 C48        2.5813   -0.3729   -1.4715 C.ar      3 RES3    0.0000
    127 H65        2.5161   -1.2240   -1.8903 H         3 RES3    0.0000
    128 C49        3.3203    0.6296   -2.0584 C.ar      3 RES3    0.0000
    129 H66        3.7713    0.4695   -2.8789 H         3 RES3    0.0000
    130 C50        3.4043    1.8633   -1.4555 C.ar      3 RES3    0.0000
    131 H67        3.9204    2.5514   -1.8589 H         3 RES3    0.0000
    132 C51        2.7391    2.1064   -0.2639 C.ar      3 RES3    0.0000
    133 H68        2.7910    2.9653    0.1392 H         3 RES3    0.0000
    134 N3         2.3655    3.2396    4.4332 N.am      3 RES3    0.0000
    135 O13        0.4908    6.1713    5.2381 O.3       3 RES3    0.0000
    136 O14        0.3867    4.7944    3.4561 O.2       3 RES3    0.0000
    137 O15        3.3006    3.9825    3.6691 O.3       3 RES3    0.0000
    138 H69        4.0806    3.7393    3.8675 H         3 RES3    0.0000
    139 O16        0.5486    1.9022    4.1168 O.2       3 RES3    0.0000
    140 O17        2.0521    2.1927    2.4601 O.3       3 RES3    0.0000
    141 O18       -0.3574    3.6441    6.5195 O.2       3 RES3    0.0000
    142 C52        4.5202   -1.0542    4.3197 C.3       4 RES4    0.0000
    143 C53        4.0942   -0.5866    2.9478 C.3       4 RES4    0.0000
    144 H70        3.7670    0.3358    3.0042 H         4 RES4    0.0000
    145 H71        3.3786   -1.1664    2.6108 H         4 RES4    0.0000
    146 H72        4.8601   -0.6257    2.3358 H         4 RES4    0.0000
    147 C54        5.1606   -2.4265    4.2393 C.3       4 RES4    0.0000
    148 H73        5.9376   -2.3904    3.6447 H         4 RES4    0.0000
    149 H74        4.5105   -3.0707    3.8884 H         4 RES4    0.0000
    150 H75        5.4461   -2.7066    5.1347 H         4 RES4    0.0000
    151 C55        3.3730   -1.0044    5.3122 C.3       4 RES4    0.0000
    152 H76        3.6965   -1.2640    6.1999 H         4 RES4    0.0000
    153 H77        2.6691   -1.6232    5.0268 H         4 RES4    0.0000
    154 H78        3.0120   -0.0937    5.3505 H         4 RES4    0.0000
    155 C56        6.1163   -0.0693    5.8963 C.2       4 RES4    0.0000
    156 C57        6.9297    1.1986    6.1686 C.3       4 RES4    0.0000
    157 C58        8.0768    0.8902    7.1287 C.3       4 RES4    0.0000
    158 H79        8.6196    0.1591    6.7673 H         4 RES4    0.0000
    159 H80        7.7110    0.6257    7.9996 H         4 RES4    0.0000
    160 H81        8.6359    1.6876    7.2373 H         4 RES4    0.0000
    161 C59        5.9835    2.2030    6.8867 C.2       4 RES4    0.0000
    162 C60        6.5755    3.5080    7.3271 C.3       4 RES4    0.0000
    163 H82        5.8876    4.2059    7.2965 H         4 RES4    0.0000
    164 H83        7.3157    3.7491    6.7290 H         4 RES4    0.0000
    165 H84        6.9097    3.4221    8.2433 H         4 RES4    0.0000
    166 C61        6.6869    2.4909    4.1056 C.2       4 RES4    0.0000
    167 C62        6.4017    3.4660    1.9947 C.3       4 RES4    0.0000
    168 H85        6.3862    4.3816    2.3707 H         4 RES4    0.0000
    169 H86        5.4679    3.1429    1.9181 H         4 RES4    0.0000
    170 C63        7.0553    3.4738    0.6545 C.ar      4 RES4    0.0000
    171 C64        6.7438    2.5534   -0.3098 C.ar      4 RES4    0.0000
    172 H87        6.1488    1.8428   -0.1010 H         4 RES4    0.0000
    173 C65        7.2702    2.6354   -1.5582 C.ar      4 RES4    0.0000
    174 H88        7.0396    1.9824   -2.2070 H         4 RES4    0.0000
    175 C66        8.1204    3.6407   -1.8889 C.ar      4 RES4    0.0000
    176 H89        8.4630    3.7061   -2.7710 H         4 RES4    0.0000
    177 C67        8.4777    4.5524   -0.9455 C.ar      4 RES4    0.0000
    178 H90        9.0956    5.2415   -1.1627 H         4 RES4    0.0000
    179 C68        7.9453    4.4811    0.3321 C.ar      4 RES4    0.0000
    180 H91        8.1922    5.1244    0.9852 H         4 RES4    0.0000
    181 N4         7.4783    1.7872    4.9418 N.am      4 RES4    0.0000
    182 O19        5.5354   -0.0328    4.6943 O.3       4 RES4    0.0000
    183 O20        6.0219   -0.9609    6.7012 O.2       4 RES4    0.0000
    184 O21        8.4550    0.9693    4.3490 O.3       4 RES4    0.0000
    185 H92        9.2180    1.2816    4.5115 H         4 RES4    0.0000
    186 O22        5.6939    3.0823    4.4959 O.2       4 RES4    0.0000
    187 O23        7.1746    2.5739    2.8685 O.3       4 RES4    0.0000
    188 O24        4.8638    1.8634    7.1767 O.2       4 RES4    0.0000
@<TRIPOS>BOND
     1    1    2 1
     2    2    3 1
     3    4    2 1
     4    5    2 1
     5    6    1 1
     6    7    6 1
     7    8    6 1
     8    9    6 1
     9   10    1 1
    10   11   10 1
    11   12   10 1
    12   13   10 1
    13   14   15 1
    14   15   16 1
    15   16   17 1
    16   18   16 1
    17   19   16 1
    18   20   15 1
    19   21   20 1
    20   22   21 1
    21   23   21 1
    22   24   21 1
    23   25   40 1
    24   26   27 1
    25   28   26 1
    26   29   26 1
    27   30   29 ar
    28   31   30 1
    29   32   30 ar
    30   33   32 1
    31   34   32 ar
    32   35   34 1
    33   36   34 ar
    34   37   36 1
    35   38   29 ar
    36   39   38 1
    37   40   15 1
    38   41    1 1
    39   42   14 2
    40   43   40 1
    41   44   43 1
    42   45   25 2
    43   46   25 1
    44   47   20 2
    45   48   49 1
    46   49   50 1
    47   51   49 1
    48   52   49 1
    49   53   48 1
    50   54   53 1
    51   55   53 1
    52   56   53 1
    53   57   48 1
    54   58   57 1
    55   59   57 1
    56   60   57 1
    57   61   62 1
    58   62   63 1
    59   63   64 1
    60   65   63 1
    61   66   63 1
    62   67   62 1
    63   68   67 1
    64   69   68 1
    65   70   68 1
    66   71   68 1
    67   72   87 1
    68   73   74 1
    69   75   73 1
    70   76   73 1
    71   77   76 ar
    72   78   77 1
    73   79   77 ar
    74   80   79 1
    75   81   79 ar
    76   82   81 1
    77   83   81 ar
    78   84   83 1
    79   85   76 ar
    80   86   85 1
    81   87   62 1
    82   88   48 1
    83   89   61 2
    84   90   87 1
    85   91   90 1
    86   92   72 2
    87   93   72 1
    88   94   67 2
    89   95   96 1
    90   96   97 1
    91   98   96 1
    92   99   96 1
    93  100   95 1
    94  101  100 1
    95  102  100 1
    96  103  100 1
    97  104   95 1
    98  105  104 1
    99  106  104 1
   100  107  104 1
   101  108  109 1
   102  109  110 1
   103  110  111 1
   104  112  110 1
   105  113  110 1
   106  114  109 1
   107  115  114 1
   108  116  115 1
   109  117  115 1
   110  118  115 1
   111  119  134 1
   112  120  121 1
   113  122  120 1
   114  123  120 1
   115  124  123 ar
   116  125  124 1
   117  126  124 ar
   118  127  126 1
   119  128  126 ar
   120  129  128 1
   121  130  128 ar
   122  131  130 1
   123  132  123 ar
   124  133  132 1
   125  134  109 1
   126  135   95 1
   127  136  108 2
   128  137  134 1
   129  138  137 1
   130  139  119 2
   131  140  119 1
   132  141  114 2
   133  142  143 1
   134  143  144 1
   135  145  143 1
   136  146  143 1
   137  147  142 1
   138  148  147 1
   139  149  147 1
   140  150  147 1
   141  151  142 1
   142  152  151 1
   143  153  151 1
   144  154  151 1
   145  155  156 1
   146  156  157 1
   147  157  158 1
   148  159  157 1
   149  160  157 1
   150  161  156 1
   151  162  161 1
   152  163  162 1
   153  164  162 1
   154  165  162 1
   155  166  181 1
   156  167  168 1
   157  169  167 1
   158  170  167 1
   159  171  170 ar
   160  172  171 1
   161  173  171 ar
   162  174  173 1
   163  175  173 ar
   164  176  175 1
   165  177  175 ar
   166  178  177 1
   167  179  170 ar
   168  180  179 1
   169  181  156 1
   170  182  142 1
   171  183  155 2
   172  184  181 1
   173  185  184 1
   174  186  166 2
   175  187  166 1
   176  188  161 2
   177   14   41 1
   178   26   46 1
   179   36   38 ar
   180   61   88 1
   181   73   93 1
   182   83   85 ar
   183  108  135 1
   184  120  140 1
   185  130  132 ar
   186  155  182 1
   187  167  187 1
   188  177  179 ar
@<TRIPOS>SUBSTRUCTURE
     1 RES1 1
     2 RES2 48
     3 RES3 95
     4 RES4 142

@<TRIPOS>CRYSIN
  20.7216    9.7607   35.2030  90.0000  98.5550  90.0000  14 1

