# MOL2 file generated by ConQuest
# Please check atom types

@<TRIPOS>MOLECULE
KEQFOD
    70    72     2
SMALL
NO_CHARGES
****
Generated from CSD

@<TRIPOS>ATOM
      1 O1         2.2875    5.7607   14.9930 O.3       1 RES1    0.0000
      2 O2         0.7658    3.1721   14.9298 O.2       1 RES1    0.0000
      3 O3         2.5014    2.7623   13.7722 O.2       1 RES1    0.0000
      4 N1         1.9538    2.9855   14.8303 N.pl3     1 RES1    0.0000
      5 C1         3.7671    4.1752   16.1838 C.3       1 RES1    0.0000
      6 C2         2.9916    5.5246   16.2119 C.3       1 RES1    0.0000
      7 C3         2.0574    5.6506   17.3824 C.2       1 RES1    0.0000
      8 C4         2.4874    5.1803   18.5528 C.2       1 RES1    0.0000
      9 C5         3.7917    4.5403   18.6880 C.ar      1 RES1    0.0000
     10 C6         4.3962    4.4093   19.9526 C.ar      1 RES1    0.0000
     11 C7         5.6252    3.8061   20.0759 C.ar      1 RES1    0.0000
     12 C8         6.2779    3.3268   18.9833 C.ar      1 RES1    0.0000
     13 C9         5.7039    3.4449   17.7106 C.ar      1 RES1    0.0000
     14 C10        4.4602    4.0521   17.5537 C.ar      1 RES1    0.0000
     15 C11        2.7901    2.9687   16.0964 C.3       1 RES1    0.0000
     16 C12        3.4247    1.5836   16.1779 C.3       1 RES1    0.0000
     17 C13        4.7627    4.2079   15.0380 C.3       1 RES1    0.0000
     18 C14        0.7521    6.3729   17.2193 C.3       1 RES1    0.0000
     19 H1         2.8011    6.0752   14.4367 H         1 RES1    0.0000
     20 H2         3.6596    6.2360   16.2993 H         1 RES1    0.0000
     21 H3         1.9426    5.2606   19.3020 H         1 RES1    0.0000
     22 H4         3.9617    4.7318   20.7094 H         1 RES1    0.0000
     23 H5         6.0162    3.7257   20.9162 H         1 RES1    0.0000
     24 H6         7.1084    2.9191   19.0801 H         1 RES1    0.0000
     25 H7         6.1555    3.1155   16.9670 H         1 RES1    0.0000
     26 H8         2.1705    3.0451   16.8513 H         1 RES1    0.0000
     27 H9         4.0752    1.4883   15.4780 H         1 RES1    0.0000
     28 H10        2.7446    0.9138   16.0755 H         1 RES1    0.0000
     29 H11        3.8535    1.4774   17.0296 H         1 RES1    0.0000
     30 H12        5.3201    4.9848   15.1214 H         1 RES1    0.0000
     31 H13        4.2899    4.2417   14.2034 H         1 RES1    0.0000
     32 H14        5.3083    3.4181   15.0645 H         1 RES1    0.0000
     33 H15        0.4696    6.7182   18.0691 H         1 RES1    0.0000
     34 H16        0.0890    5.7647   16.8854 H         1 RES1    0.0000
     35 H17        0.8626    7.0982   16.6009 H         1 RES1    0.0000
     36 O4        -0.1832    6.9097   14.0055 O.3       2 RES2    0.0000
     37 O5        -3.0190    6.9424   12.9809 O.2       2 RES2    0.0000
     38 O6        -2.8333    8.5339   14.3936 O.2       2 RES2    0.0000
     39 N2        -2.5875    8.0338   13.3263 N.pl3     2 RES2    0.0000
     40 C15       -0.2776    8.9328   12.6922 C.3       2 RES2    0.0000
     41 C16        0.3785    7.5358   12.8557 C.3       2 RES2    0.0000
     42 C17        0.2818    6.6974   11.6218 C.2       2 RES2    0.0000
     43 C18        0.4733    7.3244   10.4685 C.2       2 RES2    0.0000
     44 C19        0.7133    8.7621   10.3889 C.ar      2 RES2    0.0000
     45 C20        1.2798    9.3545    9.2261 C.ar      2 RES2    0.0000
     46 C21        1.5517   10.7177    9.2147 C.ar      2 RES2    0.0000
     47 C22        1.2582   11.4748   10.2694 C.ar      2 RES2    0.0000
     48 C23        0.6908   10.9291   11.3961 C.ar      2 RES2    0.0000
     49 C24        0.4009    9.5718   11.4729 C.ar      2 RES2    0.0000
     50 C25       -1.7820    8.8097   12.3024 C.3       2 RES2    0.0000
     51 C26       -2.5220   10.1363   12.1055 C.3       2 RES2    0.0000
     52 C27       -0.0463    9.7513   13.9700 C.3       2 RES2    0.0000
     53 C28        0.0791    5.2130   11.7735 C.3       2 RES2    0.0000
     54 H18        0.3677    6.4007   14.3361 H         2 RES2    0.0000
     55 H19        1.3307    7.6796   13.0368 H         2 RES2    0.0000
     56 H20        0.4544    6.8293    9.6813 H         2 RES2    0.0000
     57 H21        1.4672    8.8336    8.4788 H         2 RES2    0.0000
     58 H22        1.9410   11.1047    8.4636 H         2 RES2    0.0000
     59 H23        1.4401   12.3866   10.2447 H         2 RES2    0.0000
     60 H24        0.4968   11.4778   12.1225 H         2 RES2    0.0000
     61 H25       -1.8281    8.3176   11.4568 H         2 RES2    0.0000
     62 H26       -2.0098   10.7058   11.5250 H         2 RES2    0.0000
     63 H27       -2.6390   10.5669   12.9552 H         2 RES2    0.0000
     64 H28       -3.3811    9.9676   11.7109 H         2 RES2    0.0000
     65 H29        0.8476   10.1016   13.9700 H         2 RES2    0.0000
     66 H30       -0.1671    9.1868   14.7383 H         2 RES2    0.0000
     67 H31       -0.6739   10.4766   14.0042 H         2 RES2    0.0000
     68 H32       -0.7027    4.9451   11.2842 H         2 RES2    0.0000
     69 H33       -0.0330    4.9977   12.7011 H         2 RES2    0.0000
     70 H34        0.8455    4.7487   11.4283 H         2 RES2    0.0000
@<TRIPOS>BOND
     1    1    6 1
     2    2    4 2
     3    3    4 2
     4    4   15 1
     5    5    6 1
     6    6    7 1
     7    7    8 2
     8    8    9 1
     9    9   10 ar
    10   10   11 ar
    11   11   12 ar
    12   12   13 ar
    13   13   14 ar
    14   14    5 1
    15   15    5 1
    16   16   15 1
    17   17    5 1
    18   18    7 1
    19   19    1 1
    20   20    6 1
    21   21    8 1
    22   22   10 1
    23   23   11 1
    24   24   12 1
    25   25   13 1
    26   26   15 1
    27   27   16 1
    28   28   16 1
    29   29   16 1
    30   30   17 1
    31   31   17 1
    32   32   17 1
    33   33   18 1
    34   34   18 1
    35   35   18 1
    36   36   41 1
    37   37   39 2
    38   38   39 2
    39   39   50 1
    40   40   41 1
    41   41   42 1
    42   42   43 2
    43   43   44 1
    44   44   45 ar
    45   45   46 ar
    46   46   47 ar
    47   47   48 ar
    48   48   49 ar
    49   49   40 1
    50   50   40 1
    51   51   50 1
    52   52   40 1
    53   53   42 1
    54   54   36 1
    55   55   41 1
    56   56   43 1
    57   57   45 1
    58   58   46 1
    59   59   47 1
    60   60   48 1
    61   61   50 1
    62   62   51 1
    63   63   51 1
    64   64   51 1
    65   65   52 1
    66   66   52 1
    67   67   52 1
    68   68   53 1
    69   69   53 1
    70   70   53 1
    71    9   14 ar
    72   44   49 ar
@<TRIPOS>SUBSTRUCTURE
     1 RES1 1
     2 RES2 36

@<TRIPOS>CRYSIN
   7.0718    9.9220   19.0480  90.0000  95.2480  90.0000   4 1

