# MOL2 file generated by ConQuest
# Please check atom types

@<TRIPOS>MOLECULE
KEQKIB
    51    51     2
SMALL
NO_CHARGES
****
Generated from CSD

@<TRIPOS>ATOM
      1 C1         0.1036    2.3152   -2.0727 C.ar      1 RES1    0.0000
      2 H1         0.1036    1.3849   -2.0727 H         1 RES1    0.0000
      3 C2         0.7460    3.0088   -1.0728 C.ar      1 RES1    0.0000
      4 H2         1.1705    2.5597   -0.3781 H         1 RES1    0.0000
      5 C3         0.7426    4.3963   -1.1285 C.ar      1 RES1    0.0000
      6 C4         1.4659    5.2020   -0.0821 C.2       1 RES1    0.0000
      7 C5         2.5021    8.5068   -0.0738 C.2       1 RES1    0.0000
      8 H3         2.0636    8.7499   -0.8573 H         1 RES1    0.0000
      9 C6         3.2630    9.5054    0.6964 C.ar      1 RES1    0.0000
     10 C7         4.1256    9.0970    1.7021 C.ar      1 RES1    0.0000
     11 H4         4.1787    8.1919    1.9093 H         1 RES1    0.0000
     12 C8         4.9071    9.9902    2.4051 C.ar      1 RES1    0.0000
     13 H5         5.4895    9.6820    3.0617 H         1 RES1    0.0000
     14 C9         4.8263   11.3359    2.1365 C.ar      1 RES1    0.0000
     15 H6         5.3634   11.9376    2.5991 H         1 RES1    0.0000
     16 C10        3.9543   11.7834    1.1872 C.ar      1 RES1    0.0000
     17 H7         3.8709   12.6958    1.0247 H         1 RES1    0.0000
     18 C11        3.1944   10.8775    0.4643 C.ar      1 RES1    0.0000
     19 N1         0.1036    5.0889   -2.0727 N.ar      1 RES1    0.0000
     20 N2         1.7680    6.4493   -0.4908 N.am      1 RES1    0.0000
     21 H8         1.6081    6.6969   -1.3348 H         1 RES1    0.0000
     22 N3         2.4537    7.3051    0.3468 N.2       1 RES1    0.0000
     23 N4         2.3042   11.4403   -0.5629 N.pl3     1 RES1    0.0000
     24 O1         1.7416    4.7436    1.0088 O.2       1 RES1    0.0000
     25 O2         2.2977   10.8429   -1.6747 O.2       1 RES1    0.0000
     26 O3         1.7229   12.4556   -0.2893 O.2       1 RES1    0.0000
     27 O4         1.4444   10.8454   -1.0844 Du        2 SUP2    0.0000
     28 O5         2.1751   12.6532   -0.6218 Du        2 SUP2    0.0000
     29 C2B       -0.5388    3.0088   -3.0725 C.ar      1 RES1    0.0000
     30 H2B       -0.9633    2.5597   -3.7673 H         1 RES1    0.0000
     31 C3B       -0.5354    4.3963   -3.0168 C.ar      1 RES1    0.0000
     32 C4B       -1.2588    5.2020   -4.0632 C.2       1 RES1    0.0000
     33 C5B       -2.2950    8.5068   -4.0715 C.2       1 RES1    0.0000
     34 H3B       -1.8564    8.7499   -3.2881 H         1 RES1    0.0000
     35 C6B       -3.0558    9.5054   -4.8417 C.ar      1 RES1    0.0000
     36 C7B       -3.9185    9.0970   -5.8474 C.ar      1 RES1    0.0000
     37 H4B       -3.9716    8.1919   -6.0547 H         1 RES1    0.0000
     38 C8B       -4.7000    9.9902   -6.5504 C.ar      1 RES1    0.0000
     39 H5B       -5.2823    9.6820   -7.2071 H         1 RES1    0.0000
     40 C9B       -4.6191   11.3359   -6.2818 C.ar      1 RES1    0.0000
     41 H6B       -5.1563   11.9376   -6.7444 H         1 RES1    0.0000
     42 C10B      -3.7471   11.7834   -5.3325 C.ar      1 RES1    0.0000
     43 H7B       -3.6637   12.6958   -5.1701 H         1 RES1    0.0000
     44 C11B      -2.9873   10.8775   -4.6096 C.ar      1 RES1    0.0000
     45 N2B       -1.5608    6.4493   -3.6545 N.am      1 RES1    0.0000
     46 H8B       -1.4009    6.6969   -2.8105 H         1 RES1    0.0000
     47 N3B       -2.2465    7.3051   -4.4921 N.2       1 RES1    0.0000
     48 N4B       -2.0971   11.4403   -3.5824 N.pl3     1 RES1    0.0000
     49 O1B       -1.5344    4.7436   -5.1541 O.2       1 RES1    0.0000
     50 O2B       -2.0906   10.8429   -2.4706 O.2       1 RES1    0.0000
     51 O3B       -1.5158   12.4556   -3.8560 O.2       1 RES1    0.0000
@<TRIPOS>BOND
     1    1    2 1
     2    3    1 ar
     3    4    3 1
     4    5    3 ar
     5    6    5 1
     6    7    8 1
     7    9    7 1
     8   10    9 ar
     9   11   10 1
    10   12   10 ar
    11   13   12 1
    12   14   12 ar
    13   15   14 1
    14   16   14 ar
    15   17   16 1
    16   18    9 ar
    17   19    5 ar
    18   20    6 1
    19   21   20 1
    20   22    7 2
    21   23   18 1
    22   24    6 2
    23   25   23 2
    24   26   23 2
    25   29    1 ar
    26   30   29 1
    27   31   19 ar
    28   32   31 1
    29   33   34 1
    30   35   33 1
    31   36   35 ar
    32   37   36 1
    33   38   36 ar
    34   39   38 1
    35   40   38 ar
    36   41   40 1
    37   42   40 ar
    38   43   42 1
    39   44   35 ar
    40   45   32 1
    41   46   45 1
    42   47   33 2
    43   48   44 1
    44   49   32 2
    45   50   48 2
    46   51   48 2
    47   16   18 ar
    48   20   22 1
    49   29   31 ar
    50   42   44 ar
    51   45   47 1
@<TRIPOS>SUBSTRUCTURE
     1 RES1 1
     2 SUP2 27

@<TRIPOS>CRYSIN
  19.8890   12.5106    8.3010  90.0000  92.8610  90.0000  15 1

