# MOL2 file generated by ConQuest
# Please check atom types

@<TRIPOS>MOLECULE
KEQTEG
    58    52     2
SMALL
NO_CHARGES
****
Generated from CSD

@<TRIPOS>ATOM
      1 O1         8.5881   11.7749    3.0705 O.2       1 RES1    0.0000
      2 O2         6.9587   13.1098    2.2941 O.3       1 RES1    0.0000
      3 O3         5.8747    7.3406    6.4809 O.2       1 RES1    0.0000
      4 O4        11.4708    9.9624    8.4096 O.2       1 RES1    0.0000
      5 O5        11.4370    9.0094    6.4941 O.2       1 RES1    0.0000
      6 N1         4.1575   10.5614    4.1403 N.3       1 RES1    0.0000
      7 N2         7.3256    7.1391    4.7700 N.am      1 RES1    0.0000
      8 N3        10.9198    9.7036    7.3583 N.pl3     1 RES1    0.0000
      9 C1         5.0216   11.4511    3.5632 C.2       1 RES1    0.0000
     10 C2         6.3679   11.2162    3.6159 C.2       1 RES1    0.0000
     11 C3         6.9486   10.0250    4.3616 C.3       1 RES1    0.0000
     12 H1         7.5901    9.5569    3.7529 H         1 RES1    0.0000
     13 C4         5.8649    9.0315    4.7674 C.2       1 RES1    0.0000
     14 C5         4.5532    9.3372    4.6866 C.2       1 RES1    0.0000
     15 C6         4.3209   12.6183    2.9186 C.3       1 RES1    0.0000
     16 H2         4.5016   13.4325    3.4324 H         1 RES1    0.0000
     17 H3         3.3551   12.4498    2.9010 H         1 RES1    0.0000
     18 H4         4.6499   12.7306    2.0025 H         1 RES1    0.0000
     19 C7         3.4043    8.4735    5.1064 C.3       1 RES1    0.0000
     20 H5         3.7273    7.5676    5.2935 H         1 RES1    0.0000
     21 H6         2.7406    8.4413    4.3862 H         1 RES1    0.0000
     22 H7         2.9930    8.8460    5.9135 H         1 RES1    0.0000
     23 C8         7.3974   12.0401    2.9879 C.2       1 RES1    0.0000
     24 C9         7.9825   13.9690    1.7171 C.3       1 RES1    0.0000
     25 H8         8.5896   13.4430    1.1383 H         1 RES1    0.0000
     26 H9         8.5183   14.3958    2.4320 H         1 RES1    0.0000
     27 C10        7.2635   15.0031    0.9161 C.3       1 RES1    0.0000
     28 H10        6.7160   14.5646    0.2319 H         1 RES1    0.0000
     29 H11        7.9166   15.5921    0.4831 H         1 RES1    0.0000
     30 H12        6.6875   15.5324    1.5063 H         1 RES1    0.0000
     31 C11        6.3301    7.7638    5.4015 C.2       1 RES1    0.0000
     32 C12        8.0756    6.0442    5.3769 C.3       1 RES1    0.0000
     33 H13        7.4945    5.2855    5.4674 H         1 RES1    0.0000
     34 H14        8.3515    6.3071    6.2578 H         1 RES1    0.0000
     35 H15        7.7398    5.2108    5.0387 Du        2 SUP2    0.0000
     36 H16        7.9323    6.0561    6.3254 Du        2 SUP2    0.0000
     37 C13        7.6996   10.4340    5.6211 C.ar      1 RES1    0.0000
     38 C14        8.9621    9.9071    5.9039 C.ar      1 RES1    0.0000
     39 H17        9.3910    9.3239    5.2882 H         1 RES1    0.0000
     40 C15        9.5793   10.2505    7.1010 C.ar      1 RES1    0.0000
     41 C16        9.0020   11.0821    8.0355 C.ar      1 RES1    0.0000
     42 H18        9.4452   11.2879    8.8505 H         1 RES1    0.0000
     43 C17        7.7496   11.6082    7.7456 C.ar      1 RES1    0.0000
     44 H19        7.3248   12.1870    8.3675 H         1 RES1    0.0000
     45 C18        7.1158   11.2915    6.5529 C.ar      1 RES1    0.0000
     46 H20        6.2640   11.6672    6.3658 H         1 RES1    0.0000
     47 C19        9.2683    5.6634    4.6207 C.3       1 RES1    0.0000
     48 H21        9.7974    5.0421    5.1819 H         1 RES1    0.0000
     49 H22        8.9718    5.1556    3.8241 H         1 RES1    0.0000
     50 O6        10.1168    6.6745    4.1894 O.3       1 RES1    0.0000
     51 H23        9.7888    7.0433    3.5105 H         1 RES1    0.0000
     52 C20        9.5621    6.1413    5.1187 Du        2 SUP2    0.0000
     53 H24       10.0640    5.5543    5.7387 Du        2 SUP2    0.0000
     54 H25        9.8772    7.0732    5.2355 Du        2 SUP2    0.0000
     55 O7         9.7532    5.6828    3.6625 Du        2 SUP2    0.0000
     56 H26        9.4680    6.2772    3.1416 Du        2 SUP2    0.0000
     57 H27        7.5573    7.3719    4.0401 H         1 RES1    0.0000
     58 H28        3.2938   10.6890    3.9523 H         1 RES1    0.0000
@<TRIPOS>BOND
     1    1   23 2
     2    2   23 1
     3    3   31 2
     4    4    8 2
     5    5    8 2
     6    6    9 1
     7    7   31 1
     8    8   40 1
     9    9   10 2
    10   10   11 1
    11   11   12 1
    12   13   11 1
    13   14    6 1
    14   15    9 1
    15   16   15 1
    16   17   15 1
    17   18   15 1
    18   19   14 1
    19   20   19 1
    20   21   19 1
    21   22   19 1
    22   23   10 1
    23   24    2 1
    24   25   24 1
    25   26   24 1
    26   27   24 1
    27   28   27 1
    28   29   27 1
    29   30   27 1
    30   31   13 1
    31   32    7 1
    32   33   32 1
    33   34   32 1
    34   37   11 1
    35   38   37 ar
    36   39   38 1
    37   40   38 ar
    38   41   40 ar
    39   42   41 1
    40   43   41 ar
    41   44   43 1
    42   45   37 ar
    43   46   45 1
    44   47   32 1
    45   48   47 1
    46   49   47 1
    47   50   47 1
    48   51   50 1
    49   57    7 1
    50   58    6 1
    51   13   14 2
    52   43   45 ar
@<TRIPOS>SUBSTRUCTURE
     1 RES1 1
     2 SUP2 35

@<TRIPOS>CRYSIN
  14.2590   14.9350    8.7829  90.0000  90.0000  90.0000  33 1

