# MOL2 file generated by ConQuest
# Please check atom types

@<TRIPOS>MOLECULE
KEQVIM
    60    62     2
SMALL
NO_CHARGES
****
Generated from CSD

@<TRIPOS>ATOM
      1 O1         0.9012    3.3749   -1.1780 O.2       1 RES1    0.0000
      2 O2        -0.1754    1.6526   -0.4608 O.2       1 RES1    0.0000
      3 O3         0.3470    1.3181   -0.9765 Du        2 SUP2    0.0000
      4 O4         5.0164    2.4543    4.2806 O.3       1 RES1    0.0000
      5 O5         5.0739    4.5006    5.8131 O.3       1 RES1    0.0000
      6 O6        11.2051    1.8712   10.1644 O.2       1 RES1    0.0000
      7 N1         0.8503    2.3764   -0.5081 N.pl3     1 RES1    0.0000
      8 N2         9.0438    3.8285    8.9853 N.2       1 RES1    0.0000
      9 N3        11.6070    3.7132   11.5371 N.am      1 RES1    0.0000
     10 N4        10.9648    4.9430   11.7576 N.3       1 RES1    0.0000
     11 C1         3.7864    2.8921    1.6957 C.ar      1 RES1    0.0000
     12 H1         4.4088    3.5583    1.8811 H         1 RES1    0.0000
     13 C2         2.8050    3.1324    0.7611 C.ar      1 RES1    0.0000
     14 H2         2.7608    3.9437    0.3097 H         1 RES1    0.0000
     15 C3         1.8992    2.1429    0.5194 C.ar      1 RES1    0.0000
     16 C4         1.9429    0.9453    1.1597 C.ar      1 RES1    0.0000
     17 H3         1.3132    0.2882    0.9727 H         1 RES1    0.0000
     18 C5         2.9377    0.7178    2.0916 C.ar      1 RES1    0.0000
     19 H4         2.9742   -0.0973    2.5384 H         1 RES1    0.0000
     20 C6         3.8716    1.6871    2.3637 C.ar      1 RES1    0.0000
     21 C7         4.9910    1.4101    3.3273 C.3       1 RES1    0.0000
     22 H5         4.8471    0.5584    3.7699 H         1 RES1    0.0000
     23 H6         5.8366    1.3705    2.8538 H         1 RES1    0.0000
     24 C8         6.0135    2.4445    5.2204 C.ar      1 RES1    0.0000
     25 C9         6.9604    1.4528    5.3679 C.ar      1 RES1    0.0000
     26 H7         6.9591    0.7170    4.7992 H         1 RES1    0.0000
     27 C10        7.9171    1.5576    6.3723 C.ar      1 RES1    0.0000
     28 H8         8.5572    0.8892    6.4650 H         1 RES1    0.0000
     29 C11        7.9365    2.6354    7.2354 C.ar      1 RES1    0.0000
     30 C12        6.9668    3.6399    7.0726 C.ar      1 RES1    0.0000
     31 H9         6.9605    4.3681    7.6511 H         1 RES1    0.0000
     32 C13        6.0292    3.5628    6.0758 C.ar      1 RES1    0.0000
     33 C14        5.1664    5.7393    6.4956 C.3       1 RES1    0.0000
     34 H10        5.0815    5.5911    7.4396 H         1 RES1    0.0000
     35 H11        4.4643    6.3217    6.1987 H         1 RES1    0.0000
     36 H12        6.0178    6.1435    6.3102 H         1 RES1    0.0000
     37 C15        8.9491    2.7596    8.2893 C.2       1 RES1    0.0000
     38 H13        9.5298    2.0523    8.4538 H         1 RES1    0.0000
     39 C16        9.9846    3.9737   10.0022 C.2       1 RES1    0.0000
     40 C17       10.9571    3.0381   10.4899 C.2       1 RES1    0.0000
     41 C18       10.0557    5.1091   10.7673 C.2       1 RES1    0.0000
     42 C19        9.2849    6.3703   10.6162 C.3       1 RES1    0.0000
     43 H14        8.7788    6.5335   11.4153 H         1 RES1    0.0000
     44 H15        8.6883    6.2925    9.8685 H         1 RES1    0.0000
     45 H16        9.8905    7.1001   10.4672 H         1 RES1    0.0000
     46 C20       11.6877    6.0028   12.4501 C.3       1 RES1    0.0000
     47 H17       12.4260    6.2932   11.9102 H         1 RES1    0.0000
     48 H18       12.0171    5.6712   13.2889 H         1 RES1    0.0000
     49 H19       11.0967    6.7423   12.6090 H         1 RES1    0.0000
     50 C21       12.2424    3.0261   12.6218 C.ar      1 RES1    0.0000
     51 C22       11.7480    3.1077   13.9165 C.ar      1 RES1    0.0000
     52 H20       11.0036    3.6331   14.1030 H         1 RES1    0.0000
     53 C23       12.3724    2.4019   14.9228 C.ar      1 RES1    0.0000
     54 H21       12.0628    2.4685   15.7971 H         1 RES1    0.0000
     55 C24       13.4548    1.5973   14.6376 C.ar      1 RES1    0.0000
     56 H22       13.8634    1.1122   15.3174 H         1 RES1    0.0000
     57 C25       13.9295    1.5097   13.3601 C.ar      1 RES1    0.0000
     58 H23       14.6558    0.9581   13.1737 H         1 RES1    0.0000
     59 C26       13.3371    2.2365   12.3361 C.ar      1 RES1    0.0000
     60 H24       13.6736    2.1923   11.4701 H         1 RES1    0.0000
@<TRIPOS>BOND
     1    1    7 2
     2    2    7 2
     3    4   21 1
     4    5   32 1
     5    6   40 2
     6    7   15 1
     7    8   37 2
     8    9   10 1
     9   10   41 1
    10   11   12 1
    11   13   11 ar
    12   14   13 1
    13   15   13 ar
    14   16   15 ar
    15   17   16 1
    16   18   16 ar
    17   19   18 1
    18   20   11 ar
    19   21   20 1
    20   22   21 1
    21   23   21 1
    22   24    4 1
    23   25   24 ar
    24   26   25 1
    25   27   25 ar
    26   28   27 1
    27   29   27 ar
    28   30   29 ar
    29   31   30 1
    30   32   24 ar
    31   33    5 1
    32   34   33 1
    33   35   33 1
    34   36   33 1
    35   37   29 1
    36   38   37 1
    37   39    8 1
    38   40    9 1
    39   41   39 2
    40   42   41 1
    41   43   42 1
    42   44   42 1
    43   45   42 1
    44   46   10 1
    45   47   46 1
    46   48   46 1
    47   49   46 1
    48   50    9 1
    49   51   50 ar
    50   52   51 1
    51   53   51 ar
    52   54   53 1
    53   55   53 ar
    54   56   55 1
    55   57   55 ar
    56   58   57 1
    57   59   50 ar
    58   60   59 1
    59   18   20 ar
    60   30   32 ar
    61   39   40 1
    62   57   59 ar
@<TRIPOS>SUBSTRUCTURE
     1 RES1 1
     2 SUP2 3

@<TRIPOS>CRYSIN
  17.1080    7.4848   19.2030  90.0000 100.4080  90.0000  14 1

