# MOL2 file generated by ConQuest
# Please check atom types

@<TRIPOS>MOLECULE
KEQWUZ
    62    64     1
SMALL
NO_CHARGES
****
Generated from CSD

@<TRIPOS>ATOM
      1 O1         5.1739    2.3650    5.3464 O.2       1 RES1    0.0000
      2 O2         5.8191    3.8604    3.7726 O.3       1 RES1    0.0000
      3 O3         0.8107    6.0873    0.9975 O.2       1 RES1    0.0000
      4 O4         2.9297    6.7391    1.3554 O.3       1 RES1    0.0000
      5 O5         3.7937    8.6396    8.2149 O.2       1 RES1    0.0000
      6 O6         2.2079    7.2385    7.7648 O.2       1 RES1    0.0000
      7 N1         1.2024    3.7736    4.5497 N.3       1 RES1    0.0000
      8 N2         3.2363    7.8475    7.4652 N.pl3     1 RES1    0.0000
      9 C1         2.4544    3.2318    4.8397 C.2       1 RES1    0.0000
     10 C2         3.5523    3.7675    4.2491 C.2       1 RES1    0.0000
     11 C3         3.4575    5.0256    3.3876 C.3       1 RES1    0.0000
     12 H1         4.0606    4.9090    2.5981 H         1 RES1    0.0000
     13 C4         2.0286    5.2153    2.8716 C.2       1 RES1    0.0000
     14 C5         0.9761    4.6571    3.5227 C.2       1 RES1    0.0000
     15 C6         2.3940    2.0556    5.7617 C.3       1 RES1    0.0000
     16 H2         1.4713    1.9251    6.0663 H         1 RES1    0.0000
     17 H3         2.9718    2.2166    6.5364 H         1 RES1    0.0000
     18 H4         2.6990    1.2532    5.2883 H         1 RES1    0.0000
     19 C7        -0.4862    4.8766    3.2403 C.3       1 RES1    0.0000
     20 H5        -1.0036    4.7230    4.0577 H         1 RES1    0.0000
     21 H6        -0.7819    4.2528    2.5444 H         1 RES1    0.0000
     22 H7        -0.6260    5.7975    2.9334 H         1 RES1    0.0000
     23 C8         4.9018    3.2286    4.5387 C.2       1 RES1    0.0000
     24 C9         7.2743    3.6490    3.9744 C.3       1 RES1    0.0000
     25 C10        7.8645    4.5647    2.9214 C.3       1 RES1    0.0000
     26 H8         7.5830    5.4875    3.0967 H         1 RES1    0.0000
     27 H9         7.5489    4.2898    2.0360 H         1 RES1    0.0000
     28 H10        8.8423    4.5092    2.9521 H         1 RES1    0.0000
     29 C11        7.6531    4.0973    5.3759 C.3       1 RES1    0.0000
     30 H11        7.3418    5.0154    5.5195 H         1 RES1    0.0000
     31 H12        8.6280    4.0612    5.4779 H         1 RES1    0.0000
     32 H13        7.2346    3.5031    6.0323 H         1 RES1    0.0000
     33 C12        7.6485    2.2046    3.7016 C.3       1 RES1    0.0000
     34 H14        7.2809    1.6326    4.4073 H         1 RES1    0.0000
     35 H15        8.6255    2.1176    3.6840 H         1 RES1    0.0000
     36 H16        7.2809    1.9307    2.8348 H         1 RES1    0.0000
     37 C13        1.8260    6.0295    1.6786 C.2       1 RES1    0.0000
     38 C14        2.8490    7.5357    0.1337 C.3       1 RES1    0.0000
     39 H17        2.4067    7.0016   -0.5731 H         1 RES1    0.0000
     40 H18        3.7659    7.7485   -0.1753 H         1 RES1    0.0000
     41 C15        2.0839    8.8212    0.3342 C.ar      1 RES1    0.0000
     42 C16        2.4464    9.7023    1.3456 C.ar      1 RES1    0.0000
     43 H19        3.1594    9.4811    1.9319 H         1 RES1    0.0000
     44 C17        1.7692   10.9027    1.5012 C.ar      1 RES1    0.0000
     45 H20        2.0194   11.4988    2.1971 H         1 RES1    0.0000
     46 C18        0.7352   11.2369    0.6531 C.ar      1 RES1    0.0000
     47 H21        0.2826   12.0652    0.7583 H         1 RES1    0.0000
     48 C19        0.3591   10.3669   -0.3474 C.ar      1 RES1    0.0000
     49 H22       -0.3605   10.5918   -0.9259 H         1 RES1    0.0000
     50 C20        1.0353    9.1563   -0.5117 C.ar      1 RES1    0.0000
     51 H23        0.7771    8.5593   -1.2043 H         1 RES1    0.0000
     52 C21        3.9371    6.2400    4.1755 C.ar      1 RES1    0.0000
     53 C22        3.3691    6.5195    5.4082 C.ar      1 RES1    0.0000
     54 H24        2.6673    5.9761    5.7452 H         1 RES1    0.0000
     55 C23        3.8353    7.6013    6.1473 C.ar      1 RES1    0.0000
     56 C24        4.8460    8.4390    5.6937 C.ar      1 RES1    0.0000
     57 H25        5.1519    9.1711    6.2175 H         1 RES1    0.0000
     58 C25        5.3921    8.1697    4.4511 C.ar      1 RES1    0.0000
     59 H26        6.0776    8.7305    4.1070 H         1 RES1    0.0000
     60 C26        4.9490    7.0854    3.6983 C.ar      1 RES1    0.0000
     61 H27        5.3371    6.9156    2.8491 H         1 RES1    0.0000
     62 H28        0.5505    3.4892    5.0078 H         1 RES1    0.0000
@<TRIPOS>BOND
     1    1   23 2
     2    2   23 1
     3    3   37 2
     4    4   37 1
     5    5    8 2
     6    6    8 2
     7    7    9 1
     8    8   55 1
     9    9   10 2
    10   10   11 1
    11   11   12 1
    12   13   11 1
    13   14    7 1
    14   15    9 1
    15   16   15 1
    16   17   15 1
    17   18   15 1
    18   19   14 1
    19   20   19 1
    20   21   19 1
    21   22   19 1
    22   23   10 1
    23   24    2 1
    24   25   24 1
    25   26   25 1
    26   27   25 1
    27   28   25 1
    28   29   24 1
    29   30   29 1
    30   31   29 1
    31   32   29 1
    32   33   24 1
    33   34   33 1
    34   35   33 1
    35   36   33 1
    36   37   13 1
    37   38    4 1
    38   39   38 1
    39   40   38 1
    40   41   38 1
    41   42   41 ar
    42   43   42 1
    43   44   42 ar
    44   45   44 1
    45   46   44 ar
    46   47   46 1
    47   48   46 ar
    48   49   48 1
    49   50   41 ar
    50   51   50 1
    51   52   11 1
    52   53   52 ar
    53   54   53 1
    54   55   53 ar
    55   56   55 ar
    56   57   56 1
    57   58   56 ar
    58   59   58 1
    59   60   52 ar
    60   61   60 1
    61   62    7 1
    62   13   14 2
    63   48   50 ar
    64   58   60 ar
@<TRIPOS>SUBSTRUCTURE
     1 RES1 1

@<TRIPOS>CRYSIN
  24.3590    9.2553   10.9579  90.0000  90.0000  90.0000  29 1

