# MOL2 file generated by ConQuest
# Please check atom types

@<TRIPOS>MOLECULE
KEQXIP
    48    48     2
SMALL
NO_CHARGES
****
Generated from CSD

@<TRIPOS>ATOM
      1 N1         6.0178    0.7240   14.1616 N.3       1 RES1    0.0000
      2 C1         6.7081   -0.2496   14.7208 C.2       1 RES1    0.0000
      3 N2         7.9483    0.0898   14.9673 N.3       1 RES1    0.0000
      4 H1         8.5424   -0.5031   15.2599 H         1 RES1    0.0000
      5 C2         8.2449    1.4146   14.4187 C.3       1 RES1    0.0000
      6 H2         8.8269    1.3512   13.6206 H         1 RES1    0.0000
      7 H3         8.6789    1.9943   15.0934 H         1 RES1    0.0000
      8 C3         6.8518    1.9319   14.0527 C.3       1 RES1    0.0000
      9 H4         6.5517    2.6325   14.6848 H         1 RES1    0.0000
     10 H5         6.8356    2.2971   13.1330 H         1 RES1    0.0000
     11 C4         4.6005    0.7294   13.8280 C.3       1 RES1    0.0000
     12 H6         4.2458   -0.1918   13.9047 H         1 RES1    0.0000
     13 H7         4.4902    1.0195   12.8875 H         1 RES1    0.0000
     14 C5         3.7992    1.6476   14.7282 C.3       1 RES1    0.0000
     15 H8         3.8856    1.3500   15.6583 H         1 RES1    0.0000
     16 H9         2.8563    1.6227   14.4629 H         1 RES1    0.0000
     17 H10        4.1384    2.5637   14.6462 H         1 RES1    0.0000
     18 C6         6.1538   -1.5785   15.0183 C.2       1 RES1    0.0000
     19 N3         6.5862   -2.6541   14.2702 N.pl3     1 RES1    0.0000
     20 N4         5.3151   -1.6919   16.1118 N.pl3     1 RES1    0.0000
     21 O1         7.3609   -2.3858   13.3241 O.2       1 RES1    0.0000
     22 O2         6.2353   -3.8196   14.5103 O.2       1 RES1    0.0000
     23 O3         5.1184   -0.6386   16.7457 O.2       1 RES1    0.0000
     24 O4         4.7955   -2.7688   16.4509 O.2       1 RES1    0.0000
     25 N5         1.7118    6.3409   14.3667 N.3       2 RES2    0.0000
     26 C7         2.3535    7.3776   14.8683 C.2       2 RES2    0.0000
     27 N6         3.6164    7.1056   15.1170 N.3       2 RES2    0.0000
     28 H11        4.1621    7.7092   15.3254 H         2 RES2    0.0000
     29 C8         3.9736    5.8016   14.5426 C.3       2 RES2    0.0000
     30 H12        4.5371    5.2746   15.1624 H         2 RES2    0.0000
     31 H13        4.4455    5.9032   13.6777 H         2 RES2    0.0000
     32 C9         2.5969    5.1628   14.3575 C.3       2 RES2    0.0000
     33 H14        2.5377    4.6738   13.4995 H         2 RES2    0.0000
     34 H15        2.3826    4.5447   15.1001 H         2 RES2    0.0000
     35 C10        0.3003    6.2587   14.0100 C.3       2 RES2    0.0000
     36 H16        0.2202    5.9297   13.0792 H         2 RES2    0.0000
     37 H17       -0.0965    7.1651   14.0459 H         2 RES2    0.0000
     38 C11       -0.4767    5.3430   14.9248 C.3       2 RES2    0.0000
     39 H18       -0.1090    4.4361   14.8681 H         2 RES2    0.0000
     40 H19       -1.4180    5.3313   14.6529 H         2 RES2    0.0000
     41 H20       -0.4062    5.6667   15.8467 H         2 RES2    0.0000
     42 C12        1.7347    8.6872   15.0949 C.2       2 RES2    0.0000
     43 N7         2.0966    9.7304   14.2632 N.pl3     2 RES2    0.0000
     44 N8         0.8151    8.8085   16.1180 N.pl3     2 RES2    0.0000
     45 O5         2.9175    9.4453   13.3600 O.2       2 RES2    0.0000
     46 O6         1.6595   10.8751   14.3968 O.2       2 RES2    0.0000
     47 O7         0.6979    7.8040   16.8556 O.2       2 RES2    0.0000
     48 O8         0.1453    9.8328   16.3078 O.2       2 RES2    0.0000
@<TRIPOS>BOND
     1    1    2 1
     2    2    3 1
     3    3    4 1
     4    5    3 1
     5    6    5 1
     6    7    5 1
     7    8    1 1
     8    9    8 1
     9   10    8 1
    10   11    1 1
    11   12   11 1
    12   13   11 1
    13   14   11 1
    14   15   14 1
    15   16   14 1
    16   17   14 1
    17   18    2 2
    18   19   18 1
    19   20   18 1
    20   21   19 2
    21   22   19 2
    22   23   20 2
    23   24   20 2
    24   25   26 1
    25   26   27 1
    26   27   28 1
    27   29   27 1
    28   30   29 1
    29   31   29 1
    30   32   25 1
    31   33   32 1
    32   34   32 1
    33   35   25 1
    34   36   35 1
    35   37   35 1
    36   38   35 1
    37   39   38 1
    38   40   38 1
    39   41   38 1
    40   42   26 2
    41   43   42 1
    42   44   42 1
    43   45   43 2
    44   46   43 2
    45   47   44 2
    46   48   44 2
    47    5    8 1
    48   29   32 1
@<TRIPOS>SUBSTRUCTURE
     1 RES1 1
     2 RES2 25

@<TRIPOS>CRYSIN
   8.8078   12.0645   16.8532  90.0000  93.9370  90.0000 231 1

