# MOL2 file generated by ConQuest
# Please check atom types

@<TRIPOS>MOLECULE
KERBAL
    34    36     1
SMALL
NO_CHARGES
****
Generated from CSD

@<TRIPOS>ATOM
      1 O1         0.1398    7.3101    7.5095 O.2       1 RES1    0.0000
      2 O2         0.4638    5.1727    7.5015 O.2       1 RES1    0.0000
      3 O3         4.4909    7.2646   11.8010 O.3       1 RES1    0.0000
      4 O4         3.6379    9.0898   10.6637 O.3       1 RES1    0.0000
      5 O5         0.4966    1.5949    9.9834 O.2       1 RES1    0.0000
      6 O6         2.4155    0.5221    9.6103 O.3       1 RES1    0.0000
      7 N1         0.7200    6.3037    7.9135 N.pl3     1 RES1    0.0000
      8 C1         2.2292    5.3579    9.6149 C.ar      1 RES1    0.0000
      9 C2         3.1997    5.5620   10.6175 C.ar      1 RES1    0.0000
     10 C3         3.5887    6.8485   10.8744 C.ar      1 RES1    0.0000
     11 C4         3.0836    7.9347   10.1768 C.ar      1 RES1    0.0000
     12 C5         2.1726    7.7891    9.1789 C.ar      1 RES1    0.0000
     13 C6         1.7476    6.4718    8.9272 C.ar      1 RES1    0.0000
     14 C7         4.3870    8.6991   11.8219 C.3       1 RES1    0.0000
     15 C8         1.6769    3.9911    9.5118 C.2       1 RES1    0.0000
     16 C9         2.4009    2.8730    9.3617 C.2       1 RES1    0.0000
     17 C10        3.8253    2.8755    8.9403 C.ar      1 RES1    0.0000
     18 C11        4.8193    2.2246    9.6633 C.ar      1 RES1    0.0000
     19 C12        6.1485    2.3304    9.2662 C.ar      1 RES1    0.0000
     20 C13        6.4890    3.0572    8.1473 C.ar      1 RES1    0.0000
     21 C14        5.5091    3.6667    7.4022 C.ar      1 RES1    0.0000
     22 C15        4.1756    3.5802    7.7939 C.ar      1 RES1    0.0000
     23 C16        1.7019    1.5906    9.6575 C.2       1 RES1    0.0000
     24 H1         3.5706    4.8306   11.0986 H         1 RES1    0.0000
     25 H2         1.8438    8.5296    8.6833 H         1 RES1    0.0000
     26 H3         1.9558   -0.1328    9.8664 H         1 RES1    0.0000
     27 H4         3.9255    8.9973   12.6451 H         1 RES1    0.0000
     28 H5         5.2881    9.1085   11.8009 H         1 RES1    0.0000
     29 H6         0.7323    3.8966    9.5551 H         1 RES1    0.0000
     30 H7         4.5912    1.7090   10.4279 H         1 RES1    0.0000
     31 H8         6.8274    1.8973    9.7705 H         1 RES1    0.0000
     32 H9         7.4008    3.1370    7.8911 H         1 RES1    0.0000
     33 H10        5.7414    4.1482    6.6171 H         1 RES1    0.0000
     34 H11        3.5022    4.0046    7.2755 H         1 RES1    0.0000
@<TRIPOS>BOND
     1    1    7 2
     2    2    7 2
     3    3   10 1
     4    4   11 1
     5    5   23 2
     6    6   23 1
     7    7   13 1
     8    8    9 ar
     9    9   10 ar
    10   10   11 ar
    11   11   12 ar
    12   12   13 ar
    13   13    8 ar
    14   14    3 1
    15   15    8 1
    16   16   15 2
    17   17   16 1
    18   18   17 ar
    19   19   18 ar
    20   20   19 ar
    21   21   20 ar
    22   22   17 ar
    23   23   16 1
    24   24    9 1
    25   25   12 1
    26   26    6 1
    27   27   14 1
    28   28   14 1
    29   29   15 1
    30   30   18 1
    31   31   19 1
    32   32   20 1
    33   33   21 1
    34   34   22 1
    35    4   14 1
    36   21   22 ar
@<TRIPOS>SUBSTRUCTURE
     1 RES1 1

@<TRIPOS>CRYSIN
   8.8747   15.4381   10.8315  90.0000 109.5290  90.0000 231 1

