# MOL2 file generated by ConQuest
# Please check atom types

@<TRIPOS>MOLECULE
KERBOZ
    42    43     1
SMALL
NO_CHARGES
****
Generated from CSD

@<TRIPOS>ATOM
      1 N1        14.0481    1.9400   12.8065 N.pl3     1 RES1    0.0000
      2 N2         6.4289    2.5669    8.4381 N.2       1 RES1    0.0000
      3 N3         1.6834    2.8045    4.2040 N.3       1 RES1    0.0000
      4 O1         7.7610    2.5303    8.9901 O.3       1 RES1    0.0000
      5 O2         6.7357    2.7840   10.9497 O.2       1 RES1    0.0000
      6 O3        14.0901    1.4532   11.6949 O.2       1 RES1    0.0000
      7 O4        15.0321    2.0830   13.5002 O.2       1 RES1    0.0000
      8 C1         7.7362    2.6300   10.3350 C.2       1 RES1    0.0000
      9 C2         9.0697    2.5515   10.9209 C.2       1 RES1    0.0000
     10 H1         9.8029    2.3440   10.3877 H         1 RES1    0.0000
     11 C3         9.2309    2.7752   12.1993 C.2       1 RES1    0.0000
     12 H2         8.4498    2.9797   12.6622 H         1 RES1    0.0000
     13 C4        10.4353    2.7539   13.0110 C.ar      1 RES1    0.0000
     14 C5        11.6522    2.3448   12.5192 C.ar      1 RES1    0.0000
     15 H3        11.7319    2.0552   11.6397 H         1 RES1    0.0000
     16 C6        12.7563    2.3682   13.3484 C.ar      1 RES1    0.0000
     17 C7        12.6870    2.7546   14.6582 C.ar      1 RES1    0.0000
     18 H4        13.4440    2.7495   15.1976 H         1 RES1    0.0000
     19 C8        11.4649    3.1520   15.1600 C.ar      1 RES1    0.0000
     20 H5        11.3872    3.4138   16.0495 H         1 RES1    0.0000
     21 C9        10.3561    3.1601   14.3370 C.ar      1 RES1    0.0000
     22 H6         9.5373    3.4431   14.6783 H         1 RES1    0.0000
     23 C10        6.4781    2.6271    7.1961 C.2       1 RES1    0.0000
     24 H7         7.2993    2.6571    6.7633 H         1 RES1    0.0000
     25 C11        5.2476    2.6483    6.4221 C.ar      1 RES1    0.0000
     26 C12        4.0232    2.3712    6.9929 C.ar      1 RES1    0.0000
     27 H8         3.9919    2.1490    7.8961 H         1 RES1    0.0000
     28 C13        2.8517    2.4093    6.2878 C.ar      1 RES1    0.0000
     29 H9         2.0486    2.2121    6.7093 H         1 RES1    0.0000
     30 C14        2.8652    2.7466    4.9229 C.ar      1 RES1    0.0000
     31 C15        4.0893    3.0223    4.3433 C.ar      1 RES1    0.0000
     32 H10        4.1272    3.2547    3.4437 H         1 RES1    0.0000
     33 C16        5.2460    2.9577    5.0722 C.ar      1 RES1    0.0000
     34 H11        6.0552    3.1278    4.6469 H         1 RES1    0.0000
     35 C17        0.4285    2.3660    4.7849 C.3       1 RES1    0.0000
     36 H12        0.4339    1.4099    4.8727 H         1 RES1    0.0000
     37 H13       -0.2983    2.6307    4.2153 H         1 RES1    0.0000
     38 H14        0.3186    2.7664    5.6505 H         1 RES1    0.0000
     39 C18        1.6740    3.0494    2.8027 C.3       1 RES1    0.0000
     40 H15        2.3033    3.7430    2.5944 H         1 RES1    0.0000
     41 H16        0.7936    3.3251    2.5317 H         1 RES1    0.0000
     42 H17        1.9150    2.2465    2.3347 H         1 RES1    0.0000
@<TRIPOS>BOND
     1    1    6 2
     2    2    4 1
     3    3   30 1
     4    4    8 1
     5    5    8 2
     6    7    1 2
     7    8    9 1
     8    9   10 1
     9   11    9 2
    10   12   11 1
    11   13   11 1
    12   14   13 ar
    13   15   14 1
    14   16    1 1
    15   17   16 ar
    16   18   17 1
    17   19   17 ar
    18   20   19 1
    19   21   13 ar
    20   22   21 1
    21   23    2 2
    22   24   23 1
    23   25   23 1
    24   26   25 ar
    25   27   26 1
    26   28   26 ar
    27   29   28 1
    28   30   28 ar
    29   31   30 ar
    30   32   31 1
    31   33   25 ar
    32   34   33 1
    33   35    3 1
    34   36   35 1
    35   37   35 1
    36   38   35 1
    37   39    3 1
    38   40   39 1
    39   41   39 1
    40   42   39 1
    41   14   16 ar
    42   19   21 ar
    43   31   33 ar
@<TRIPOS>SUBSTRUCTURE
     1 RES1 1

@<TRIPOS>CRYSIN
  18.0310    7.3320   12.7140  90.0000  99.3380  90.0000  14 1

