# MOL2 file generated by ConQuest
# Please check atom types

@<TRIPOS>MOLECULE
KERCIU01
    31    34     1
SMALL
NO_CHARGES
****
Generated from CSD

@<TRIPOS>ATOM
      1 O1         2.3182    2.4738    4.4781 O.3       1 RES1    0.0000
      2 O2         0.1022    3.1966    4.2506 O.3       1 RES1    0.0000
      3 N1         2.5282   -0.5094    6.1389 N.2       1 RES1    0.0000
      4 N2         2.6897    0.2489    5.0954 N.2       1 RES1    0.0000
      5 N3         2.1740    1.4547    5.3920 N.pl3     1 RES1    0.0000
      6 N4         0.2454    4.5646    4.2540 N.pl3     1 RES1    0.0000
      7 N5         0.8469    5.1822    5.2866 N.2       1 RES1    0.0000
      8 N6         0.7321    6.4647    5.0764 N.2       1 RES1    0.0000
      9 C1         1.6911    1.5225    6.6622 C.ar      1 RES1    0.0000
     10 C2         1.9168    0.2356    7.1262 C.ar      1 RES1    0.0000
     11 C3         1.5199   -0.1206    8.4232 C.ar      1 RES1    0.0000
     12 C4         0.9362    0.8483    9.1806 C.ar      1 RES1    0.0000
     13 C5         0.7297    2.1476    8.6917 C.ar      1 RES1    0.0000
     14 C6         1.0968    2.5231    7.4292 C.ar      1 RES1    0.0000
     15 C7         0.0352    6.6580    3.9021 C.ar      1 RES1    0.0000
     16 C8        -0.2994    5.4276    3.3609 C.ar      1 RES1    0.0000
     17 C9        -1.0288    5.2834    2.1840 C.ar      1 RES1    0.0000
     18 C10       -1.4044    6.4551    1.5859 C.ar      1 RES1    0.0000
     19 C11       -1.0692    7.7056    2.1159 C.ar      1 RES1    0.0000
     20 C12       -0.3582    7.8362    3.2663 C.ar      1 RES1    0.0000
     21 C13        1.2011    2.5645    3.6141 C.3       1 RES1    0.0000
     22 H1         1.6886   -1.0119    8.7223 H         1 RES1    0.0000
     23 H2         0.6468    0.6403   10.0508 H         1 RES1    0.0000
     24 H3         0.3299    2.7926    9.2439 H         1 RES1    0.0000
     25 H4         0.9353    3.3978    7.0808 H         1 RES1    0.0000
     26 H5        -1.2120    4.4284    1.8710 H         1 RES1    0.0000
     27 H6        -1.8689    6.4241    0.8068 H         1 RES1    0.0000
     28 H7        -1.3492    8.5202    1.6206 H         1 RES1    0.0000
     29 H8        -0.1318    8.6861    3.6238 H         1 RES1    0.0000
     30 H9         0.8874    1.6428    3.3665 H         1 RES1    0.0000
     31 H10        1.5071    3.1408    2.8726 H         1 RES1    0.0000
@<TRIPOS>BOND
     1    1    5 1
     2    2    6 1
     3    3    4 2
     4    4    5 1
     5    5    9 1
     6    6    7 1
     7    7    8 2
     8    8   15 1
     9    9   10 ar
    10   10    3 1
    11   11   10 ar
    12   12   11 ar
    13   13   12 ar
    14   14    9 ar
    15   15   16 ar
    16   16    6 1
    17   17   16 ar
    18   18   17 ar
    19   19   18 ar
    20   20   15 ar
    21   21    1 1
    22   22   11 1
    23   23   12 1
    24   24   13 1
    25   25   14 1
    26   26   17 1
    27   27   18 1
    28   28   19 1
    29   29   20 1
    30   30   21 1
    31   31   21 1
    32    2   21 1
    33   13   14 ar
    34   19   20 ar
@<TRIPOS>SUBSTRUCTURE
     1 RES1 1

@<TRIPOS>CRYSIN
   7.9486   23.3687    7.9814  90.0000 119.3700  90.0000  14 1

