# MOL2 file generated by ConQuest
# Please check atom types

@<TRIPOS>MOLECULE
KERCIU
    31    34     1
SMALL
NO_CHARGES
****
Generated from CSD

@<TRIPOS>ATOM
      1 C1         5.6187    5.4223   -0.1201 C.ar      1 RES1    0.0000
      2 C2         4.8949    5.2814   -1.2830 C.ar      1 RES1    0.0000
      3 H1         4.6781    4.4468   -1.6322 H         1 RES1    0.0000
      4 C3         4.5131    6.4499   -1.8947 C.ar      1 RES1    0.0000
      5 H2         4.0180    6.4123   -2.6813 H         1 RES1    0.0000
      6 C4         4.8558    7.6927   -1.3573 C.ar      1 RES1    0.0000
      7 H3         4.5853    8.4618   -1.8044 H         1 RES1    0.0000
      8 C5         5.5627    7.8229   -0.2152 C.ar      1 RES1    0.0000
      9 H4         5.7780    8.6603    0.1298 H         1 RES1    0.0000
     10 C6         5.9547    6.6509    0.4221 C.ar      1 RES1    0.0000
     11 C7         7.6138    1.5224    3.1797 C.ar      1 RES1    0.0000
     12 C8         7.0151    2.5152    3.9414 C.ar      1 RES1    0.0000
     13 H5         6.8711    3.3731    3.6151 H         1 RES1    0.0000
     14 C9         6.6524    2.1443    5.2042 C.ar      1 RES1    0.0000
     15 H6         6.2563    2.7755    5.7610 H         1 RES1    0.0000
     16 C10        6.8545    0.8467    5.6909 C.ar      1 RES1    0.0000
     17 H7         6.5797    0.6396    6.5539 H         1 RES1    0.0000
     18 C11        7.4418   -0.1141    4.9356 C.ar      1 RES1    0.0000
     19 H8         7.5767   -0.9734    5.2653 H         1 RES1    0.0000
     20 C12        7.8348    0.2372    3.6442 C.ar      1 RES1    0.0000
     21 C13        7.1170    2.5626    0.1423 C.3       1 RES1    0.0000
     22 H9         6.8559    1.6714   -0.1382 H         1 RES1    0.0000
     23 H10        7.3627    3.0649   -0.6505 H         1 RES1    0.0000
     24 N1         6.1604    4.5633    0.7713 N.3       1 RES1    0.0000
     25 N2         6.7633    5.1754    1.8051 N.2       1 RES1    0.0000
     26 N3         6.6499    6.4604    1.5933 N.2       1 RES1    0.0000
     27 N4         8.0888    1.4526    1.9120 N.3       1 RES1    0.0000
     28 N5         8.6105    0.2463    1.6128 N.2       1 RES1    0.0000
     29 N6         8.4468   -0.5089    2.6577 N.2       1 RES1    0.0000
     30 O1         6.0187    3.1931    0.7707 O.3       1 RES1    0.0000
     31 O2         8.2355    2.4709    0.9992 O.3       1 RES1    0.0000
@<TRIPOS>BOND
     1    1    2 ar
     2    2    3 1
     3    4    2 ar
     4    5    4 1
     5    6    4 ar
     6    7    6 1
     7    8    6 ar
     8    9    8 1
     9   10    1 ar
    10   11   12 ar
    11   12   13 1
    12   14   12 ar
    13   15   14 1
    14   16   14 ar
    15   17   16 1
    16   18   16 ar
    17   19   18 1
    18   20   11 ar
    19   21   22 1
    20   23   21 1
    21   24    1 1
    22   25   24 1
    23   26   10 1
    24   27   11 1
    25   28   27 1
    26   29   20 1
    27   30   21 1
    28   31   21 1
    29    8   10 ar
    30   18   20 ar
    31   24   30 1
    32   25   26 2
    33   27   31 1
    34   28   29 2
@<TRIPOS>SUBSTRUCTURE
     1 RES1 1

@<TRIPOS>CRYSIN
   7.9369   23.3430    7.9678  90.0000 119.3850  90.0000  14 1

