# MOL2 file generated by ConQuest
# Please check atom types

@<TRIPOS>MOLECULE
KERFEU
    51    55     1
SMALL
NO_CHARGES
****
Generated from CSD

@<TRIPOS>ATOM
      1 O1         0.6349    1.5351    0.9178 O.2       1 RES1    0.0000
      2 O2        -0.3241    0.3804    3.8487 O.3       1 RES1    0.0000
      3 N1         3.1628    0.9684    3.3512 N.2       1 RES1    0.0000
      4 N2         1.9987    0.4706    3.8464 N.pl3     1 RES1    0.0000
      5 N3         3.4655    0.1126    5.4214 N.2       1 RES1    0.0000
      6 N4        -0.7410   -0.9973    4.0186 N.2       1 RES1    0.0000
      7 C1         0.6493    3.2607    4.0816 C.ar      1 RES1    0.0000
      8 H1         0.5245    2.5471    4.6643 H         1 RES1    0.0000
      9 C2         0.6653    4.5540    4.5686 C.ar      1 RES1    0.0000
     10 H2         0.5401    4.7070    5.4773 H         1 RES1    0.0000
     11 C3         0.8622    5.6082    3.7292 C.ar      1 RES1    0.0000
     12 H3         0.8559    6.4764    4.0624 H         1 RES1    0.0000
     13 C4         1.0696    5.3902    2.3939 C.ar      1 RES1    0.0000
     14 H4         1.2331    6.1061    1.8242 H         1 RES1    0.0000
     15 C5         1.0354    4.1034    1.8983 C.ar      1 RES1    0.0000
     16 H5         1.1608    3.9607    0.9882 H         1 RES1    0.0000
     17 C6         0.8196    3.0246    2.7296 C.ar      1 RES1    0.0000
     18 C7         0.7531    1.6773    2.1158 C.2       1 RES1    0.0000
     19 C8         0.8150    0.4027    2.9927 C.3       1 RES1    0.0000
     20 C9         3.9953    0.7302    4.3384 C.2       1 RES1    0.0000
     21 H6         4.8926    0.9698    4.2965 H         1 RES1    0.0000
     22 C10        2.2103   -0.0447    5.0708 C.2       1 RES1    0.0000
     23 H7         1.5601   -0.4538    5.5949 H         1 RES1    0.0000
     24 C11        0.7313   -0.9155    2.2044 C.3       1 RES1    0.0000
     25 H8         0.2067   -0.7452    1.3941 H         1 RES1    0.0000
     26 C12        2.0528   -1.5142    1.7775 C.ar      1 RES1    0.0000
     27 C13        2.5323   -1.2863    0.4990 C.ar      1 RES1    0.0000
     28 H9         2.0154   -0.8077   -0.1084 H         1 RES1    0.0000
     29 C14        3.7715   -1.7631    0.1153 C.ar      1 RES1    0.0000
     30 H10        4.0878   -1.6075   -0.7449 H         1 RES1    0.0000
     31 C15        4.5297   -2.4663    1.0124 C.ar      1 RES1    0.0000
     32 H11        5.3679   -2.7811    0.7599 H         1 RES1    0.0000
     33 C16        4.0690   -2.7104    2.2762 C.ar      1 RES1    0.0000
     34 H12        4.5934   -3.1905    2.8759 H         1 RES1    0.0000
     35 C17        2.8303   -2.2474    2.6638 C.ar      1 RES1    0.0000
     36 H13        2.5146   -2.4263    3.5205 H         1 RES1    0.0000
     37 C18       -0.1284   -1.7096    3.1466 C.2       1 RES1    0.0000
     38 C19       -0.3511   -3.1597    3.0883 C.ar      1 RES1    0.0000
     39 C20       -0.1950   -3.8534    1.9032 C.ar      1 RES1    0.0000
     40 H14        0.0962   -3.4042    1.1427 H         1 RES1    0.0000
     41 C21       -0.4675   -5.2063    1.8369 C.ar      1 RES1    0.0000
     42 H15       -0.3674   -5.6526    1.0263 H         1 RES1    0.0000
     43 C22       -0.8823   -5.9078    2.9462 C.ar      1 RES1    0.0000
     44 C23       -1.1545   -7.3955    2.8736 C.3       1 RES1    0.0000
     45 H16       -1.4310   -7.7121    3.7361 H         1 RES1    0.0000
     46 H17       -0.3547   -7.8535    2.6049 H         1 RES1    0.0000
     47 H18       -1.8496   -7.5620    2.2324 H         1 RES1    0.0000
     48 C24       -1.0078   -5.2083    4.1328 C.ar      1 RES1    0.0000
     49 H19       -1.2717   -5.6667    4.8984 H         1 RES1    0.0000
     50 C25       -0.7559   -3.8589    4.2217 C.ar      1 RES1    0.0000
     51 H20       -0.8556   -3.4163    5.0333 H         1 RES1    0.0000
@<TRIPOS>BOND
     1    1   18 2
     2    2    6 1
     3    3    4 1
     4    4   19 1
     5    5   20 1
     6    6   37 2
     7    7    8 1
     8    9    7 ar
     9   10    9 1
    10   11    9 ar
    11   12   11 1
    12   13   11 ar
    13   14   13 1
    14   15   13 ar
    15   16   15 1
    16   17    7 ar
    17   18   17 1
    18   19    2 1
    19   20    3 2
    20   21   20 1
    21   22    4 1
    22   23   22 1
    23   24   19 1
    24   25   24 1
    25   26   24 1
    26   27   26 ar
    27   28   27 1
    28   29   27 ar
    29   30   29 1
    30   31   29 ar
    31   32   31 1
    32   33   31 ar
    33   34   33 1
    34   35   26 ar
    35   36   35 1
    36   37   24 1
    37   38   37 1
    38   39   38 ar
    39   40   39 1
    40   41   39 ar
    41   42   41 1
    42   43   41 ar
    43   44   43 1
    44   45   44 1
    45   46   44 1
    46   47   44 1
    47   48   43 ar
    48   49   48 1
    49   50   38 ar
    50   51   50 1
    51    5   22 2
    52   15   17 ar
    53   18   19 1
    54   33   35 ar
    55   48   50 ar
@<TRIPOS>SUBSTRUCTURE
     1 RES1 1

@<TRIPOS>CRYSIN
   7.9603   11.6857   12.1472 103.2560 100.1170  99.2100   2 1

