# MOL2 file generated by ConQuest
# Please check atom types

@<TRIPOS>MOLECULE
KERHIB
    38    40     2
SMALL
NO_CHARGES
****
Generated from CSD

@<TRIPOS>ATOM
      1 C1         1.5294    5.6792    3.4467 C.3       1 RES1    0.0000
      2 H1         2.2343    5.7836    2.7451 H         1 RES1    0.0000
      3 C2         1.8366    6.5288    4.6486 C.2       1 RES1    0.0000
      4 C3         0.8544    6.4332    5.7792 C.3       1 RES1    0.0000
      5 H2         0.0974    7.0491    5.6130 H         1 RES1    0.0000
      6 H3         1.2936    6.7068    6.6233 H         1 RES1    0.0000
      7 C4         0.3261    4.9933    5.9169 C.3       1 RES1    0.0000
      8 H4         0.9590    4.4624    6.4625 H         1 RES1    0.0000
      9 H5        -0.5453    5.0071    6.3865 H         1 RES1    0.0000
     10 C5         0.1563    4.3345    4.5596 C.3       1 RES1    0.0000
     11 H6        -0.2016    3.4056    4.6549 H         1 RES1    0.0000
     12 C6        -0.7040    5.1557    3.6024 C.3       1 RES1    0.0000
     13 H7        -1.1726    4.5704    2.9560 H         1 RES1    0.0000
     14 H8        -1.3744    5.6898    4.0979 H         1 RES1    0.0000
     15 N1         2.8988    7.2362    4.5873 N.2       1 RES1    0.0000
     16 O1         3.0954    8.0171    5.7392 O.3       1 RES1    0.0000
     17 O2         1.4295    4.3313    3.8679 O.3       1 RES1    0.0000
     18 O3         0.2444    6.0113    2.9313 O.3       1 RES1    0.0000
     19 H9         3.8958    8.3078    5.6404 H         1 RES1    0.0000
     20 C7         7.1066    9.9430    5.7037 C.3       2 RES2    0.0000
     21 H10        6.5452    9.6348    6.4718 H         2 RES2    0.0000
     22 C8         6.6718    9.2849    4.4238 C.2       2 RES2    0.0000
     23 C9         7.5022    9.5550    3.2027 C.3       2 RES2    0.0000
     24 H11        7.1463   10.3498    2.7318 H         2 RES2    0.0000
     25 H12        7.4431    8.7821    2.5869 H         2 RES2    0.0000
     26 C10        8.9734    9.7989    3.5770 C.3       2 RES2    0.0000
     27 H13        9.4520    8.9326    3.5993 H         2 RES2    0.0000
     28 H14        9.3972   10.3631    2.8826 H         2 RES2    0.0000
     29 C11        9.1099   10.4798    4.9255 C.3       2 RES2    0.0000
     30 H15       10.0726   10.6296    5.1508 H         2 RES2    0.0000
     31 C12        8.3166   11.7840    5.0407 C.3       2 RES2    0.0000
     32 H16        8.7570   12.4132    5.6654 H         2 RES2    0.0000
     33 H17        8.2215   12.2206    4.1573 H         2 RES2    0.0000
     34 N2         5.5956    8.5947    4.4887 N.2       2 RES2    0.0000
     35 O4         5.2426    8.0377    3.2433 O.3       2 RES2    0.0000
     36 O5         8.4687    9.6644    5.9333 O.3       2 RES2    0.0000
     37 O6         7.0285   11.3605    5.5523 O.3       2 RES2    0.0000
     38 H18        4.4742    7.6423    3.3650 H         2 RES2    0.0000
@<TRIPOS>BOND
     1    1    2 1
     2    3    1 1
     3    4    3 1
     4    5    4 1
     5    6    4 1
     6    7    4 1
     7    8    7 1
     8    9    7 1
     9   10    7 1
    10   11   10 1
    11   12   10 1
    12   13   12 1
    13   14   12 1
    14   15    3 2
    15   16   15 1
    16   17    1 1
    17   18    1 1
    18   19   16 1
    19   20   21 1
    20   22   20 1
    21   23   22 1
    22   24   23 1
    23   25   23 1
    24   26   23 1
    25   27   26 1
    26   28   26 1
    27   29   26 1
    28   30   29 1
    29   31   29 1
    30   32   31 1
    31   33   31 1
    32   34   22 2
    33   35   34 1
    34   36   20 1
    35   37   20 1
    36   38   35 1
    37   10   17 1
    38   12   18 1
    39   29   36 1
    40   31   37 1
@<TRIPOS>SUBSTRUCTURE
     1 RES1 1
     2 RES2 20

@<TRIPOS>CRYSIN
   8.5061   15.9215    9.6417  90.0000  90.0000  90.0000  19 1

