# MOL2 file generated by ConQuest
# Please check atom types

@<TRIPOS>MOLECULE
KERJOJ
   132   140     4
SMALL
NO_CHARGES
****
Generated from CSD

@<TRIPOS>ATOM
      1 C1         6.5498    6.2898   14.4572 C.3       1 RES1    0.0000
      2 H1         6.3747    5.3277   14.3867 H         1 RES1    0.0000
      3 C2         5.6101    6.9385   15.4542 C.2       1 RES1    0.0000
      4 C3         5.6701    8.4330   15.5525 C.3       1 RES1    0.0000
      5 H2         6.3112    8.6847   16.2362 H         1 RES1    0.0000
      6 H3         4.8015    8.7729   15.8173 H         1 RES1    0.0000
      7 C4         6.0811    9.0729   14.2072 C.3       1 RES1    0.0000
      8 H4         5.2894    9.2150   13.6654 H         1 RES1    0.0000
      9 H5         6.4889    9.9366   14.3742 H         1 RES1    0.0000
     10 C5         7.0541    8.2009   13.4490 C.3       1 RES1    0.0000
     11 H6         7.3208    8.6225   12.6058 H         1 RES1    0.0000
     12 C6         8.2707    7.7830   14.2591 C.3       1 RES1    0.0000
     13 H7         9.0434    7.6591   13.6851 H         1 RES1    0.0000
     14 H8         8.4832    8.4467   14.9335 H         1 RES1    0.0000
     15 C7         3.2520    5.9929   17.7355 C.2       1 RES1    0.0000
     16 C8         2.1430    6.7401   18.3969 C.ar      1 RES1    0.0000
     17 C9         1.9550    8.1136   18.2501 C.ar      1 RES1    0.0000
     18 H9         2.5620    8.6179   17.7575 H         1 RES1    0.0000
     19 C10        0.8587    8.7274   18.8418 C.ar      1 RES1    0.0000
     20 H10        0.7307    9.6460   18.7703 H         1 RES1    0.0000
     21 C11       -0.0388    7.9415   19.5396 C.ar      1 RES1    0.0000
     22 C12        0.1351    6.5830   19.7182 C.ar      1 RES1    0.0000
     23 H11       -0.4744    6.0841   20.2129 H         1 RES1    0.0000
     24 C13        1.2398    5.9879   19.1405 C.ar      1 RES1    0.0000
     25 H12        1.3817    5.0748   19.2498 H         1 RES1    0.0000
     26 N1         4.9090    6.1102   16.1242 N.2       1 RES1    0.0000
     27 N2        -1.2465    8.5652   20.1123 N.pl3     1 RES1    0.0000
     28 O1         4.0469    6.8399   17.0246 O.3       1 RES1    0.0000
     29 O2         3.4184    4.8146   17.8235 O.2       1 RES1    0.0000
     30 O3        -1.4164    9.7715   19.9454 O.2       1 RES1    0.0000
     31 O4        -2.0318    7.8466   20.7209 O.2       1 RES1    0.0000
     32 O5         6.4090    6.9170   13.2093 O.3       1 RES1    0.0000
     33 O6         7.8764    6.5293   14.8722 O.3       1 RES1    0.0000
     34 C14        0.8321    6.0790   14.6304 C.3       2 RES2    0.0000
     35 H13        0.7509    7.0531   14.5566 H         2 RES2    0.0000
     36 C15       -0.2219    5.5114   15.5495 C.2       2 RES2    0.0000
     37 C16       -0.2069    4.0106   15.6679 C.3       2 RES2    0.0000
     38 H14       -0.6420    3.6153   14.8965 H         2 RES2    0.0000
     39 H15       -0.6925    3.7388   16.4629 H         2 RES2    0.0000
     40 C17        1.2480    3.5229   15.7536 C.3       2 RES2    0.0000
     41 H16        1.5652    3.6205   16.6649 H         2 RES2    0.0000
     42 H17        1.2842    2.5818   15.5231 H         2 RES2    0.0000
     43 C18        2.1561    4.3038   14.8204 C.3       2 RES2    0.0000
     44 H18        3.0772    3.9722   14.8653 H         2 RES2    0.0000
     45 C19        1.6537    4.3288   13.3929 C.3       2 RES2    0.0000
     46 H19        2.3873    4.4486   12.7700 H         2 RES2    0.0000
     47 H20        1.1878    3.5057   13.1755 H         2 RES2    0.0000
     48 C20       -2.7084    6.5667   17.6280 C.2       2 RES2    0.0000
     49 C21       -3.7520    5.8070   18.3828 C.ar      2 RES2    0.0000
     50 C22       -3.8689    4.4236   18.3068 C.ar      2 RES2    0.0000
     51 H21       -3.2425    3.9302   17.8273 H         2 RES2    0.0000
     52 C23       -4.9212    3.7749   18.9474 C.ar      2 RES2    0.0000
     53 H22       -5.0087    2.8493   18.9081 H         2 RES2    0.0000
     54 C24       -5.8353    4.5508   19.6468 C.ar      2 RES2    0.0000
     55 C25       -5.7068    5.9193   19.7779 C.ar      2 RES2    0.0000
     56 H23       -6.3158    6.4090   20.2821 H         2 RES2    0.0000
     57 C26       -4.6504    6.5418   19.1407 C.ar      2 RES2    0.0000
     58 H24       -4.5406    7.4621   19.2213 H         2 RES2    0.0000
     59 N3        -0.9366    6.3821   16.1384 N.2       2 RES2    0.0000
     60 N4        -7.0130    3.8959   20.2291 N.pl3     2 RES2    0.0000
     61 O7        -1.8554    5.7083   17.0260 O.3       2 RES2    0.0000
     62 O8        -2.6467    7.7734   17.5812 O.2       2 RES2    0.0000
     63 O9        -7.7346    4.5633   20.9664 O.2       2 RES2    0.0000
     64 O10       -7.2317    2.7295   19.9441 O.2       2 RES2    0.0000
     65 O11        2.0894    5.7077   15.1572 O.3       2 RES2    0.0000
     66 O12        0.7530    5.4552   13.3516 O.3       2 RES2    0.0000
     67 C27        3.1294    8.7586    9.7319 C.3       3 RES3    0.0000
     68 H25        2.9978    9.5888    9.2273 H         3 RES3    0.0000
     69 C28        4.3483    8.0101    9.2411 C.2       3 RES3    0.0000
     70 C29        4.6047    6.7015    9.9236 C.3       3 RES3    0.0000
     71 H26        5.1136    6.8561   10.7348 H         3 RES3    0.0000
     72 H27        5.1336    6.1334    9.3418 H         3 RES3    0.0000
     73 C30        3.2984    5.9916   10.2730 C.3       3 RES3    0.0000
     74 H28        2.9830    5.4999    9.4988 H         3 RES3    0.0000
     75 H29        3.4594    5.3556   10.9871 H         3 RES3    0.0000
     76 C31        2.2372    6.9747   10.7077 C.3       3 RES3    0.0000
     77 H30        1.4083    6.5097   10.9459 H         3 RES3    0.0000
     78 C32        2.6690    7.9103   11.8176 C.3       3 RES3    0.0000
     79 H31        1.9052    8.2071   12.3374 H         3 RES3    0.0000
     80 H32        3.3040    7.4779   12.4091 H         3 RES3    0.0000
     81 C33        7.0981    8.2833    7.2339 C.2       3 RES3    0.0000
     82 C34        7.9944    7.2117    6.6780 C.ar      3 RES3    0.0000
     83 C35        9.1462    7.6096    6.0108 C.ar      3 RES3    0.0000
     84 H33        9.3633    8.5124    5.9554 H         3 RES3    0.0000
     85 C36        9.9733    6.6590    5.4267 C.ar      3 RES3    0.0000
     86 H34       10.7505    6.9094    4.9823 H         3 RES3    0.0000
     87 C37        9.6079    5.3317    5.5239 C.ar      3 RES3    0.0000
     88 C38        8.4795    4.9176    6.1985 C.ar      3 RES3    0.0000
     89 H35        8.2716    4.0140    6.2646 H         3 RES3    0.0000
     90 C39        7.6680    5.8681    6.7721 C.ar      3 RES3    0.0000
     91 H36        6.8982    5.6089    7.2242 H         3 RES3    0.0000
     92 N5         5.0281    8.5889    8.3298 N.2       3 RES3    0.0000
     93 N6        10.4509    4.3075    4.8873 N.pl3     3 RES3    0.0000
     94 O13        6.0911    7.6932    7.9231 O.3       3 RES3    0.0000
     95 O14        7.2564    9.4571    7.0945 O.2       3 RES3    0.0000
     96 O15       10.0257    3.1586    4.8308 O.2       3 RES3    0.0000
     97 O16       11.5265    4.6494    4.4193 O.2       3 RES3    0.0000
     98 O17        2.0101    7.9153    9.6242 O.3       3 RES3    0.0000
     99 O18        3.2834    9.0218   11.1189 O.3       3 RES3    0.0000
    100 C40        9.0554    3.7038    9.9140 C.3       4 RES4    0.0000
    101 H37        9.0563    2.7878    9.5672 H         4 RES4    0.0000
    102 C41       10.1330    4.5346    9.2598 C.2       4 RES4    0.0000
    103 C42       10.1662    5.9654    9.7035 C.3       4 RES4    0.0000
    104 H38        9.4937    6.4714    9.2219 H         4 RES4    0.0000
    105 H39       11.0346    6.3484    9.5008 H         4 RES4    0.0000
    106 C43        9.9005    6.0615   11.2159 C.3       4 RES4    0.0000
    107 H40       10.7264    5.8969   11.6977 H         4 RES4    0.0000
    108 H41        9.6016    6.9581   11.4326 H         4 RES4    0.0000
    109 C44        8.8536    5.0635   11.6636 C.3       4 RES4    0.0000
    110 H42        8.6871    5.1352   12.6266 H         4 RES4    0.0000
    111 C45        7.5633    5.1671   10.8786 C.3       4 RES4    0.0000
    112 H43        6.8116    4.8483   11.4020 H         4 RES4    0.0000
    113 H44        7.3937    6.0840   10.6094 H         4 RES4    0.0000
    114 C46       12.8816    4.2315    7.2613 C.2       4 RES4    0.0000
    115 C47       13.7510    5.2856    6.6670 C.ar      4 RES4    0.0000
    116 C48       13.3619    6.6229    6.6024 C.ar      4 RES4    0.0000
    117 H45       12.5435    6.8781    6.9645 H         4 RES4    0.0000
    118 C49       14.1693    7.5784    6.0093 C.ar      4 RES4    0.0000
    119 H46       13.9061    8.4693    5.9592 H         4 RES4    0.0000
    120 C50       15.3849    7.1593    5.4930 C.ar      4 RES4    0.0000
    121 C51       15.8109    5.8482    5.5520 C.ar      4 RES4    0.0000
    122 H47       16.6348    5.6014    5.1989 H         4 RES4    0.0000
    123 C52       14.9895    4.9113    6.1458 C.ar      4 RES4    0.0000
    124 H48       15.2645    4.0244    6.1986 H         4 RES4    0.0000
    125 N7        10.8798    3.9021    8.4473 N.2       4 RES4    0.0000
    126 N8        16.2436    8.1685    4.8296 N.pl3     4 RES4    0.0000
    127 O19       11.8476    4.8352    7.9120 O.3       4 RES4    0.0000
    128 O20       13.0584    3.0501    7.1773 O.2       4 RES4    0.0000
    129 O21       17.3414    7.8142    4.4313 O.2       4 RES4    0.0000
    130 O22       15.8011    9.3099    4.7091 O.2       4 RES4    0.0000
    131 O23        9.2867    3.7212   11.3064 O.3       4 RES4    0.0000
    132 O24        7.7897    4.3213    9.7248 O.3       4 RES4    0.0000
@<TRIPOS>BOND
     1    1    2 1
     2    3    1 1
     3    4    3 1
     4    5    4 1
     5    6    4 1
     6    7    4 1
     7    8    7 1
     8    9    7 1
     9   10    7 1
    10   11   10 1
    11   12   10 1
    12   13   12 1
    13   14   12 1
    14   15   16 1
    15   16   17 ar
    16   17   18 1
    17   19   17 ar
    18   20   19 1
    19   21   19 ar
    20   22   21 ar
    21   23   22 1
    22   24   16 ar
    23   25   24 1
    24   26    3 2
    25   27   21 1
    26   28   15 1
    27   29   15 2
    28   30   27 2
    29   31   27 2
    30   32    1 1
    31   33    1 1
    32   34   35 1
    33   36   34 1
    34   37   36 1
    35   38   37 1
    36   39   37 1
    37   40   37 1
    38   41   40 1
    39   42   40 1
    40   43   40 1
    41   44   43 1
    42   45   43 1
    43   46   45 1
    44   47   45 1
    45   48   49 1
    46   49   50 ar
    47   50   51 1
    48   52   50 ar
    49   53   52 1
    50   54   52 ar
    51   55   54 ar
    52   56   55 1
    53   57   49 ar
    54   58   57 1
    55   59   36 2
    56   60   54 1
    57   61   48 1
    58   62   48 2
    59   63   60 2
    60   64   60 2
    61   65   34 1
    62   66   34 1
    63   67   68 1
    64   69   67 1
    65   70   69 1
    66   71   70 1
    67   72   70 1
    68   73   70 1
    69   74   73 1
    70   75   73 1
    71   76   73 1
    72   77   76 1
    73   78   76 1
    74   79   78 1
    75   80   78 1
    76   81   82 1
    77   82   83 ar
    78   83   84 1
    79   85   83 ar
    80   86   85 1
    81   87   85 ar
    82   88   87 ar
    83   89   88 1
    84   90   82 ar
    85   91   90 1
    86   92   69 2
    87   93   87 1
    88   94   81 1
    89   95   81 2
    90   96   93 2
    91   97   93 2
    92   98   67 1
    93   99   67 1
    94  100  101 1
    95  102  100 1
    96  103  102 1
    97  104  103 1
    98  105  103 1
    99  106  103 1
   100  107  106 1
   101  108  106 1
   102  109  106 1
   103  110  109 1
   104  111  109 1
   105  112  111 1
   106  113  111 1
   107  114  115 1
   108  115  116 ar
   109  116  117 1
   110  118  116 ar
   111  119  118 1
   112  120  118 ar
   113  121  120 ar
   114  122  121 1
   115  123  115 ar
   116  124  123 1
   117  125  102 2
   118  126  120 1
   119  127  114 1
   120  128  114 2
   121  129  126 2
   122  130  126 2
   123  131  100 1
   124  132  100 1
   125   10   32 1
   126   12   33 1
   127   22   24 ar
   128   26   28 1
   129   43   65 1
   130   45   66 1
   131   55   57 ar
   132   59   61 1
   133   76   98 1
   134   78   99 1
   135   88   90 ar
   136   92   94 1
   137  109  131 1
   138  111  132 1
   139  121  123 ar
   140  125  127 1
@<TRIPOS>SUBSTRUCTURE
     1 RES1 1
     2 RES2 34
     3 RES3 67
     4 RES4 100

@<TRIPOS>CRYSIN
  11.6567   12.4748   17.6511  90.0000  98.4570  90.0000   4 1

