# MOL2 file generated by ConQuest
# Please check atom types

@<TRIPOS>MOLECULE
KERJAV
    31    33     1
SMALL
NO_CHARGES
****
Generated from CSD

@<TRIPOS>ATOM
      1 C1         4.1110    3.7362   10.3300 C.3       1 RES1    0.0000
      2 H1         4.6226    4.4650   10.7850 H         1 RES1    0.0000
      3 C2         3.5068    4.2236    9.0316 C.2       1 RES1    0.0000
      4 C3         2.6858    3.2148    8.2841 C.3       1 RES1    0.0000
      5 H2         3.2782    2.6619    7.7156 H         1 RES1    0.0000
      6 H3         2.0430    3.6829    7.6942 H         1 RES1    0.0000
      7 C4         1.9183    2.3075    9.2622 C.3       1 RES1    0.0000
      8 H4         1.0795    2.7561    9.5357 H         1 RES1    0.0000
      9 H5         1.6786    1.4626    8.8056 H         1 RES1    0.0000
     10 C5         2.7468    1.9942   10.4971 C.3       1 RES1    0.0000
     11 H6         2.2500    1.3866   11.1168 H         1 RES1    0.0000
     12 C6         4.1354    1.4427   10.1883 C.3       1 RES1    0.0000
     13 H7         4.4652    0.8765   10.9304 H         1 RES1    0.0000
     14 H8         4.1274    0.9085    9.3548 H         1 RES1    0.0000
     15 C7         3.3381    7.0513    7.1002 C.ar      1 RES1    0.0000
     16 C8         3.3808    8.0588    8.0575 C.ar      1 RES1    0.0000
     17 H9         3.3899    7.8453    8.9832 H         1 RES1    0.0000
     18 C9         3.4093    9.3760    7.6399 C.ar      1 RES1    0.0000
     19 H10        3.4381   10.0822    8.2749 H         1 RES1    0.0000
     20 C10        3.3957    9.6528    6.2794 C.ar      1 RES1    0.0000
     21 C11        3.3605    8.6543    5.3234 C.ar      1 RES1    0.0000
     22 H11        3.3616    8.8708    4.3984 H         1 RES1    0.0000
     23 C12        3.3239    7.3385    5.7363 C.ar      1 RES1    0.0000
     24 H12        3.2888    6.6358    5.0980 H         1 RES1    0.0000
     25 N1         3.7913    5.4228    8.7110 N.2       1 RES1    0.0000
     26 N2         3.4336   11.0446    5.8514 N.pl3     1 RES1    0.0000
     27 O1         3.2518    5.7186    7.4127 O.3       1 RES1    0.0000
     28 O2         3.3747   11.2892    4.6400 O.2       1 RES1    0.0000
     29 O3         3.5115   11.9254    6.7075 O.2       1 RES1    0.0000
     30 O4         3.0868    3.2460   11.1561 O.3       1 RES1    0.0000
     31 O5         4.9526    2.6246   10.0371 O.3       1 RES1    0.0000
@<TRIPOS>BOND
     1    1    2 1
     2    3    1 1
     3    4    3 1
     4    5    4 1
     5    6    4 1
     6    7    4 1
     7    8    7 1
     8    9    7 1
     9   10    7 1
    10   11   10 1
    11   12   10 1
    12   13   12 1
    13   14   12 1
    14   15   16 ar
    15   16   17 1
    16   18   16 ar
    17   19   18 1
    18   20   18 ar
    19   21   20 ar
    20   22   21 1
    21   23   15 ar
    22   24   23 1
    23   25    3 2
    24   26   20 1
    25   27   15 1
    26   28   26 2
    27   29   26 2
    28   30    1 1
    29   31    1 1
    30   10   30 1
    31   12   31 1
    32   21   23 ar
    33   25   27 1
@<TRIPOS>SUBSTRUCTURE
     1 RES1 1

@<TRIPOS>CRYSIN
   6.7738   11.4773   14.8982  90.0000  90.0000  90.0000  19 1

