# MOL2 file generated by ConQuest
# Please check atom types

@<TRIPOS>MOLECULE
KERJUP
    35    37     1
SMALL
NO_CHARGES
****
Generated from CSD

@<TRIPOS>ATOM
      1 C1         5.2016    2.6221    7.6540 C.3       1 RES1    0.0000
      2 H1         5.6241    2.0989    8.3664 H         1 RES1    0.0000
      3 C2         3.9031    3.2500    8.1321 C.2       1 RES1    0.0000
      4 C3         3.1043    3.9885    7.0868 C.3       1 RES1    0.0000
      5 H2         3.3943    4.9133    7.0561 H         1 RES1    0.0000
      6 H3         2.1661    3.9771    7.3333 H         1 RES1    0.0000
      7 C4         3.2711    3.3569    5.6944 C.3       1 RES1    0.0000
      8 H4         2.6380    2.6291    5.5919 H         1 RES1    0.0000
      9 H5         3.0791    4.0203    5.0137 H         1 RES1    0.0000
     10 C5         4.6868    2.8273    5.5009 C.3       1 RES1    0.0000
     11 H6         4.8001    2.4491    4.6038 H         1 RES1    0.0000
     12 C6         5.7715    3.8571    5.7995 C.3       1 RES1    0.0000
     13 H7         6.5616    3.6962    5.2600 H         1 RES1    0.0000
     14 H8         5.4522    4.7573    5.6306 H         1 RES1    0.0000
     15 C7         2.0804    3.7569   10.9929 C.2       1 RES1    0.0000
     16 C8         0.7775    4.4831   11.1760 C.ar      1 RES1    0.0000
     17 C9         0.1812    5.1923   10.1308 C.ar      1 RES1    0.0000
     18 H9         0.5893    5.2476    9.2968 H         1 RES1    0.0000
     19 C10       -1.0364    5.8117   10.3708 C.ar      1 RES1    0.0000
     20 C11       -1.6810    5.7644   11.5926 C.ar      1 RES1    0.0000
     21 H10       -2.4899    6.2011   11.7358 H         1 RES1    0.0000
     22 C12       -1.0590    5.0325   12.5951 C.ar      1 RES1    0.0000
     23 C13        0.1561    4.3951   12.4228 C.ar      1 RES1    0.0000
     24 H11        0.5488    3.9197   13.1192 H         1 RES1    0.0000
     25 N1         3.6680    3.1251    9.3824 N.2       1 RES1    0.0000
     26 N2        -1.7123    6.4862    9.2460 N.pl3     1 RES1    0.0000
     27 N3        -1.7625    4.9048   13.8860 N.pl3     1 RES1    0.0000
     28 O1         4.9351    1.8216    6.5252 O.3       1 RES1    0.0000
     29 O2         6.0562    3.6627    7.2086 O.3       1 RES1    0.0000
     30 O3         2.4165    3.7963    9.6802 O.3       1 RES1    0.0000
     31 O4         2.7068    3.2413   11.8765 O.2       1 RES1    0.0000
     32 O5        -1.1204    6.5422    8.1765 O.2       1 RES1    0.0000
     33 O6        -2.8466    6.9300    9.4388 O.2       1 RES1    0.0000
     34 O7        -2.7958    5.5384   14.0453 O.2       1 RES1    0.0000
     35 O8        -1.2803    4.1521   14.7231 O.2       1 RES1    0.0000
@<TRIPOS>BOND
     1    1    2 1
     2    3    1 1
     3    4    3 1
     4    5    4 1
     5    6    4 1
     6    7    4 1
     7    8    7 1
     8    9    7 1
     9   10    7 1
    10   11   10 1
    11   12   10 1
    12   13   12 1
    13   14   12 1
    14   15   16 1
    15   16   17 ar
    16   17   18 1
    17   19   17 ar
    18   20   19 ar
    19   21   20 1
    20   22   20 ar
    21   23   16 ar
    22   24   23 1
    23   25    3 2
    24   26   19 1
    25   27   22 1
    26   28    1 1
    27   29    1 1
    28   30   15 1
    29   31   15 2
    30   32   26 2
    31   33   26 2
    32   34   27 2
    33   35   27 2
    34   10   28 1
    35   12   29 1
    36   22   23 ar
    37   25   30 1
@<TRIPOS>SUBSTRUCTURE
     1 RES1 1

@<TRIPOS>CRYSIN
   6.2700    9.4560   23.6000  90.0000  90.0000  90.0000  19 1

