# MOL2 file generated by ConQuest
# Please check atom types

@<TRIPOS>MOLECULE
KERLUP
    67    60     3
SMALL
NO_CHARGES
****
Generated from CSD

@<TRIPOS>ATOM
      1 O1        13.6033   -0.1482    1.3485 O.2       1 RES1    0.0000
      2 O2        15.5156   -0.9995    0.9286 O.2       1 RES1    0.0000
      3 O3        19.1104    1.5306   -0.7678 O.2       1 RES1    0.0000
      4 O4        18.9892    3.6813   -0.8290 O.2       1 RES1    0.0000
      5 O5        12.5676    7.3323    3.9500 O.2       2 RES2    0.0000
      6 O6        14.5727    7.1271    3.2356 O.2       2 RES2    0.0000
      7 O7        16.9233    3.0768    3.3651 O.2       2 RES2    0.0000
      8 O8        15.8973    1.2350    3.6540 O.2       2 RES2    0.0000
      9 O9        10.9188    1.2779    1.9476 O.2       1 RES1    0.0000
     10 O10        9.6110    7.4024    4.9555 O.2       2 RES2    0.0000
     11 O11        7.5572    6.8670    5.6856 O.3       2 RES2    0.0000
     12 N1        14.7575   -0.0500    0.9599 N.pl3     1 RES1    0.0000
     13 N2        18.4999    2.5795   -0.6369 N.pl3     1 RES1    0.0000
     14 N3        13.1377    2.3856    0.9414 N.pl3     1 RES1    0.0000
     15 H1        12.7621    1.6517    1.1912 H         1 RES1    0.0000
     16 N4        12.4385    3.5486    0.9101 N.2       1 RES1    0.0000
     17 N5        13.5393    6.6527    3.6995 N.pl3     2 RES2    0.0000
     18 N6        15.9264    2.4505    3.6106 N.pl3     2 RES2    0.0000
     19 N7        11.1990    5.2328    4.7171 N.pl3     2 RES2    0.0000
     20 H2        11.1403    6.0846    4.6047 H         2 RES2    0.0000
     21 N8        10.1489    4.5264    5.1811 N.2       2 RES2    0.0000
     22 C1        14.4477    2.4073    0.5664 C.ar      1 RES1    0.0000
     23 C2        15.2542    1.2565    0.5444 C.ar      1 RES1    0.0000
     24 C3        16.5723    1.3112    0.1551 C.ar      1 RES1    0.0000
     25 H3        17.0925    0.5393    0.1430 H         1 RES1    0.0000
     26 C4        17.1107    2.5155   -0.2142 C.ar      1 RES1    0.0000
     27 C5        16.3552    3.6663   -0.1943 C.ar      1 RES1    0.0000
     28 H4        16.7396    4.4752   -0.4412 H         1 RES1    0.0000
     29 C6        15.0463    3.6240    0.1850 C.ar      1 RES1    0.0000
     30 H5        14.5440    4.4075    0.1921 H         1 RES1    0.0000
     31 C7        11.2304    3.5568    1.3143 C.2       1 RES1    0.0000
     32 H6        10.7770    4.3680    1.2673 H         1 RES1    0.0000
     33 C8        10.4806    2.4005    1.8501 C.2       1 RES1    0.0000
     34 O12        9.2729    2.7690    2.2066 O.3       1 RES1    0.0000
     35 C9         8.4550    1.5812    2.6115 C.3       1 RES1    0.0000
     36 H7         8.2416    1.0306    1.8402 H         1 RES1    0.0000
     37 H8         8.9252    1.0419    3.2626 H         1 RES1    0.0000
     38 C10        7.2618    2.1572    3.1808 C.3       1 RES1    0.0000
     39 H9         7.5046    2.7783    3.8682 H         1 RES1    0.0000
     40 H10        6.7182    1.4597    3.5515 H         1 RES1    0.0000
     41 H11        6.7699    2.6146    2.4934 H         1 RES1    0.0000
     42 C11        8.4346    1.9934    3.3018 Du        3 SUP3    0.0000
     43 H12        8.9083    1.2254    3.6561 Du        3 SUP3    0.0000
     44 H13        8.1450    2.5694    4.0255 Du        3 SUP3    0.0000
     45 C12        7.3246    1.6094    2.3981 Du        3 SUP3    0.0000
     46 H14        6.5121    1.5332    2.9068 Du        3 SUP3    0.0000
     47 H15        7.5238    0.7652    1.9868 Du        3 SUP3    0.0000
     48 H16        7.2161    2.2814    1.7220 Du        3 SUP3    0.0000
     49 C13       12.3521    4.5732    4.4318 C.ar      2 RES2    0.0000
     50 C14       13.5081    5.2190    3.9500 C.ar      2 RES2    0.0000
     51 C15       14.6580    4.5232    3.6882 C.ar      2 RES2    0.0000
     52 H17       15.4154    4.9694    3.3857 H         2 RES2    0.0000
     53 C16       14.6874    3.1634    3.8746 C.ar      2 RES2    0.0000
     54 C17       13.5608    2.4861    4.3144 C.ar      2 RES2    0.0000
     55 H18       13.5828    1.5614    4.4175 H         2 RES2    0.0000
     56 C18       12.4242    3.1767    4.5940 C.ar      2 RES2    0.0000
     57 H19       11.6770    2.7162    4.8993 H         2 RES2    0.0000
     58 C19        9.0630    5.1407    5.4678 C.2       2 RES2    0.0000
     59 H20        8.3610    4.6221    5.7881 H         2 RES2    0.0000
     60 C20        8.8092    6.5892    5.3419 C.2       2 RES2    0.0000
     61 C21        7.1245    8.2601    5.5568 C.3       2 RES2    0.0000
     62 H21        7.6530    8.8291    6.1367 H         2 RES2    0.0000
     63 H22        7.2361    8.5637    4.6424 H         2 RES2    0.0000
     64 C22        5.7150    8.3186    5.9396 C.3       2 RES2    0.0000
     65 H23        5.2085    7.7194    5.3867 H         2 RES2    0.0000
     66 H24        5.3885    9.2131    5.8236 H         2 RES2    0.0000
     67 H25        5.6222    8.0611    6.8597 H         2 RES2    0.0000
@<TRIPOS>BOND
     1    1   12 2
     2    2   12 2
     3    3   13 2
     4    4   13 2
     5    5   17 2
     6    6   17 2
     7    7   18 2
     8    8   18 2
     9    9   33 2
    10   10   60 2
    11   11   60 1
    12   12   23 1
    13   13   26 1
    14   14   15 1
    15   16   14 1
    16   17   50 1
    17   18   53 1
    18   19   20 1
    19   21   19 1
    20   22   14 1
    21   23   22 ar
    22   24   23 ar
    23   25   24 1
    24   26   24 ar
    25   27   26 ar
    26   28   27 1
    27   29   22 ar
    28   30   29 1
    29   31   16 2
    30   32   31 1
    31   33   31 1
    32   34   33 1
    33   35   34 1
    34   36   35 1
    35   37   35 1
    36   38   35 1
    37   39   38 1
    38   40   38 1
    39   41   38 1
    40   49   19 1
    41   50   49 ar
    42   51   50 ar
    43   52   51 1
    44   53   51 ar
    45   54   53 ar
    46   55   54 1
    47   56   49 ar
    48   57   56 1
    49   58   21 2
    50   59   58 1
    51   60   58 1
    52   61   11 1
    53   62   61 1
    54   63   61 1
    55   64   61 1
    56   65   64 1
    57   66   64 1
    58   67   64 1
    59   27   29 ar
    60   54   56 ar
@<TRIPOS>SUBSTRUCTURE
     1 RES1 1
     2 RES2 5
     3 SUP3 42

@<TRIPOS>CRYSIN
  12.7089   28.2350    7.1198  90.0000  91.9010  90.0000  14 1

