# MOL2 file generated by ConQuest
# Please check atom types

@<TRIPOS>MOLECULE
KERNUR
    50    44     3
SMALL
NO_CHARGES
****
Generated from CSD

@<TRIPOS>ATOM
      1 C1         3.4805    0.0000    6.5652 C.ar      1 RES1    0.0000
      2 C2         4.5310    0.0000    5.6255 C.ar      1 RES1    0.0000
      3 H1         5.4173    0.0000    5.9063 H         1 RES1    0.0000
      4 C3         4.2153    0.0000    4.2679 C.ar      1 RES1    0.0000
      5 H2         4.9067    0.0000    3.6473 H         1 RES1    0.0000
      6 C4         2.9312    0.0000    3.8214 C.ar      1 RES1    0.0000
      7 C5         1.9408    0.0000    4.7295 C.ar      1 RES1    0.0000
      8 H3         1.0638    0.0000    4.4199 H         1 RES1    0.0000
      9 C6         2.1458    0.0000    6.0919 C.ar      1 RES1    0.0000
     10 H4         1.4285    0.0000    6.6844 H         1 RES1    0.0000
     11 C7         3.0518    0.0000   10.1621 C.2       1 RES1    0.0000
     12 H5         2.3665    0.0000   10.7908 H         1 RES1    0.0000
     13 C8         4.4301    0.0000   10.5677 C.2       1 RES1    0.0000
     14 C9         3.7950    0.0000   12.8667 C.3       1 RES1    0.0000
     15 H6         4.1743   -0.1594   13.7328 Du        3 SUP3    0.0000
     16 H7         3.1614   -0.6921   12.6635 Du        3 SUP3    0.0000
     17 H8         3.3510    0.8515   12.8622 Du        3 SUP3    0.0000
     18 C10        4.2264    3.2010    7.7000 C.ar      2 RES2    0.0000
     19 C11        3.1801    3.2010    8.5498 C.ar      2 RES2    0.0000
     20 H9         2.3112    3.2010    8.2184 H         2 RES2    0.0000
     21 C12        3.4064    3.2010    9.9357 C.ar      2 RES2    0.0000
     22 H10        2.6926    3.2010   10.5305 H         2 RES2    0.0000
     23 C13        4.7136    3.2010   10.3995 C.ar      2 RES2    0.0000
     24 C14        5.7630    3.2010    9.4867 C.ar      2 RES2    0.0000
     25 H11        6.6422    3.2010    9.7915 H         2 RES2    0.0000
     26 C15        5.5118    3.2010    8.1803 C.ar      2 RES2    0.0000
     27 H12        6.2223    3.2010    7.5802 H         2 RES2    0.0000
     28 C16        4.7108    3.2010    4.1425 C.2       2 RES2    0.0000
     29 H13        5.4269    3.2010    3.5494 H         2 RES2    0.0000
     30 C17        3.3002    3.2010    3.5852 C.2       2 RES2    0.0000
     31 C18        4.0023    3.2010    1.3092 C.3       2 RES2    0.0000
     32 H14        4.5903    2.4526    1.4360 Du        3 SUP3    0.0000
     33 H15        4.5075    4.0160    1.3548 Du        3 SUP3    0.0000
     34 H16        3.5798    3.1344    0.4507 Du        3 SUP3    0.0000
     35 N1         2.6234    0.0000    2.3880 N.pl3     1 RES1    0.0000
     36 N2         3.7420    0.0000    7.9368 N.pl3     1 RES1    0.0000
     37 H17        4.5543    0.0000    8.2184 H         1 RES1    0.0000
     38 N3         2.7724    0.0000    8.7774 N.2       1 RES1    0.0000
     39 N4         4.9660    3.2010   11.8318 N.pl3     2 RES2    0.0000
     40 N5         3.9728    3.2010    6.2735 N.pl3     2 RES2    0.0000
     41 H18        3.1654    3.2010    5.9790 H         2 RES2    0.0000
     42 N6         4.9610    3.2010    5.4536 N.2       2 RES2    0.0000
     43 O1         1.5103    0.0000    2.0090 O.2       1 RES1    0.0000
     44 O2         3.5500    0.0000    1.5247 O.2       1 RES1    0.0000
     45 O3         5.3798    0.0000    9.8066 O.2       1 RES1    0.0000
     46 O4         4.7948    0.0000   11.9217 O.3       1 RES1    0.0000
     47 O5         6.0957    3.2010   12.3312 O.2       2 RES2    0.0000
     48 O6         4.0237    3.2010   12.6842 O.2       2 RES2    0.0000
     49 O7         2.3909    3.2010    4.3928 O.2       2 RES2    0.0000
     50 O8         3.0566    3.2010    2.2777 O.3       2 RES2    0.0000
@<TRIPOS>BOND
     1    1    2 ar
     2    2    3 1
     3    4    2 ar
     4    5    4 1
     5    6    4 ar
     6    7    6 ar
     7    8    7 1
     8    9    1 ar
     9   10    9 1
    10   11   12 1
    11   13   11 1
    12   14   46 1
    13   18   19 ar
    14   19   20 1
    15   21   19 ar
    16   22   21 1
    17   23   21 ar
    18   24   23 ar
    19   25   24 1
    20   26   18 ar
    21   27   26 1
    22   28   29 1
    23   30   28 1
    24   31   50 1
    25   35    6 1
    26   36    1 1
    27   37   36 1
    28   38   11 2
    29   39   23 1
    30   40   18 1
    31   41   40 1
    32   42   28 2
    33   43   35 2
    34   44   35 2
    35   45   13 2
    36   46   13 1
    37   47   39 2
    38   48   39 2
    39   49   30 2
    40   50   30 1
    41    7    9 ar
    42   24   26 ar
    43   36   38 1
    44   40   42 1
@<TRIPOS>SUBSTRUCTURE
     1 RES1 1
     2 RES2 18
     3 SUP3 15

@<TRIPOS>CRYSIN
   6.1640    6.4020   28.1000  90.0000  95.0300  90.0000  10 1

