# MOL2 file generated by ConQuest
# Please check atom types

@<TRIPOS>MOLECULE
KERPOO
    18    18     1
SMALL
NO_CHARGES
****
Generated from CSD

@<TRIPOS>ATOM
      1 O1         1.0326   10.6952   11.7039 O.2       1 RES1    0.0000
      2 O2         0.7892    8.6057   12.1730 O.2       1 RES1    0.0000
      3 N1         2.6424    7.3236    8.8468 N.ar      1 RES1    0.0000
      4 N2         3.8213    7.7633    6.9174 N.pl3     1 RES1    0.0000
      5 H1         3.8400    6.8177    6.7310 H         1 RES1    0.0000
      6 H2         4.1234    8.3225    6.3259 H         1 RES1    0.0000
      7 N3         1.1825    9.5055   11.4195 N.pl3     1 RES1    0.0000
      8 C1         3.1622    8.2357    7.9833 C.ar      1 RES1    0.0000
      9 C2         3.0223    9.6297    8.1954 C.ar      1 RES1    0.0000
     10 H3         3.3931   10.2333    7.5623 H         1 RES1    0.0000
     11 C3         2.3636   10.1307    9.2929 C.ar      1 RES1    0.0000
     12 C4         1.8544    9.1559   10.1931 C.ar      1 RES1    0.0000
     13 C5         2.0127    7.7994    9.9231 C.ar      1 RES1    0.0000
     14 H4         1.6513    7.1751   10.5417 H         1 RES1    0.0000
     15 C6         2.2373   11.6235    9.4440 C.3       1 RES1    0.0000
     16 H5         2.6265   12.0651    8.6606 H         1 RES1    0.0000
     17 H6         2.7125   11.9119   10.2505 H         1 RES1    0.0000
     18 H7         1.2908   11.8657    9.5193 H         1 RES1    0.0000
@<TRIPOS>BOND
     1    1    7 2
     2    2    7 2
     3    3    8 ar
     4    4    5 1
     5    6    4 1
     6    7   12 1
     7    8    4 1
     8    9    8 ar
     9   10    9 1
    10   11    9 ar
    11   12   11 ar
    12   13    3 ar
    13   14   13 1
    14   15   11 1
    15   16   15 1
    16   17   15 1
    17   18   15 1
    18   12   13 ar
@<TRIPOS>SUBSTRUCTURE
     1 RES1 1

@<TRIPOS>CRYSIN
   7.2860   12.1550   15.1880  90.0000  92.7800  90.0000  15 1

