# MOL2 file generated by ConQuest
# Please check atom types

@<TRIPOS>MOLECULE
KERTAD
    45    48     1
SMALL
NO_CHARGES
****
Generated from CSD

@<TRIPOS>ATOM
      1 C1        -2.9890    6.7539    4.3402 C.ar      1 RES1    0.0000
      2 H1        -3.5968    6.2303    4.8113 H         1 RES1    0.0000
      3 C2        -3.0195    8.1175    4.4555 C.ar      1 RES1    0.0000
      4 H2        -3.6482    8.5164    5.0126 H         1 RES1    0.0000
      5 C3        -2.1363    8.9022    3.7613 C.ar      1 RES1    0.0000
      6 H3        -2.1629    9.8276    3.8433 H         1 RES1    0.0000
      7 C4        -1.2148    8.3058    2.9472 C.ar      1 RES1    0.0000
      8 H4        -0.6118    8.8331    2.4746 H         1 RES1    0.0000
      9 C5        -1.1640    6.9322    2.8147 C.ar      1 RES1    0.0000
     10 H5        -0.5373    6.5355    2.2552 H         1 RES1    0.0000
     11 C6        -2.0524    6.1622    3.5211 C.ar      1 RES1    0.0000
     12 C7        -1.5768    2.6287    3.1618 C.2       1 RES1    0.0000
     13 C8        -1.0295    3.8770    3.0688 C.2       1 RES1    0.0000
     14 C9        -0.8147    1.4733    2.8266 C.2       1 RES1    0.0000
     15 C10        0.9017    3.1206    2.3400 C.2       1 RES1    0.0000
     16 C11        1.3602    0.6837    1.8896 C.3       1 RES1    0.0000
     17 H6         0.8085   -0.1223    1.9651 H         1 RES1    0.0000
     18 C12        1.6941    0.8095    0.4209 C.3       1 RES1    0.0000
     19 H7         0.9258    1.1343   -0.0544 H         1 RES1    0.0000
     20 H8         1.9453   -0.0501    0.0743 H         1 RES1    0.0000
     21 H9         2.4239    1.4242    0.3100 H         1 RES1    0.0000
     22 C13        2.5486    0.4506    2.7947 C.3       1 RES1    0.0000
     23 H10        3.1658    1.1820    2.7084 H         1 RES1    0.0000
     24 H11        2.9850   -0.3668    2.5453 H         1 RES1    0.0000
     25 H12        2.2495    0.3890    3.7055 H         1 RES1    0.0000
     26 C14        2.7363    4.4962    1.6934 C.ar      1 RES1    0.0000
     27 C15        2.0888    5.5258    1.0647 C.ar      1 RES1    0.0000
     28 H13        1.2263    5.4245    0.7306 H         1 RES1    0.0000
     29 C16        2.7705    6.7200    0.9469 C.ar      1 RES1    0.0000
     30 C17        4.0648    6.8835    1.3838 C.ar      1 RES1    0.0000
     31 H14        4.5015    7.6988    1.2889 H         1 RES1    0.0000
     32 C18        4.6946    5.8099    1.9653 C.ar      1 RES1    0.0000
     33 H15        5.5761    5.8915    2.2498 H         1 RES1    0.0000
     34 C19        4.0334    4.6143    2.1303 C.ar      1 RES1    0.0000
     35 H16        4.4602    3.8931    2.5344 H         1 RES1    0.0000
     36 N1        -2.0247    4.7304    3.4087 N.pl3     1 RES1    0.0000
     37 N2        -3.1541    4.0007    3.7035 N.2       1 RES1    0.0000
     38 N3        -2.8811    2.7395    3.5601 N.2       1 RES1    0.0000
     39 N4         0.2442    4.1714    2.6981 N.2       1 RES1    0.0000
     40 N5         0.4930    1.8127    2.3663 N.am      1 RES1    0.0000
     41 N6         2.0543    7.8623    0.3653 N.pl3     1 RES1    0.0000
     42 O1        -1.1717    0.3092    2.8843 O.2       1 RES1    0.0000
     43 O2         2.1540    3.2335    1.8691 O.3       1 RES1    0.0000
     44 O3         0.8801    7.7359    0.0816 O.2       1 RES1    0.0000
     45 O4         2.6578    8.8974    0.1947 O.2       1 RES1    0.0000
@<TRIPOS>BOND
     1    1    2 1
     2    3    1 ar
     3    4    3 1
     4    5    3 ar
     5    6    5 1
     6    7    5 ar
     7    8    7 1
     8    9    7 ar
     9   10    9 1
    10   11    1 ar
    11   12   13 2
    12   13   36 1
    13   14   12 1
    14   15   39 2
    15   16   17 1
    16   18   16 1
    17   19   18 1
    18   20   18 1
    19   21   18 1
    20   22   16 1
    21   23   22 1
    22   24   22 1
    23   25   22 1
    24   26   27 ar
    25   27   28 1
    26   29   27 ar
    27   30   29 ar
    28   31   30 1
    29   32   30 ar
    30   33   32 1
    31   34   26 ar
    32   35   34 1
    33   36   11 1
    34   37   36 1
    35   38   12 1
    36   39   13 1
    37   40   14 1
    38   41   29 1
    39   42   14 2
    40   43   15 1
    41   44   41 2
    42   45   41 2
    43    9   11 ar
    44   15   40 1
    45   16   40 1
    46   26   43 1
    47   32   34 ar
    48   37   38 2
@<TRIPOS>SUBSTRUCTURE
     1 RES1 1

@<TRIPOS>CRYSIN
  18.2261   11.6455   18.1673  90.0000  93.7370  90.0000  15 1

