# MOL2 file generated by ConQuest
# Please check atom types

@<TRIPOS>MOLECULE
KERTIL
    53    55     1
SMALL
NO_CHARGES
****
Generated from CSD

@<TRIPOS>ATOM
      1 O1         6.3679    7.0431    8.8801 O.2       1 RES1    0.0000
      2 O2         5.1636    7.8887    7.3430 O.2       1 RES1    0.0000
      3 O3         2.8984    8.1919    8.9076 O.3       1 RES1    0.0000
      4 O4         2.1516   10.3426    7.4199 O.3       1 RES1    0.0000
      5 O5         4.7169    9.1089    1.4540 O.2       1 RES1    0.0000
      6 O6         4.4778    6.1143    4.3235 O.3       1 RES1    0.0000
      7 N1         5.3244    7.1436    8.2922 N.pl3     1 RES1    0.0000
      8 N2         3.9277    9.9402    3.9135 N.2       1 RES1    0.0000
      9 N3         4.2339    8.6326    3.6002 N.am      1 RES1    0.0000
     10 H1         4.1588    8.0231    4.2015 H         1 RES1    0.0000
     11 C1         4.2207    6.2836    8.6898 C.ar      1 RES1    0.0000
     12 C2         4.4640    4.9303    8.7733 C.ar      1 RES1    0.0000
     13 H2         5.3227    4.5936    8.6525 H         1 RES1    0.0000
     14 C3         3.4196    4.0964    9.0376 C.ar      1 RES1    0.0000
     15 H3         3.5605    3.1790    9.0894 H         1 RES1    0.0000
     16 C4         2.1515    4.6119    9.2301 C.ar      1 RES1    0.0000
     17 H4         1.4400    4.0325    9.3836 H         1 RES1    0.0000
     18 C5         1.9244    5.9743    9.2005 C.ar      1 RES1    0.0000
     19 H5         1.0713    6.3097    9.3602 H         1 RES1    0.0000
     20 C6         2.9757    6.8408    8.9323 C.ar      1 RES1    0.0000
     21 C7         1.6288    8.8231    9.0965 C.3       1 RES1    0.0000
     22 H6         1.3236    8.7030   10.0103 H         1 RES1    0.0000
     23 H7         0.9682    8.4420    8.4968 H         1 RES1    0.0000
     24 C8         1.8268   10.2651    8.8012 C.3       1 RES1    0.0000
     25 H8         1.0168   10.7649    8.9893 H         1 RES1    0.0000
     26 H9         2.5467   10.6266    9.3410 H         1 RES1    0.0000
     27 C9         2.5417   11.5297    6.8772 C.ar      1 RES1    0.0000
     28 C10        2.3491   12.7564    7.4506 C.ar      1 RES1    0.0000
     29 H10        1.9806   12.8216    8.3007 H         1 RES1    0.0000
     30 C11        2.7027   13.8917    6.7659 C.ar      1 RES1    0.0000
     31 H11        2.5630   14.7243    7.1560 H         1 RES1    0.0000
     32 C12        3.2581   13.8186    5.5189 C.ar      1 RES1    0.0000
     33 H12        3.4951   14.5925    5.0627 H         1 RES1    0.0000
     34 C13        3.4614   12.5815    4.9444 C.ar      1 RES1    0.0000
     35 H13        3.8291   12.5306    4.0907 H         1 RES1    0.0000
     36 C14        3.1316   11.4201    5.6084 C.ar      1 RES1    0.0000
     37 C15        3.4243   10.0994    5.0717 C.2       1 RES1    0.0000
     38 H14        3.2383    9.3503    5.5892 H         1 RES1    0.0000
     39 C16        4.6507    8.2972    2.3585 C.2       1 RES1    0.0000
     40 C17        5.0227    6.8552    2.1506 C.ar      1 RES1    0.0000
     41 C18        5.4877    6.5315    0.8938 C.ar      1 RES1    0.0000
     42 H15        5.5396    7.2062    0.2558 H         1 RES1    0.0000
     43 C19        5.8735    5.2813    0.5414 C.ar      1 RES1    0.0000
     44 H16        6.1743    5.1065   -0.3219 H         1 RES1    0.0000
     45 C20        5.8131    4.2908    1.4645 C.ar      1 RES1    0.0000
     46 H17        6.0789    3.4295    1.2342 H         1 RES1    0.0000
     47 C21        5.3663    4.5414    2.7343 C.ar      1 RES1    0.0000
     48 H18        5.3320    3.8563    3.3616 H         1 RES1    0.0000
     49 C22        4.9646    5.8255    3.0783 C.ar      1 RES1    0.0000
     50 C23        4.2431    5.0582    5.2631 C.3       1 RES1    0.0000
     51 H19        3.6532    4.4096    4.8730 H         1 RES1    0.0000
     52 H20        3.8425    5.4197    6.0582 H         1 RES1    0.0000
     53 H21        5.0767    4.6393    5.4869 H         1 RES1    0.0000
@<TRIPOS>BOND
     1    1    7 2
     2    2    7 2
     3    3   20 1
     4    4   24 1
     5    5   39 2
     6    6   49 1
     7    7   11 1
     8    8    9 1
     9    9   10 1
    10   11   12 ar
    11   12   13 1
    12   14   12 ar
    13   15   14 1
    14   16   14 ar
    15   17   16 1
    16   18   16 ar
    17   19   18 1
    18   20   11 ar
    19   21    3 1
    20   22   21 1
    21   23   21 1
    22   24   21 1
    23   25   24 1
    24   26   24 1
    25   27    4 1
    26   28   27 ar
    27   29   28 1
    28   30   28 ar
    29   31   30 1
    30   32   30 ar
    31   33   32 1
    32   34   32 ar
    33   35   34 1
    34   36   27 ar
    35   37    8 2
    36   38   37 1
    37   39    9 1
    38   40   39 1
    39   41   40 ar
    40   42   41 1
    41   43   41 ar
    42   44   43 1
    43   45   43 ar
    44   46   45 1
    45   47   45 ar
    46   48   47 1
    47   49   40 ar
    48   50    6 1
    49   51   50 1
    50   52   50 1
    51   53   50 1
    52   18   20 ar
    53   34   36 ar
    54   36   37 1
    55   47   49 ar
@<TRIPOS>SUBSTRUCTURE
     1 RES1 1

@<TRIPOS>CRYSIN
   7.6079   13.0500   21.3180  90.0000  90.6280  90.0000 231 1

