# MOL2 file generated by ConQuest
# Please check atom types

@<TRIPOS>MOLECULE
KERWUZ
    25    28     1
SMALL
NO_CHARGES
****
Generated from CSD

@<TRIPOS>ATOM
      1 C1        13.8864    5.7880    6.7873 C.3       1 RES1    0.0000
      2 C2        14.1847    6.2528    5.3545 C.3       1 RES1    0.0000
      3 C3        14.2317    7.7381    5.5703 C.2       1 RES1    0.0000
      4 C4        14.0986    8.7397    4.4584 C.3       1 RES1    0.0000
      5 C5        12.6426    8.6854    4.0146 C.ar      1 RES1    0.0000
      6 C6        11.6835    9.4124    4.6885 C.ar      1 RES1    0.0000
      7 C7        10.3417    9.2779    4.3805 C.ar      1 RES1    0.0000
      8 C8         9.9440    8.3945    3.4079 C.ar      1 RES1    0.0000
      9 C9        10.8928    7.6811    2.7269 C.ar      1 RES1    0.0000
     10 C10       12.2399    7.8265    3.0113 C.ar      1 RES1    0.0000
     11 C11       15.4617    5.7105    4.7457 C.ar      1 RES1    0.0000
     12 C12       15.4304    5.0528    3.5258 C.ar      1 RES1    0.0000
     13 C13       16.5706    4.5160    2.9849 C.ar      1 RES1    0.0000
     14 C14       17.7757    4.6233    3.6495 C.ar      1 RES1    0.0000
     15 C15       17.8253    5.2933    4.8414 C.ar      1 RES1    0.0000
     16 C16       16.6773    5.8423    5.3902 C.ar      1 RES1    0.0000
     17 C17       12.4513    5.3979    7.0274 C.ar      1 RES1    0.0000
     18 C18       11.3989    6.1658    6.5157 C.ar      1 RES1    0.0000
     19 C19       10.0873    5.7921    6.7208 C.ar      1 RES1    0.0000
     20 C20        9.8034    4.6627    7.4547 C.ar      1 RES1    0.0000
     21 C21       10.8340    3.8976    7.9692 C.ar      1 RES1    0.0000
     22 C22       12.1456    4.2686    7.7649 C.ar      1 RES1    0.0000
     23 N1        14.2806    8.0901    6.7951 N.2       1 RES1    0.0000
     24 O1        14.2354    6.9404    7.6219 O.3       1 RES1    0.0000
     25 O2        14.4954   10.0063    4.9565 O.3       1 RES1    0.0000
@<TRIPOS>BOND
     1    1    2 1
     2    2    3 1
     3    3    4 1
     4    4    5 1
     5    5    6 ar
     6    6    7 ar
     7    7    8 ar
     8    8    9 ar
     9    9   10 ar
    10   10    5 ar
    11   11    2 1
    12   12   11 ar
    13   13   12 ar
    14   14   13 ar
    15   15   14 ar
    16   16   11 ar
    17   17    1 1
    18   18   17 ar
    19   19   18 ar
    20   20   19 ar
    21   21   20 ar
    22   22   17 ar
    23   23    3 2
    24   24    1 1
    25   25    4 1
    26   15   16 ar
    27   21   22 ar
    28   23   24 1
@<TRIPOS>SUBSTRUCTURE
     1 RES1 1

@<TRIPOS>CRYSIN
  18.0290   13.5900    7.1660  90.0000  94.2800  90.0000  14 1

