# MOL2 file generated by ConQuest
# Please check atom types

@<TRIPOS>MOLECULE
KERZUE
    98   100     2
SMALL
NO_CHARGES
****
Generated from CSD

@<TRIPOS>ATOM
      1 N1        14.7808   -0.0357    1.1371 N.2       1 RES1    0.0000
      2 N2        10.2034    2.8681    0.5472 N.2       1 RES1    0.0000
      3 O1        14.4812    1.2862    0.8420 O.3       1 RES1    0.0000
      4 O2        11.2776    2.5210   -0.2703 O.3       1 RES1    0.0000
      5 O3        15.0501   -2.5614    0.7414 O.3       1 RES1    0.0000
      6 H1        14.8791   -1.7855    0.5401 H         1 RES1    0.0000
      7 O4        16.4396   -5.2409    4.2291 O.3       1 RES1    0.0000
      8 O5         8.7663    4.0426    2.4325 O.3       1 RES1    0.0000
      9 H2         9.4240    3.9071    1.9615 H         1 RES1    0.0000
     10 O6         4.3578    2.7413    3.0056 O.3       1 RES1    0.0000
     11 C1        13.9573    1.3504   -0.4793 C.3       1 RES1    0.0000
     12 H3        13.1827    0.7735   -0.5600 H         1 RES1    0.0000
     13 H4        14.6259    1.0596   -1.1200 H         1 RES1    0.0000
     14 C2        13.5726    2.7706   -0.7454 C.3       1 RES1    0.0000
     15 H5        13.3137    2.8586   -1.6772 H         1 RES1    0.0000
     16 H6        14.3447    3.3396   -0.5970 H         1 RES1    0.0000
     17 C3        12.4425    3.2461    0.1225 C.3       1 RES1    0.0000
     18 H7        12.6434    3.0805    1.0575 H         1 RES1    0.0000
     19 H8        12.3019    4.1987    0.0000 H         1 RES1    0.0000
     20 C4        15.1795   -0.1744    2.3316 C.2       1 RES1    0.0000
     21 H9        15.2527    0.5698    2.8854 H         1 RES1    0.0000
     22 C5        15.5161   -1.4677    2.8296 C.ar      1 RES1    0.0000
     23 C6        15.4357   -2.6185    2.0422 C.ar      1 RES1    0.0000
     24 C7        15.7465   -3.8492    2.5357 C.ar      1 RES1    0.0000
     25 H10       15.6806   -4.6013    1.9927 H         1 RES1    0.0000
     26 C8        16.1603   -3.9752    3.8428 C.ar      1 RES1    0.0000
     27 C9        16.2632   -2.8633    4.6507 C.ar      1 RES1    0.0000
     28 H11       16.5439   -2.9450    5.5348 H         1 RES1    0.0000
     29 C10       15.9459   -1.6445    4.1359 C.ar      1 RES1    0.0000
     30 H12       16.0219   -0.8963    4.6848 H         1 RES1    0.0000
     31 C11       16.9036   -5.4517    5.5382 C.3       1 RES1    0.0000
     32 H13       17.7314   -4.9809    5.6627 H         1 RES1    0.0000
     33 H14       17.0451   -6.3900    5.6797 H         1 RES1    0.0000
     34 H15       16.2533   -5.1267    6.1659 H         1 RES1    0.0000
     35 C12        9.1664    2.2190    0.2524 C.2       1 RES1    0.0000
     36 H16        9.2088    1.6128   -0.4520 H         1 RES1    0.0000
     37 C13        7.9235    2.3672    0.9458 C.ar      1 RES1    0.0000
     38 C14        7.7548    3.2437    2.0325 C.ar      1 RES1    0.0000
     39 C15        6.5671    3.3230    2.6844 C.ar      1 RES1    0.0000
     40 H17        6.4772    3.9110    3.3999 H         1 RES1    0.0000
     41 C16        5.5000    2.5551    2.3103 C.ar      1 RES1    0.0000
     42 C17        5.6271    1.6801    1.2474 C.ar      1 RES1    0.0000
     43 H18        4.9122    1.1491    0.9807 H         1 RES1    0.0000
     44 C18        6.8280    1.6080    0.5919 C.ar      1 RES1    0.0000
     45 H19        6.9082    1.0208   -0.1251 H         1 RES1    0.0000
     46 C19        3.2310    1.9583    2.6957 C.3       1 RES1    0.0000
     47 H20        2.9824    2.1033    1.7795 H         1 RES1    0.0000
     48 H21        2.5020    2.2056    3.2691 H         1 RES1    0.0000
     49 H22        3.4410    1.0303    2.8285 H         1 RES1    0.0000
     50 N3        12.5091    5.0427    4.1606 N.2       2 RES2    0.0000
     51 N4         8.0971    7.8768    3.7441 N.2       2 RES2    0.0000
     52 O7        12.2698    6.3797    3.8405 O.3       2 RES2    0.0000
     53 O8         9.1354    7.5970    2.8518 O.3       2 RES2    0.0000
     54 O9        12.7257    2.4893    3.8075 O.3       2 RES2    0.0000
     55 H23       12.5991    3.2691    3.5904 H         2 RES2    0.0000
     56 O10       14.0086   -0.1656    7.3464 O.3       2 RES2    0.0000
     57 O11        6.7698    8.8198    5.8216 O.3       2 RES2    0.0000
     58 H24        7.4069    8.7192    5.3159 H         2 RES2    0.0000
     59 O12        2.3388    7.2752    6.4208 O.3       2 RES2    0.0000
     60 C20       11.7622    6.4582    2.5039 C.3       2 RES2    0.0000
     61 H25       10.9841    5.8891    2.4049 H         2 RES2    0.0000
     62 H26       12.4377    6.1752    1.8677 H         2 RES2    0.0000
     63 C21       11.3952    7.8886    2.2713 C.3       2 RES2    0.0000
     64 H27       11.1239    7.9980    1.3474 H         2 RES2    0.0000
     65 H28       12.1782    8.4426    2.4163 H         2 RES2    0.0000
     66 C22       10.2884    8.3673    3.1614 C.3       2 RES2    0.0000
     67 H29       10.5310    8.2492    4.0935 H         2 RES2    0.0000
     68 H30       10.1146    9.3088    3.0048 H         2 RES2    0.0000
     69 C23       12.9112    4.8977    5.3528 C.2       2 RES2    0.0000
     70 H31       13.0262    5.6435    5.8958 H         2 RES2    0.0000
     71 C24       13.1888    3.5917    5.8679 C.ar      2 RES2    0.0000
     72 C25       13.0909    2.4386    5.1081 C.ar      2 RES2    0.0000
     73 C26       13.3612    1.2133    5.6300 C.ar      2 RES2    0.0000
     74 H32       13.2799    0.4541    5.0998 H         2 RES2    0.0000
     75 C27       13.7560    1.0945    6.9450 C.ar      2 RES2    0.0000
     76 C28       13.8468    2.2119    7.7265 C.ar      2 RES2    0.0000
     77 H33       14.0906    2.1414    8.6220 H         2 RES2    0.0000
     78 C29       13.5742    3.4363    7.1798 C.ar      2 RES2    0.0000
     79 H34       13.6520    4.1924    7.7151 H         2 RES2    0.0000
     80 C30       14.3925   -0.3590    8.6879 C.3       2 RES2    0.0000
     81 H35       15.1691    0.1712    8.8778 H         2 RES2    0.0000
     82 H36       14.5956   -1.2862    8.8323 H         2 RES2    0.0000
     83 H37       13.6746   -0.0951    9.2673 H         2 RES2    0.0000
     84 C31        7.0701    7.1928    3.4849 C.2       2 RES2    0.0000
     85 H38        7.0939    6.6119    2.7603 H         2 RES2    0.0000
     86 C32        5.8642    7.2729    4.2612 C.ar      2 RES2    0.0000
     87 C33        5.7449    8.0551    5.4080 C.ar      2 RES2    0.0000
     88 C34        4.5894    8.0773    6.1425 C.ar      2 RES2    0.0000
     89 H39        4.5379    8.6011    6.9078 H         2 RES2    0.0000
     90 C35        3.5116    7.3331    5.7542 C.ar      2 RES2    0.0000
     91 C36        3.5903    6.5604    4.6083 C.ar      2 RES2    0.0000
     92 H40        2.8563    6.0603    4.3323 H         2 RES2    0.0000
     93 C37        4.7354    6.5342    3.8897 C.ar      2 RES2    0.0000
     94 H41        4.7739    6.0072    3.1241 H         2 RES2    0.0000
     95 C38        2.2583    7.8617    7.7026 C.3       2 RES2    0.0000
     96 H42        2.9464    7.4971    8.2638 H         2 RES2    0.0000
     97 H43        1.3994    7.6747    8.0875 H         2 RES2    0.0000
     98 H44        2.3765    8.8111    7.6270 H         2 RES2    0.0000
@<TRIPOS>BOND
     1    1    3 1
     2    2    4 1
     3    3   11 1
     4    4   17 1
     5    5    6 1
     6    7   26 1
     7    8    9 1
     8   10   41 1
     9   11   12 1
    10   13   11 1
    11   14   11 1
    12   15   14 1
    13   16   14 1
    14   17   14 1
    15   18   17 1
    16   19   17 1
    17   20    1 2
    18   21   20 1
    19   22   20 1
    20   23    5 1
    21   24   23 ar
    22   25   24 1
    23   26   24 ar
    24   27   26 ar
    25   28   27 1
    26   29   22 ar
    27   30   29 1
    28   31    7 1
    29   32   31 1
    30   33   31 1
    31   34   31 1
    32   35    2 2
    33   36   35 1
    34   37   35 1
    35   38    8 1
    36   39   38 ar
    37   40   39 1
    38   41   39 ar
    39   42   41 ar
    40   43   42 1
    41   44   37 ar
    42   45   44 1
    43   46   10 1
    44   47   46 1
    45   48   46 1
    46   49   46 1
    47   50   52 1
    48   51   53 1
    49   52   60 1
    50   53   66 1
    51   54   55 1
    52   56   75 1
    53   57   58 1
    54   59   90 1
    55   60   61 1
    56   62   60 1
    57   63   60 1
    58   64   63 1
    59   65   63 1
    60   66   63 1
    61   67   66 1
    62   68   66 1
    63   69   50 2
    64   70   69 1
    65   71   69 1
    66   72   54 1
    67   73   72 ar
    68   74   73 1
    69   75   73 ar
    70   76   75 ar
    71   77   76 1
    72   78   71 ar
    73   79   78 1
    74   80   56 1
    75   81   80 1
    76   82   80 1
    77   83   80 1
    78   84   51 2
    79   85   84 1
    80   86   84 1
    81   87   57 1
    82   88   87 ar
    83   89   88 1
    84   90   88 ar
    85   91   90 ar
    86   92   91 1
    87   93   86 ar
    88   94   93 1
    89   95   59 1
    90   96   95 1
    91   97   95 1
    92   98   95 1
    93   22   23 ar
    94   27   29 ar
    95   37   38 ar
    96   42   44 ar
    97   71   72 ar
    98   76   78 ar
    99   86   87 ar
   100   91   93 ar
@<TRIPOS>SUBSTRUCTURE
     1 RES1 1
     2 RES2 50

@<TRIPOS>CRYSIN
  16.2080    7.9251   28.4520  90.0000  92.3940  90.0000 231 1

