# MOL2 file generated by ConQuest
# Please check atom types

@<TRIPOS>MOLECULE
KESYAJ
    53    46     2
SMALL
NO_CHARGES
****
Generated from CSD

@<TRIPOS>ATOM
      1 O1         5.7992   -0.4785    3.5495 O.2       1 RES1    0.0000
      2 O2         8.9728   -4.3305    5.7208 O.2       1 RES1    0.0000
      3 O3         8.6362    1.8951    5.0022 O.2       1 RES1    0.0000
      4 O4         6.8506    3.0607    5.7995 O.3       1 RES1    0.0000
      5 N1         7.2184   -0.3469    5.3891 N.3       1 RES1    0.0000
      6 N2         6.7801   -0.9633    4.2372 N.pl3     1 RES1    0.0000
      7 C1         7.4908   -2.0714    4.0777 C.2       1 RES1    0.0000
      8 C2         8.4502   -2.1243    5.0952 C.2       1 RES1    0.0000
      9 C3         8.2630   -1.0405    5.9029 C.2       1 RES1    0.0000
     10 C4         6.9413   -3.2290    3.1764 C.3       1 RES1    0.0000
     11 H1         7.2779   -4.0850    3.4845 H         1 RES1    0.0000
     12 H2         5.9718   -3.2486    3.2076 H         1 RES1    0.0000
     13 C5         7.4142   -2.9535    1.7768 C.3       1 RES1    0.0000
     14 H3         7.0186   -2.1392    1.4588 H         1 RES1    0.0000
     15 H4         7.1561   -3.6797    1.2030 H         1 RES1    0.0000
     16 H5         8.3711   -2.8678    1.7728 H         1 RES1    0.0000
     17 C6         9.3946   -3.2505    5.3556 C.2       1 RES1    0.0000
     18 N3        10.7012   -3.0231    5.1954 N.am      1 RES1    0.0000
     19 C7        11.6297   -4.0886    5.5633 C.3       1 RES1    0.0000
     20 H6        11.1964   -4.6972    6.1673 H         1 RES1    0.0000
     21 H7        12.4006   -3.7090    5.9907 H         1 RES1    0.0000
     22 H8        11.9030   -4.5625    4.7737 H         1 RES1    0.0000
     23 C8        11.2608   -1.8551    4.5851 C.3       1 RES1    0.0000
     24 H9        10.5525   -1.2857    4.2761 H         1 RES1    0.0000
     25 H10       11.8090   -2.1147    3.8416 H         1 RES1    0.0000
     26 H11       11.7951   -1.3825    5.2272 H         1 RES1    0.0000
     27 C9         8.9480   -0.6172    7.1415 C.3       1 RES1    0.0000
     28 N4         6.7508    0.8727    5.7634 N.am      1 RES1    0.0000
     29 H12        5.9107    0.8767    5.9947 H         1 RES1    0.0000
     30 C10        7.5225    1.9708    5.4567 C.2       1 RES1    0.0000
     31 C11        7.5086    4.3921    5.7611 C.3       1 RES1    0.0000
     32 C12        7.9361    4.7259    4.3517 C.3       1 RES1    0.0000
     33 C13        6.4076    5.3146    6.2375 C.3       1 RES1    0.0000
     34 C14        8.6472    4.4118    6.7472 C.3       1 RES1    0.0000
     35 H13        9.6524   -1.1633    7.4144 H         1 RES1    0.0000
     36 H14        9.4443    0.2082    7.0532 H         1 RES1    0.0000
     37 H15        8.3971   -0.2204    7.7154 H         1 RES1    0.0000
     38 H16        8.7456    4.0776    4.0935 H         1 RES1    0.0000
     39 H17        7.1762    4.8001    3.8025 H         1 RES1    0.0000
     40 H18        8.2226    5.5715    4.4045 H         1 RES1    0.0000
     41 H19        5.6140    5.2531    5.7188 H         1 RES1    0.0000
     42 H20        8.2730    4.1756    7.6451 H         1 RES1    0.0000
     43 H21        6.0467    5.0572    7.1535 H         1 RES1    0.0000
     44 H22        9.3517    3.8168    6.4813 H         1 RES1    0.0000
     45 H23        6.8104    6.2572    6.2205 H         1 RES1    0.0000
     46 H24        9.0920    5.3438    6.7321 H         1 RES1    0.0000
     47 C15        7.5197   -2.6964    2.6999 Du        2 SUP2    0.0000
     48 H25        7.2503   -2.0645    2.0156 Du        2 SUP2    0.0000
     49 H26        8.3985   -3.0466    2.4852 Du        2 SUP2    0.0000
     50 C16        6.5173   -3.7911    2.8614 Du        2 SUP2    0.0000
     51 H27        6.7330   -4.3091    3.6400 Du        2 SUP2    0.0000
     52 H28        6.5335   -4.3568    2.0859 Du        2 SUP2    0.0000
     53 H29        5.6423   -3.4103    2.9617 Du        2 SUP2    0.0000
@<TRIPOS>BOND
     1    1    6 1
     2    2   17 2
     3    3   30 2
     4    4   30 1
     5    5    6 1
     6    6    7 2
     7    7    8 1
     8    8    9 2
     9    9    5 1
    10   10    7 1
    11   11   10 1
    12   12   10 1
    13   13   10 1
    14   14   13 1
    15   15   13 1
    16   16   13 1
    17   17    8 1
    18   18   17 1
    19   19   18 1
    20   20   19 1
    21   21   19 1
    22   22   19 1
    23   23   18 1
    24   24   23 1
    25   25   23 1
    26   26   23 1
    27   27    9 1
    28   28    5 1
    29   29   28 1
    30   30   28 1
    31   31    4 1
    32   32   31 1
    33   33   31 1
    34   34   31 1
    35   35   27 1
    36   36   27 1
    37   37   27 1
    38   38   32 1
    39   39   32 1
    40   40   32 1
    41   41   33 1
    42   42   34 1
    43   43   33 1
    44   44   34 1
    45   45   33 1
    46   46   34 1
@<TRIPOS>SUBSTRUCTURE
     1 RES1 1
     2 SUP2 47

@<TRIPOS>CRYSIN
  13.6283   12.2451   10.6878  90.0000 110.1600  90.0000  14 1

