# MOL2 file generated by ConQuest
# Please check atom types

@<TRIPOS>MOLECULE
KETNAZ
    36    38     1
SMALL
NO_CHARGES
****
Generated from CSD

@<TRIPOS>ATOM
      1 O1         3.6654    2.2751    8.5040 O.3       1 RES1    0.0000
      2 O2         4.4766    2.8867    6.5649 O.2       1 RES1    0.0000
      3 O3         5.0113    4.7195    9.9143 O.3       1 RES1    0.0000
      4 O4         6.2391    6.6695    9.4769 O.3       1 RES1    0.0000
      5 N1         3.6346    4.9810    9.4142 N.3       1 RES1    0.0000
      6 C1         2.7761    3.9745   10.0446 C.3       1 RES1    0.0000
      7 C2         3.3650    2.5797    9.8968 C.3       1 RES1    0.0000
      8 C3         4.0414    3.2231    7.6378 C.2       1 RES1    0.0000
      9 C4         3.8354    4.7031    7.9908 C.3       1 RES1    0.0000
     10 C5         5.0760    5.5404    7.7029 C.3       1 RES1    0.0000
     11 C6         5.8695    5.4060    9.0043 C.3       1 RES1    0.0000
     12 C7         2.4681    4.3064   11.4984 C.ar      1 RES1    0.0000
     13 C8         2.9326    5.4844   12.0802 C.ar      1 RES1    0.0000
     14 C9         2.5802    5.8021   13.3855 C.ar      1 RES1    0.0000
     15 C10        1.7743    4.9470   14.1237 C.ar      1 RES1    0.0000
     16 C11        1.3192    3.7674   13.5511 C.ar      1 RES1    0.0000
     17 C12        1.6607    3.4519   12.2435 C.ar      1 RES1    0.0000
     18 C13        7.2667    6.5889   10.4833 C.3       1 RES1    0.0000
     19 C14        7.5608    7.9758   10.9911 C.3       1 RES1    0.0000
     20 H1         1.9060    3.9796    9.5513 H         1 RES1    0.0000
     21 H2         4.1943    2.5150   10.4335 H         1 RES1    0.0000
     22 H3         2.7215    1.9136   10.2464 H         1 RES1    0.0000
     23 H4         3.0622    5.0648    7.4701 H         1 RES1    0.0000
     24 H5         4.8386    6.4842    7.5219 H         1 RES1    0.0000
     25 H6         5.5827    5.1796    6.9334 H         1 RES1    0.0000
     26 H7         6.6901    4.8583    8.8398 H         1 RES1    0.0000
     27 H8         3.4903    6.0713   11.5834 H         1 RES1    0.0000
     28 H9         2.8925    6.6107   13.7752 H         1 RES1    0.0000
     29 H10        1.5362    5.1680   15.0166 H         1 RES1    0.0000
     30 H11        0.7725    3.1756   14.0552 H         1 RES1    0.0000
     31 H12        1.3418    2.6466   11.8538 H         1 RES1    0.0000
     32 H13        8.0865    6.1900   10.0975 H         1 RES1    0.0000
     33 H14        6.9631    6.0145   11.2297 H         1 RES1    0.0000
     34 H15        7.8083    8.5540   10.2396 H         1 RES1    0.0000
     35 H16        8.3012    7.9385   11.6325 H         1 RES1    0.0000
     36 H17        6.7643    8.3372   11.4331 H         1 RES1    0.0000
@<TRIPOS>BOND
     1    1    7 1
     2    2    8 2
     3    3    5 1
     4    4   11 1
     5    5    6 1
     6    6    7 1
     7    7   21 1
     8    8    1 1
     9    9    5 1
    10   10    9 1
    11   11    3 1
    12   12    6 1
    13   13   12 ar
    14   14   13 ar
    15   15   14 ar
    16   16   15 ar
    17   17   12 ar
    18   18    4 1
    19   19   18 1
    20   20    6 1
    21   22    7 1
    22   23    9 1
    23   24   10 1
    24   25   10 1
    25   26   11 1
    26   27   13 1
    27   28   14 1
    28   29   15 1
    29   30   16 1
    30   31   17 1
    31   32   18 1
    32   33   18 1
    33   34   19 1
    34   35   19 1
    35   36   19 1
    36    8    9 1
    37   10   11 1
    38   16   17 ar
@<TRIPOS>SUBSTRUCTURE
     1 RES1 1

@<TRIPOS>CRYSIN
   7.2805   12.9039   13.6564  90.0000  90.0000  90.0000  19 1

