# MOL2 file generated by ConQuest
# Please check atom types

@<TRIPOS>MOLECULE
KEVYUF
    41    44     1
SMALL
NO_CHARGES
****
Generated from CSD

@<TRIPOS>ATOM
      1 O1         2.5012    0.3015    5.1715 O.3       1 RES1    0.0000
      2 N1         1.4973    1.3471    5.6466 N.3       1 RES1    0.0000
      3 C1         2.7532    1.6867    4.9898 C.3       1 RES1    0.0000
      4 C2         3.9093    2.3321    5.6699 C.3       1 RES1    0.0000
      5 C3         4.5379    3.2677    4.6272 C.3       1 RES1    0.0000
      6 C4         5.2689    4.5035    5.2012 C.3       1 RES1    0.0000
      7 C5         4.2637    5.5378    5.7736 C.3       1 RES1    0.0000
      8 C6         3.2348    5.9084    4.7519 C.3       1 RES1    0.0000
      9 C7         2.4684    4.6782    4.3258 C.3       1 RES1    0.0000
     10 C8         3.3437    3.6031    3.7204 C.3       1 RES1    0.0000
     11 C9         2.6600    2.2503    3.5942 C.3       1 RES1    0.0000
     12 C10        1.4881    1.4021    7.1322 C.3       1 RES1    0.0000
     13 C11        0.5722    0.3128    7.6515 C.3       1 RES1    0.0000
     14 C12        1.0157    2.7957    7.4875 C.ar      1 RES1    0.0000
     15 C13       -0.1627    3.2917    6.9626 C.ar      1 RES1    0.0000
     16 C14       -0.5630    4.5711    7.2407 C.ar      1 RES1    0.0000
     17 C15        0.1995    5.3884    8.0382 C.ar      1 RES1    0.0000
     18 C16        1.3490    4.9023    8.5857 C.ar      1 RES1    0.0000
     19 C17        1.7611    3.6073    8.3107 C.ar      1 RES1    0.0000
     20 H1         3.5695    2.8464    6.4875 H         1 RES1    0.0000
     21 H2         4.4093    1.7755    5.9489 H         1 RES1    0.0000
     22 H3         5.2886    2.7196    4.0919 H         1 RES1    0.0000
     23 H4         5.8791    4.1287    5.9247 H         1 RES1    0.0000
     24 H5         5.8266    4.9459    4.4938 H         1 RES1    0.0000
     25 H6         3.5695    5.1714    6.6804 H         1 RES1    0.0000
     26 H7         4.7505    6.4255    6.0373 H         1 RES1    0.0000
     27 H8         2.8608    6.5523    5.2093 H         1 RES1    0.0000
     28 H9         3.4907    6.4537    3.9552 H         1 RES1    0.0000
     29 H10        1.8241    4.2555    5.0806 H         1 RES1    0.0000
     30 H11        1.6666    4.9319    3.6979 H         1 RES1    0.0000
     31 H12        3.5038    3.8328    2.8378 H         1 RES1    0.0000
     32 H13        3.2020    1.6064    3.0387 H         1 RES1    0.0000
     33 H14        1.6404    2.3532    3.2558 H         1 RES1    0.0000
     34 H15        2.6508    1.3809    7.5165 H         1 RES1    0.0000
     35 H16        0.5118    0.4509    8.6821 H         1 RES1    0.0000
     36 H17       -0.4068    0.5073    7.3396 H         1 RES1    0.0000
     37 H18        0.8792   -0.5918    7.3476 H         1 RES1    0.0000
     38 H19       -0.6693    2.6773    6.3749 H         1 RES1    0.0000
     39 H20       -1.2729    4.9037    6.8251 H         1 RES1    0.0000
     40 H21       -0.1312    6.2987    8.1757 H         1 RES1    0.0000
     41 H22        1.8110    5.4955    9.1484 H         1 RES1    0.0000
@<TRIPOS>BOND
     1    1    2 1
     2    2    3 1
     3    3    1 1
     4    4    3 1
     5    5    4 1
     6    6    5 1
     7    7    6 1
     8    8    7 1
     9    9    8 1
    10   10    5 1
    11   11    3 1
    12   12    2 1
    13   13   12 1
    14   14   12 1
    15   15   14 ar
    16   16   15 ar
    17   17   16 ar
    18   18   17 ar
    19   19   14 ar
    20   20    4 1
    21   21    4 1
    22   22    5 1
    23   23    6 1
    24   24    6 1
    25   25    7 1
    26   26    7 1
    27   27    8 1
    28   28    8 1
    29   29    9 1
    30   30    9 1
    31   31   10 1
    32   32   11 1
    33   33   11 1
    34   34   12 1
    35   35   13 1
    36   36   13 1
    37   37   13 1
    38   38   15 1
    39   39   16 1
    40   40   17 1
    41   41   18 1
    42    9   10 1
    43   10   11 1
    44   18   19 ar
@<TRIPOS>SUBSTRUCTURE
     1 RES1 1

@<TRIPOS>CRYSIN
  13.1230   14.0910    8.0390  90.0000  90.0000  90.0000  19 1

