# MOL2 file generated by ConQuest
# Please check atom types

@<TRIPOS>MOLECULE
KEVYAN
   118   124     2
SMALL
NO_CHARGES
****
Generated from CSD

@<TRIPOS>ATOM
      1 C1        13.6604    4.3155    4.9782 C.ar      1 RES1    0.0000
      2 C2        14.6066    5.3139    5.1321 C.ar      1 RES1    0.0000
      3 H1        15.4377    5.0980    5.5397 H         1 RES1    0.0000
      4 C3        14.3860    6.6142    4.7134 C.ar      1 RES1    0.0000
      5 H2        15.0569    7.2763    4.8299 H         1 RES1    0.0000
      6 C4        13.1629    6.9416    4.1187 C.ar      1 RES1    0.0000
      7 H3        13.0022    7.8291    3.8193 H         1 RES1    0.0000
      8 C5        12.1982    5.9787    3.9676 C.ar      1 RES1    0.0000
      9 H4        11.3705    6.1954    3.5545 H         1 RES1    0.0000
     10 C6        12.4367    4.6784    4.4223 C.ar      1 RES1    0.0000
     11 H5        11.7484    4.0270    4.3488 H         1 RES1    0.0000
     12 C7        13.9084    2.8679    5.2929 C.3       1 RES1    0.0000
     13 H6        13.0512    2.4464    5.5910 H         1 RES1    0.0000
     14 C8        14.4501    2.0953    4.0896 C.3       1 RES1    0.0000
     15 C9        15.3565    0.9212    4.6552 C.3       1 RES1    0.0000
     16 H7        16.1377    0.7656    4.0522 H         1 RES1    0.0000
     17 C10       15.8248    1.5041    5.9944 C.2       1 RES1    0.0000
     18 C11       14.9979    2.5598    6.3188 C.2       1 RES1    0.0000
     19 C12       15.3129    2.9123    3.2148 C.1       1 RES1    0.0000
     20 C13       13.2850    1.6047    3.2453 C.1       1 RES1    0.0000
     21 C14       14.6114   -0.4029    4.9131 C.ar      1 RES1    0.0000
     22 C15       14.9019   -1.5175    4.1506 C.ar      1 RES1    0.0000
     23 H8        15.5789   -1.4685    3.4866 H         1 RES1    0.0000
     24 C16       14.2132   -2.7082    4.3447 C.ar      1 RES1    0.0000
     25 H9        14.4287   -3.4830    3.8373 H         1 RES1    0.0000
     26 C17       13.1924   -2.7402    5.3054 C.ar      1 RES1    0.0000
     27 C18       12.9070   -1.6542    6.0526 C.ar      1 RES1    0.0000
     28 H10       12.2213   -1.6992    6.7083 H         1 RES1    0.0000
     29 C19       13.6076   -0.4754    5.8682 C.ar      1 RES1    0.0000
     30 H11       13.4008    0.2865    6.3978 H         1 RES1    0.0000
     31 C20       12.4604   -3.9784    5.5092 C.1       1 RES1    0.0000
     32 C21       17.5741   -0.1707    6.3049 C.3       1 RES1    0.0000
     33 H12       18.0556    0.0138    5.4593 H         1 RES1    0.0000
     34 H13       16.9745   -0.9437    6.1580 H         1 RES1    0.0000
     35 C22       18.5700   -0.4929    7.4056 C.3       1 RES1    0.0000
     36 H14       19.0874   -1.2994    7.1575 H         1 RES1    0.0000
     37 H15       19.2063    0.2598    7.5054 H         1 RES1    0.0000
     38 C23       17.0686   -1.9210    8.6630 C.3       1 RES1    0.0000
     39 H16       17.6107   -2.6916    8.3594 H         1 RES1    0.0000
     40 H17       16.3190   -1.8028    8.0281 H         1 RES1    0.0000
     41 C24       16.5431   -2.1909    9.9911 C.3       1 RES1    0.0000
     42 H18       15.9860   -1.4251   10.2808 H         1 RES1    0.0000
     43 H19       15.9622   -2.9922    9.9537 H         1 RES1    0.0000
     44 C25       18.3259   -1.1812   11.0641 C.3       1 RES1    0.0000
     45 H20       19.0261   -1.2650   11.7586 H         1 RES1    0.0000
     46 H21       17.7193   -0.4428   11.3219 H         1 RES1    0.0000
     47 C26       18.9564   -0.8836    9.7402 C.3       1 RES1    0.0000
     48 H22       19.5688   -1.6205    9.4906 H         1 RES1    0.0000
     49 H23       19.4877   -0.0494    9.8053 H         1 RES1    0.0000
     50 N1        15.9927    3.5633    2.5730 N.1       1 RES1    0.0000
     51 N2        12.3724    1.2766    2.6770 N.1       1 RES1    0.0000
     52 N3        14.9505    3.0967    7.5886 N.pl3     1 RES1    0.0000
     53 N4        11.8359   -4.8960    5.6852 N.1       1 RES1    0.0000
     54 N5        16.7921    0.9904    6.6875 N.3       1 RES1    0.0000
     55 H24       16.9913    1.3781    7.4528 H         1 RES1    0.0000
     56 N6        17.8892   -0.7256    8.6741 N.3       1 RES1    0.0000
     57 O1        13.9923    3.8134    7.9075 O.2       1 RES1    0.0000
     58 O2        15.9039    2.8563    8.3760 O.2       1 RES1    0.0000
     59 O3        17.5877   -2.4090   10.9629 O.3       1 RES1    0.0000
     60 C27        7.4811    2.6698    0.2010 C.ar      2 RES2    0.0000
     61 C28        8.5078    3.3357   -0.4935 C.ar      2 RES2    0.0000
     62 H25        9.3683    2.9403   -0.5587 H         2 RES2    0.0000
     63 C29        8.2718    4.5385   -1.0675 C.ar      2 RES2    0.0000
     64 H26        8.9837    4.9701   -1.5277 H         2 RES2    0.0000
     65 C30        7.0419    5.1671   -1.0120 C.ar      2 RES2    0.0000
     66 H27        6.8993    6.0046   -1.4362 H         2 RES2    0.0000
     67 C31        6.0171    4.5320   -0.3119 C.ar      2 RES2    0.0000
     68 H28        5.1680    4.9531   -0.2440 H         2 RES2    0.0000
     69 C32        6.2086    3.3057    0.2814 C.ar      2 RES2    0.0000
     70 H29        5.4948    2.8833    0.7444 H         2 RES2    0.0000
     71 C33        7.7076    1.3909    0.9413 C.3       2 RES2    0.0000
     72 H30        6.8443    0.8892    0.9787 H         2 RES2    0.0000
     73 C34        8.2406    1.5713    2.4025 C.3       2 RES2    0.0000
     74 C35        9.1260    0.3036    2.7282 C.3       2 RES2    0.0000
     75 H31        9.9006    0.5658    3.3049 H         2 RES2    0.0000
     76 C36        9.6254   -0.0848    1.3184 C.2       2 RES2    0.0000
     77 C37        8.7820    0.4623    0.3909 C.2       2 RES2    0.0000
     78 C38        9.0947    2.7533    2.5064 C.1       2 RES2    0.0000
     79 C39        7.0929    1.7603    3.3535 C.1       2 RES2    0.0000
     80 C40        8.3615   -0.8629    3.3715 C.ar      2 RES2    0.0000
     81 C41        8.7351   -1.3543    4.6039 C.ar      2 RES2    0.0000
     82 H32        9.4620   -0.9516    5.0655 H         2 RES2    0.0000
     83 C42        8.0693   -2.4255    5.1806 C.ar      2 RES2    0.0000
     84 H33        8.3836   -2.7961    5.9971 H         2 RES2    0.0000
     85 C43        6.9334   -2.9598    4.5568 C.ar      2 RES2    0.0000
     86 C44        6.5623   -2.4949    3.3271 C.ar      2 RES2    0.0000
     87 H34        5.8174   -2.8782    2.8780 H         2 RES2    0.0000
     88 C45        7.2691   -1.4721    2.7379 C.ar      2 RES2    0.0000
     89 H35        7.0101   -1.1695    1.8757 H         2 RES2    0.0000
     90 C46        6.1947   -4.0246    5.1598 C.1       2 RES2    0.0000
     91 C47       11.3369   -1.6506    2.1723 C.3       2 RES2    0.0000
     92 H36       11.1849   -1.2305    3.0554 H         2 RES2    0.0000
     93 H37       12.3074   -1.6262    1.9796 H         2 RES2    0.0000
     94 C48       10.8463   -3.1014    2.1945 C.3       2 RES2    0.0000
     95 H38       11.1979   -3.5659    2.9944 H         2 RES2    0.0000
     96 H39        9.8573   -3.1239    2.2292 H         2 RES2    0.0000
     97 C49       12.5312   -4.5128    1.2615 C.3       2 RES2    0.0000
     98 H40       12.3513   -5.1994    1.9519 H         2 RES2    0.0000
     99 H41       13.2377   -3.9055    1.5942 H         2 RES2    0.0000
    100 C50       12.9570   -5.1628   -0.0291 C.3       2 RES2    0.0000
    101 H42       13.0378   -4.4793   -0.7403 H         2 RES2    0.0000
    102 H43       13.8400   -5.5960    0.0873 H         2 RES2    0.0000
    103 C51       10.8715   -5.4358   -0.7569 C.3       2 RES2    0.0000
    104 H44       10.1734   -6.0232   -1.1395 H         2 RES2    0.0000
    105 H45       11.1293   -4.7735   -1.4459 H         2 RES2    0.0000
    106 C52       10.3121   -4.7078    0.4686 C.3       2 RES2    0.0000
    107 H46        9.4902   -4.2145    0.2232 H         2 RES2    0.0000
    108 H47       10.0834   -5.3625    1.1756 H         2 RES2    0.0000
    109 N7         9.7746    3.6731    2.5841 N.1       2 RES2    0.0000
    110 N8         6.1868    1.9420    4.0203 N.1       2 RES2    0.0000
    111 N9         8.7882    0.1005   -0.9136 N.pl3     2 RES2    0.0000
    112 N10        5.5359   -4.8202    5.6256 N.1       2 RES2    0.0000
    113 N11       10.5874   -0.9004    1.1118 N.3       2 RES2    0.0000
    114 H48       10.8302   -1.0340    0.2773 H         2 RES2    0.0000
    115 N12       11.3299   -3.7750    0.9593 N.3       2 RES2    0.0000
    116 O4         7.7999    0.4137   -1.6455 O.2       2 RES2    0.0000
    117 O5         9.7449   -0.5741   -1.3697 O.2       2 RES2    0.0000
    118 O6        11.9464   -6.1731   -0.4131 O.3       2 RES2    0.0000
@<TRIPOS>BOND
     1    1    2 ar
     2    2    3 1
     3    4    2 ar
     4    5    4 1
     5    6    4 ar
     6    7    6 1
     7    8    6 ar
     8    9    8 1
     9   10    1 ar
    10   11   10 1
    11   12    1 1
    12   13   12 1
    13   14   12 1
    14   15   14 1
    15   16   15 1
    16   17   15 1
    17   18   12 1
    18   19   14 1
    19   20   14 1
    20   21   15 1
    21   22   21 ar
    22   23   22 1
    23   24   22 ar
    24   25   24 1
    25   26   24 ar
    26   27   26 ar
    27   28   27 1
    28   29   21 ar
    29   30   29 1
    30   31   26 1
    31   32   33 1
    32   34   32 1
    33   35   32 1
    34   36   35 1
    35   37   35 1
    36   38   39 1
    37   40   38 1
    38   41   38 1
    39   42   41 1
    40   43   41 1
    41   44   45 1
    42   46   44 1
    43   47   44 1
    44   48   47 1
    45   49   47 1
    46   50   19 3
    47   51   20 3
    48   52   18 1
    49   53   31 3
    50   54   17 1
    51   55   54 1
    52   56   35 1
    53   57   52 2
    54   58   52 2
    55   59   41 1
    56   60   61 ar
    57   61   62 1
    58   63   61 ar
    59   64   63 1
    60   65   63 ar
    61   66   65 1
    62   67   65 ar
    63   68   67 1
    64   69   60 ar
    65   70   69 1
    66   71   60 1
    67   72   71 1
    68   73   71 1
    69   74   73 1
    70   75   74 1
    71   76   74 1
    72   77   71 1
    73   78   73 1
    74   79   73 1
    75   80   74 1
    76   81   80 ar
    77   82   81 1
    78   83   81 ar
    79   84   83 1
    80   85   83 ar
    81   86   85 ar
    82   87   86 1
    83   88   80 ar
    84   89   88 1
    85   90   85 1
    86   91   92 1
    87   93   91 1
    88   94   91 1
    89   95   94 1
    90   96   94 1
    91   97   98 1
    92   99   97 1
    93  100   97 1
    94  101  100 1
    95  102  100 1
    96  103  104 1
    97  105  103 1
    98  106  103 1
    99  107  106 1
   100  108  106 1
   101  109   78 3
   102  110   79 3
   103  111   77 1
   104  112   90 3
   105  113   76 1
   106  114  113 1
   107  115   94 1
   108  116  111 2
   109  117  111 2
   110  118  100 1
   111    8   10 ar
   112   17   18 2
   113   27   29 ar
   114   32   54 1
   115   38   56 1
   116   44   59 1
   117   47   56 1
   118   67   69 ar
   119   76   77 2
   120   86   88 ar
   121   91  113 1
   122   97  115 1
   123  103  118 1
   124  106  115 1
@<TRIPOS>SUBSTRUCTURE
     1 RES1 1
     2 RES2 60

@<TRIPOS>CRYSIN
  12.4090   14.6410   14.6640  72.0910  89.8020  70.0130   2 1

