# MOL2 file generated by ConQuest
# Please check atom types

@<TRIPOS>MOLECULE
KEWZUJ
    38    39     1
SMALL
NO_CHARGES
****
Generated from CSD

@<TRIPOS>ATOM
      1 C1         1.4252   10.4028    6.8698 C.ar      1 RES1    0.0000
      2 H1         0.7400    9.9159    7.2669 H         1 RES1    0.0000
      3 C2         2.4596    8.2145    6.1707 C.3       1 RES1    0.0000
      4 H2         1.6272    7.8941    6.5779 H         1 RES1    0.0000
      5 C3         3.4319   10.4877    5.5878 C.ar      1 RES1    0.0000
      6 H3         4.1156   10.0597    5.1249 H         1 RES1    0.0000
      7 N1         1.4514    8.3268    3.8917 N.pl3     1 RES1    0.0000
      8 O1         0.3112    8.3152    4.2874 O.2       1 RES1    0.0000
      9 C4         2.4477    9.7325    6.2096 C.ar      1 RES1    0.0000
     10 C5         3.6494    7.6185    6.9766 C.3       1 RES1    0.0000
     11 H4         4.4673    7.8556    6.4927 H         1 RES1    0.0000
     12 O2         1.7688    8.8059    2.8329 O.2       1 RES1    0.0000
     13 C6         3.6065    6.0943    7.0526 C.3       1 RES1    0.0000
     14 H5         4.1858    5.7893    7.7820 H         1 RES1    0.0000
     15 O3         2.2931    5.6107    7.2643 O.3       1 RES1    0.0000
     16 C7         2.5127    7.6951    4.7326 C.3       1 RES1    0.0000
     17 H6         3.3832    7.8882    4.3515 H         1 RES1    0.0000
     18 H7         2.3929    6.7327    4.7335 H         1 RES1    0.0000
     19 C8         3.7749    8.2178    8.3848 C.3       1 RES1    0.0000
     20 H8         4.5839    7.8704    8.7916 H         1 RES1    0.0000
     21 H9         3.8836    9.1772    8.2979 H         1 RES1    0.0000
     22 C9         3.4072   11.8768    5.6485 C.ar      1 RES1    0.0000
     23 H10        4.0688   12.3707    5.2213 H         1 RES1    0.0000
     24 C10        1.4113   11.7865    6.9455 C.ar      1 RES1    0.0000
     25 H11        0.7300   12.2209    7.4051 H         1 RES1    0.0000
     26 O4         4.0281    5.4989    5.8420 O.3       1 RES1    0.0000
     27 C11        2.6182    7.9551    9.3298 C.3       1 RES1    0.0000
     28 H12        1.8205    8.3584    8.9792 H         1 RES1    0.0000
     29 H13        2.8156    8.3332   10.1901 H         1 RES1    0.0000
     30 H14        2.4863    7.0086    9.4184 H         1 RES1    0.0000
     31 C12        2.2307    4.3025    6.7016 C.3       1 RES1    0.0000
     32 H15        1.4187    4.1888    6.1840 H         1 RES1    0.0000
     33 H16        2.2550    3.6267    7.3983 H         1 RES1    0.0000
     34 C13        3.4367    4.2041    5.8258 C.3       1 RES1    0.0000
     35 H17        4.0553    3.5421    6.1703 H         1 RES1    0.0000
     36 H18        3.1836    3.9560    4.9237 H         1 RES1    0.0000
     37 C14        2.4093   12.5191    6.3373 C.ar      1 RES1    0.0000
     38 H19        2.4059   13.4476    6.3946 H         1 RES1    0.0000
@<TRIPOS>BOND
     1    1    2 1
     2    3    4 1
     3    5    6 1
     4    7    8 2
     5    9    1 ar
     6   10    3 1
     7   11   10 1
     8   12    7 2
     9   13   10 1
    10   14   13 1
    11   15   13 1
    12   16    3 1
    13   17   16 1
    14   18   16 1
    15   19   10 1
    16   20   19 1
    17   21   19 1
    18   22    5 ar
    19   23   22 1
    20   24    1 ar
    21   25   24 1
    22   26   13 1
    23   27   19 1
    24   28   27 1
    25   29   27 1
    26   30   27 1
    27   31   15 1
    28   32   31 1
    29   33   31 1
    30   34   26 1
    31   35   34 1
    32   36   34 1
    33   37   22 ar
    34   38   37 1
    35    3    9 1
    36    5    9 ar
    37    7   16 1
    38   24   37 ar
    39   31   34 1
@<TRIPOS>SUBSTRUCTURE
     1 RES1 1

@<TRIPOS>CRYSIN
   5.5646   14.8330    8.7196  90.0000 102.0560  90.0000   4 1

