# MOL2 file generated by ConQuest
# Please check atom types

@<TRIPOS>MOLECULE
KEYVER
    68    67     2
SMALL
NO_CHARGES
****
Generated from CSD

@<TRIPOS>ATOM
      1 N1         0.8967   13.4645   11.5580 N.pl3     1 RES1    0.0000
      2 N2        -0.4529   16.4482   13.0594 N.pl3     1 RES1    0.0000
      3 H1        -1.2227   16.4501   13.4430 H         1 RES1    0.0000
      4 N3         2.0363   21.3332   12.0307 N.pl3     1 RES1    0.0000
      5 O1         1.3773   15.6554   15.5471 O.2       1 RES1    0.0000
      6 O2        -3.4430   16.1685    7.3982 O.3       1 RES1    0.0000
      7 O3         1.5346   22.3305   12.5087 O.2       1 RES1    0.0000
      8 O4         3.0825   21.3569   11.3975 O.2       1 RES1    0.0000
      9 C1        -0.0291   14.5182   11.5698 C.2       1 RES1    0.0000
     10 C2         0.1723   15.2071   12.7390 C.2       1 RES1    0.0000
     11 C3         1.2394   14.5836   13.4551 C.2       1 RES1    0.0000
     12 C4         1.8435   14.8490   14.7488 C.2       1 RES1    0.0000
     13 C5         3.1067   14.0605   15.0369 C.3       1 RES1    0.0000
     14 H2         3.2536   14.0503   15.9960 H         1 RES1    0.0000
     15 H3         3.8582   14.5208   14.6303 H         1 RES1    0.0000
     16 C6         3.0893   12.6035   14.5264 C.3       1 RES1    0.0000
     17 C7         2.7787   12.5947   13.0285 C.3       1 RES1    0.0000
     18 H4         3.5695   12.8651   12.5351 H         1 RES1    0.0000
     19 H5         2.5488   11.6938   12.7539 H         1 RES1    0.0000
     20 C8         1.6591   13.5092   12.6962 C.2       1 RES1    0.0000
     21 C9         0.8874   12.3130   10.6816 C.ar      1 RES1    0.0000
     22 C10        2.0093   12.0134    9.9446 C.ar      1 RES1    0.0000
     23 H6         2.7449   12.5838    9.9511 H         1 RES1    0.0000
     24 C11        2.0278   10.8461    9.1891 C.ar      1 RES1    0.0000
     25 H7         2.7805   10.6302    8.6878 H         1 RES1    0.0000
     26 C12        0.9417   10.0135    9.1829 C.ar      1 RES1    0.0000
     27 H8         0.9652    9.2275    8.6863 H         1 RES1    0.0000
     28 C13       -0.1874   10.3352    9.9061 C.ar      1 RES1    0.0000
     29 H9        -0.9329    9.7798    9.8813 H         1 RES1    0.0000
     30 C14       -0.2083   11.4854   10.6697 C.ar      1 RES1    0.0000
     31 H10       -0.9606   11.6985   11.1725 H         1 RES1    0.0000
     32 C15       -0.8851   14.8492   10.4260 C.ar      1 RES1    0.0000
     33 C16       -0.4483   14.7345    9.1100 C.ar      1 RES1    0.0000
     34 H11        0.3876   14.3646    8.9392 H         1 RES1    0.0000
     35 C17       -1.2268   15.1540    8.0562 C.ar      1 RES1    0.0000
     36 H12       -0.9125   15.0646    7.1855 H         1 RES1    0.0000
     37 C18       -2.4748   15.7105    8.2828 C.ar      1 RES1    0.0000
     38 C19       -2.9448   15.8026    9.5755 C.ar      1 RES1    0.0000
     39 H13       -3.7917   16.1507    9.7385 H         1 RES1    0.0000
     40 C20       -2.1626   15.3805   10.6231 C.ar      1 RES1    0.0000
     41 H14       -2.4935   15.4488   11.4891 H         1 RES1    0.0000
     42 C21        0.1565   17.6353   12.7636 C.ar      1 RES1    0.0000
     43 C22       -0.4810   18.8448   13.0844 C.ar      1 RES1    0.0000
     44 H15       -1.3235   18.8284   13.4787 H         1 RES1    0.0000
     45 C23        0.1168   20.0440   12.8284 C.ar      1 RES1    0.0000
     46 H16       -0.3068   20.8387   13.0581 H         1 RES1    0.0000
     47 C24        1.3640   20.0655   12.2201 C.ar      1 RES1    0.0000
     48 C25        2.0026   18.9078   11.8709 C.ar      1 RES1    0.0000
     49 H17        2.8369   18.9373   11.4627 H         1 RES1    0.0000
     50 C26        1.3992   17.6987   12.1319 C.ar      1 RES1    0.0000
     51 H18        1.8263   16.9101   11.8833 H         1 RES1    0.0000
     52 C27        2.0507   11.8045   15.3054 C.3       1 RES1    0.0000
     53 H19        2.0287   10.9021   14.9779 H         1 RES1    0.0000
     54 H20        1.1862   12.2070   15.1921 H         1 RES1    0.0000
     55 H21        2.2822   11.8006   16.2381 H         1 RES1    0.0000
     56 C28        4.4710   11.9751   14.7203 C.3       1 RES1    0.0000
     57 H22        4.6666   11.9149   15.6576 H         1 RES1    0.0000
     58 H23        5.1334   12.5211   14.2904 H         1 RES1    0.0000
     59 H24        4.4807   11.0969   14.3338 H         1 RES1    0.0000
     60 C29       -2.8964   16.4933    6.1318 C.3       1 RES1    0.0000
     61 H25       -2.1582   17.0959    6.2466 H         1 RES1    0.0000
     62 H26       -3.5698   16.9111    5.5901 H         1 RES1    0.0000
     63 H27       -2.5909   15.6922    5.7003 H         1 RES1    0.0000
     64 O5        -2.9306   16.0999    7.0164 Du        2 SUP2    0.0000
     65 C30       -3.9979   17.0154    7.0816 Du        2 SUP2    0.0000
     66 H28       -4.7026   16.6502    7.6247 Du        2 SUP2    0.0000
     67 H29       -4.3339   17.1819    6.1954 Du        2 SUP2    0.0000
     68 H30       -3.6940   17.8396    7.4664 Du        2 SUP2    0.0000
@<TRIPOS>BOND
     1    1    9 1
     2    2    3 1
     3    4    7 2
     4    5   12 2
     5    6   37 1
     6    8    4 2
     7    9   10 2
     8   10    2 1
     9   11   10 1
    10   12   11 1
    11   13   12 1
    12   14   13 1
    13   15   13 1
    14   16   13 1
    15   17   16 1
    16   18   17 1
    17   19   17 1
    18   20    1 1
    19   21    1 1
    20   22   21 ar
    21   23   22 1
    22   24   22 ar
    23   25   24 1
    24   26   24 ar
    25   27   26 1
    26   28   26 ar
    27   29   28 1
    28   30   21 ar
    29   31   30 1
    30   32    9 1
    31   33   32 ar
    32   34   33 1
    33   35   33 ar
    34   36   35 1
    35   37   35 ar
    36   38   37 ar
    37   39   38 1
    38   40   32 ar
    39   41   40 1
    40   42    2 1
    41   43   42 ar
    42   44   43 1
    43   45   43 ar
    44   46   45 1
    45   47    4 1
    46   48   47 ar
    47   49   48 1
    48   50   42 ar
    49   51   50 1
    50   52   16 1
    51   53   52 1
    52   54   52 1
    53   55   52 1
    54   56   16 1
    55   57   56 1
    56   58   56 1
    57   59   56 1
    58   60    6 1
    59   61   60 1
    60   62   60 1
    61   63   60 1
    62   11   20 2
    63   17   20 1
    64   28   30 ar
    65   38   40 ar
    66   45   47 ar
    67   48   50 ar
@<TRIPOS>SUBSTRUCTURE
     1 RES1 1
     2 SUP2 64

@<TRIPOS>CRYSIN
   6.1780   12.9104   16.0678 100.4370 100.3980  91.4430   2 1

