# MOL2 file generated by ConQuest
# Please check atom types

@<TRIPOS>MOLECULE
KEZHAY
    89    94     1
SMALL
USER_CHARGES
****
Generated from CSD

@<TRIPOS>ATOM
      1 C1        11.0163    0.9012    2.7187 C.3       1 RES1    0.0000
      2 O1         7.8139    5.3404   -1.2060 O.2       1 RES1    0.0000
      3 O2        12.1877    3.7988   -1.2212 O.2       1 RES1   -1.0000
      4 N1         9.0526    5.1403   -1.5312 N.3       1 RES1    0.0000
      5 N2        11.1169    4.4356   -1.5094 N.pl3     1 RES1    1.0000
      6 C2        10.1123    1.7114    1.7911 C.ar      1 RES1    0.0000
      7 C3        10.4968    2.7181    0.9167 C.ar      1 RES1    0.0000
      8 C4         9.5473    3.2566    0.0489 C.ar      1 RES1    0.0000
      9 C5         8.2290    2.7763    0.0783 C.ar      1 RES1    0.0000
     10 C6         7.8662    1.7636    0.9483 C.ar      1 RES1    0.0000
     11 C7         8.8174    1.2420    1.8063 C.ar      1 RES1    0.0000
     12 C8         8.6272    0.0910    2.7742 C.3       1 RES1    0.0000
     13 C9         9.9668    0.0788    3.5191 C.3       1 RES1    0.0000
     14 C10        8.4362   -1.2080    1.9770 C.3       1 RES1    0.0000
     15 C11        7.4556    0.3069    3.6996 C.3       1 RES1    0.0000
     16 C12        9.9006    4.2706   -0.9472 C.2       1 RES1    0.0000
     17 C13        9.6315    5.7855   -2.7426 C.3       1 RES1    0.0000
     18 C14        9.1028    4.9498   -3.9454 C.3       1 RES1    0.0000
     19 C15        9.1502    7.2216   -2.8176 C.3       1 RES1    0.0000
     20 C16       11.1414    5.5806   -2.4914 C.3       1 RES1    0.0000
     21 C17       11.8110    6.7377   -1.7628 C.3       1 RES1    0.0000
     22 C18       11.9623    5.1645   -3.7072 C.3       1 RES1    0.0000
     23 H1        10.2803   -0.8126    3.7083 H         1 RES1    0.0000
     24 H2         6.9243    1.4676    0.9787 H         1 RES1    0.0000
     25 H3        11.3835    3.0080    0.9135 H         1 RES1    0.0000
     26 H4         7.6001    3.1050   -0.5546 H         1 RES1    0.0000
     27 H5         9.3443    7.7626   -1.7617 H         1 RES1    0.0000
     28 H6        11.5290    4.2937   -4.2412 H         1 RES1    0.0000
     29 H7        12.9060    4.9365   -3.4473 H         1 RES1    0.0000
     30 H8        11.7889    7.5685   -2.3272 H         1 RES1    0.0000
     31 H9        11.9051    5.9311   -4.2520 H         1 RES1    0.0000
     32 H10       12.6969    6.4284   -1.4681 H         1 RES1    0.0000
     33 H11        7.6696    1.2372    4.1868 H         1 RES1    0.0000
     34 H12        7.4727   -0.3881    4.2738 H         1 RES1    0.0000
     35 H13       11.1383    7.1076   -0.9570 H         1 RES1    0.0000
     36 H14        8.3020   -1.8557    2.6317 H         1 RES1    0.0000
     37 H15        8.8882   -1.4070    1.2180 H         1 RES1    0.0000
     38 H16        9.4737    5.3246   -4.6870 H         1 RES1    0.0000
     39 H17        7.5941   -1.1401    1.5551 H         1 RES1    0.0000
     40 H18        9.5690    7.4957   -3.4364 H         1 RES1    0.0000
     41 H19        8.0471    4.9365   -3.9040 H         1 RES1    0.0000
     42 H20        9.3138    3.8692   -3.8062 H         1 RES1    0.0000
     43 H21        6.6359    0.5094    3.3494 H         1 RES1    0.0000
     44 H22        9.8030    0.4973    4.4587 H         1 RES1    0.0000
     45 H23        8.1709    7.1925   -2.9471 H         1 RES1    0.0000
     46 C2F       11.9203    1.7114    3.6463 C.ar      1 RES1    0.0000
     47 C3F       11.5359    2.7181    4.5206 C.ar      1 RES1    0.0000
     48 C4F       12.4854    3.2566    5.3884 C.ar      1 RES1    0.0000
     49 C5F       13.8036    2.7763    5.3591 C.ar      1 RES1    0.0000
     50 C6F       14.1664    1.7636    4.4891 C.ar      1 RES1    0.0000
     51 C7F       13.2153    1.2420    3.6311 C.ar      1 RES1    0.0000
     52 C8F       13.4055    0.0910    2.6632 C.3       1 RES1    0.0000
     53 C9F       12.0659    0.0788    1.9183 C.3       1 RES1    0.0000
     54 H1F       11.7523   -0.8126    1.7291 H         1 RES1    0.0000
     55 H22F      12.2297    0.4973    0.9787 H         1 RES1    0.0000
     56 C10F      13.5965   -1.2080    3.4603 C.3       1 RES1    0.0000
     57 H14F      13.7306   -1.8557    2.8057 H         1 RES1    0.0000
     58 H15F      13.1444   -1.4070    4.2194 H         1 RES1    0.0000
     59 H17F      14.4385   -1.1401    3.8823 H         1 RES1    0.0000
     60 C11F      14.5770    0.3069    1.7378 C.3       1 RES1    0.0000
     61 H11F      14.3630    1.2372    1.2506 H         1 RES1    0.0000
     62 H12F      14.5599   -0.3881    1.1636 H         1 RES1    0.0000
     63 H21F      15.3968    0.5094    2.0880 H         1 RES1    0.0000
     64 H2F       15.1083    1.4676    4.4587 H         1 RES1    0.0000
     65 H4F       14.4325    3.1050    5.9920 H         1 RES1    0.0000
     66 C12F      12.1321    4.2706    6.3846 C.2       1 RES1    0.0000
     67 N1F       12.9801    5.1403    6.9685 N.3       1 RES1    0.0000
     68 O1F       14.2188    5.3404    6.6434 O.2       1 RES1    0.0000
     69 C13F      12.4012    5.7855    8.1800 C.3       1 RES1    0.0000
     70 C14F      12.9298    4.9498    9.3827 C.3       1 RES1    0.0000
     71 H16F      12.5590    5.3246   10.1244 H         1 RES1    0.0000
     72 H19F      13.9855    4.9365    9.3414 H         1 RES1    0.0000
     73 H20F      12.7188    3.8692    9.2435 H         1 RES1    0.0000
     74 C15F      12.8825    7.2216    8.2550 C.3       1 RES1    0.0000
     75 H5F       12.6884    7.7626    7.1991 H         1 RES1    0.0000
     76 H18F      12.4636    7.4957    8.8738 H         1 RES1    0.0000
     77 H23F      13.8618    7.1925    8.3844 H         1 RES1    0.0000
     78 C16F      10.8912    5.5806    7.9288 C.3       1 RES1    0.0000
     79 N2F       10.9158    4.4356    6.9468 N.pl3     1 RES1    1.0000
     80 O2F        9.8450    3.7988    6.6586 O.2       1 RES1   -1.0000
     81 C17F      10.2216    6.7377    7.2002 C.3       1 RES1    0.0000
     82 H8F       10.2438    7.5685    7.7646 H         1 RES1    0.0000
     83 H10F       9.3357    6.4284    6.9055 H         1 RES1    0.0000
     84 H13F      10.8944    7.1076    6.3944 H         1 RES1    0.0000
     85 C18F      10.0704    5.1645    9.1446 C.3       1 RES1    0.0000
     86 H6F       10.5037    4.2937    9.6785 H         1 RES1    0.0000
     87 H7F        9.1266    4.9365    8.8847 H         1 RES1    0.0000
     88 H9F       10.1276    5.9311    9.6894 H         1 RES1    0.0000
     89 H3F       10.6491    3.0080    4.5239 H         1 RES1    0.0000
@<TRIPOS>BOND
     1    1    6 1
     2    2    4 1
     3    3    5 1
     4    4   16 1
     5    5   16 2
     6    6    7 ar
     7    7    8 ar
     8    8    9 ar
     9    9   10 ar
    10   10   11 ar
    11   11    6 ar
    12   12   11 1
    13   13    1 1
    14   14   12 1
    15   15   12 1
    16   16    8 1
    17   17    4 1
    18   18   17 1
    19   19   17 1
    20   20    5 1
    21   21   20 1
    22   22   20 1
    23   23   13 1
    24   24   10 1
    25   25    7 1
    26   26    9 1
    27   27   19 1
    28   28   22 1
    29   29   22 1
    30   30   21 1
    31   31   22 1
    32   32   21 1
    33   33   15 1
    34   34   15 1
    35   35   21 1
    36   36   14 1
    37   37   14 1
    38   38   18 1
    39   39   14 1
    40   40   19 1
    41   41   18 1
    42   42   18 1
    43   43   15 1
    44   44   13 1
    45   45   19 1
    46   46    1 1
    47   47   46 ar
    48   48   47 ar
    49   49   48 ar
    50   50   49 ar
    51   51   46 ar
    52   52   51 1
    53   53    1 1
    54   54   53 1
    55   55   53 1
    56   56   52 1
    57   57   56 1
    58   58   56 1
    59   59   56 1
    60   60   52 1
    61   61   60 1
    62   62   60 1
    63   63   60 1
    64   64   50 1
    65   65   49 1
    66   66   48 1
    67   67   66 1
    68   68   67 1
    69   69   67 1
    70   70   69 1
    71   71   70 1
    72   72   70 1
    73   73   70 1
    74   74   69 1
    75   75   74 1
    76   76   74 1
    77   77   74 1
    78   78   69 1
    79   79   66 2
    80   80   79 1
    81   81   78 1
    82   82   81 1
    83   83   81 1
    84   84   81 1
    85   85   78 1
    86   86   85 1
    87   87   85 1
    88   88   85 1
    89   89   47 1
    90   12   13 1
    91   17   20 1
    92   50   51 ar
    93   52   53 1
    94   78   79 1
@<TRIPOS>SUBSTRUCTURE
     1 RES1 1

@<TRIPOS>CRYSIN
  24.8610   12.1290   12.2580  90.0000 117.4820  90.0000  15 1

