# MOL2 file generated by ConQuest
# Please check atom types

@<TRIPOS>MOLECULE
KEZLOT
    61    65     1
SMALL
NO_CHARGES
****
Generated from CSD

@<TRIPOS>ATOM
      1 C1       -12.1690   -3.8982   -5.2846 C.ar      1 RES1    0.0000
      2 C2       -11.7579   -3.1275   -4.2165 C.ar      1 RES1    0.0000
      3 H1       -12.1497   -2.2965   -4.0699 H         1 RES1    0.0000
      4 C3       -10.7706   -3.5781   -3.3657 C.ar      1 RES1    0.0000
      5 H2       -10.5137   -3.0536   -2.6411 H         1 RES1    0.0000
      6 C4       -10.1632   -4.7915   -3.5728 C.ar      1 RES1    0.0000
      7 C5       -10.5802   -5.5456   -4.6362 C.ar      1 RES1    0.0000
      8 H3       -10.1758   -6.3679   -4.7924 H         1 RES1    0.0000
      9 C6       -11.5869   -5.1214   -5.4897 C.ar      1 RES1    0.0000
     10 H4       -11.8649   -5.6624   -6.1941 H         1 RES1    0.0000
     11 C7        -9.0849   -5.3481   -2.6725 C.3       1 RES1    0.0000
     12 H5        -9.4471   -6.1003   -2.1783 H         1 RES1    0.0000
     13 H6        -8.3578   -5.6809   -3.2229 H         1 RES1    0.0000
     14 C8        -6.5365   -3.8204   -2.7223 C.3       1 RES1    0.0000
     15 H7        -5.9240   -3.0837   -2.8711 H         1 RES1    0.0000
     16 H8        -6.5348   -4.3916   -3.5070 H         1 RES1    0.0000
     17 C9        -6.1363   -4.6124   -1.4783 C.3       1 RES1    0.0000
     18 C10       -7.5112   -4.9326   -0.8640 C.3       1 RES1    0.0000
     19 H9        -7.6275   -5.8960   -0.7252 H         1 RES1    0.0000
     20 C11       -7.5710   -4.1755    0.4392 C.2       1 RES1    0.0000
     21 C12       -5.4615   -3.7172   -0.4054 C.3       1 RES1    0.0000
     22 H10       -5.1599   -2.8901   -0.8335 H         1 RES1    0.0000
     23 C13       -4.2956   -4.3312    0.3247 C.3       1 RES1    0.0000
     24 H11       -4.1515   -3.8544    1.1582 H         1 RES1    0.0000
     25 H12       -3.4944   -4.2388   -0.2138 H         1 RES1    0.0000
     26 C14       -4.5365   -5.8132    0.6240 C.3       1 RES1    0.0000
     27 H13       -3.7826   -6.1694    1.1392 H         1 RES1    0.0000
     28 C15       -4.6806   -6.5888   -0.6657 C.3       1 RES1    0.0000
     29 H14       -5.2442   -7.3605   -0.4979 H         1 RES1    0.0000
     30 H15       -3.8053   -6.9187   -0.9228 H         1 RES1    0.0000
     31 C16       -5.2652   -5.8162   -1.8393 C.3       1 RES1    0.0000
     32 H16       -4.5197   -5.4921   -2.3867 H         1 RES1    0.0000
     33 C17       -5.3343   -7.6611   -3.3620 C.3       1 RES1    0.0000
     34 H17       -4.9038   -8.2586   -2.7304 H         1 RES1    0.0000
     35 H18       -4.6469   -7.2427   -3.9021 H         1 RES1    0.0000
     36 C18       -6.5188   -9.7650   -3.9906 C.ar      1 RES1    0.0000
     37 H19       -6.0959  -10.1883   -3.2797 H         1 RES1    0.0000
     38 C19       -7.3798  -10.4782   -4.7848 C.ar      1 RES1    0.0000
     39 H20       -7.5272  -11.3813   -4.6165 H         1 RES1    0.0000
     40 C20       -8.0175   -9.8671   -5.8179 C.ar      1 RES1    0.0000
     41 H21       -8.6097  -10.3498   -6.3483 H         1 RES1    0.0000
     42 C21       -7.7909   -8.5398   -6.0804 C.ar      1 RES1    0.0000
     43 H22       -8.2205   -8.1234   -6.7921 H         1 RES1    0.0000
     44 C22       -6.9232   -7.8285   -5.2808 C.ar      1 RES1    0.0000
     45 H23       -6.7774   -6.9265   -5.4526 H         1 RES1    0.0000
     46 C23       -6.2703   -8.4289   -4.2330 C.ar      1 RES1    0.0000
     47 C24       -5.7067   -5.5826    2.7011 C.3       1 RES1    0.0000
     48 H24       -5.6738   -4.6232    2.7223 H         1 RES1    0.0000
     49 H25       -4.9232   -5.9397    3.1255 H         1 RES1    0.0000
     50 H26       -6.4893   -5.8862    3.1660 H         1 RES1    0.0000
     51 C25      -13.6442   -4.1580   -7.1247 C.3       1 RES1    0.0000
     52 H27      -12.9197   -4.3711   -7.7176 H         1 RES1    0.0000
     53 H28      -14.3190   -3.6734   -7.6066 H         1 RES1    0.0000
     54 H29      -14.0207   -4.9686   -6.7732 H         1 RES1    0.0000
     55 N1        -8.5575   -4.3828   -1.7351 N.3       1 RES1    0.0000
     56 O1       -13.1682   -3.3708   -6.0704 O.3       1 RES1    0.0000
     57 O2        -7.8650   -3.3319   -2.4495 O.3       1 RES1    0.0000
     58 O3        -6.0757   -6.6657   -2.6614 O.3       1 RES1    0.0000
     59 O4        -6.4969   -3.3854    0.5669 O.3       1 RES1    0.0000
     60 O5        -5.7581   -6.0225    1.3538 O.3       1 RES1    0.0000
     61 O6        -8.4505   -4.1823    1.2515 O.2       1 RES1    0.0000
@<TRIPOS>BOND
     1    1    2 ar
     2    2    3 1
     3    4    2 ar
     4    5    4 1
     5    6    4 ar
     6    7    6 ar
     7    8    7 1
     8    9    1 ar
     9   10    9 1
    10   11    6 1
    11   12   11 1
    12   13   11 1
    13   14   15 1
    14   16   14 1
    15   17   14 1
    16   18   17 1
    17   19   18 1
    18   20   18 1
    19   21   17 1
    20   22   21 1
    21   23   21 1
    22   24   23 1
    23   25   23 1
    24   26   23 1
    25   27   26 1
    26   28   26 1
    27   29   28 1
    28   30   28 1
    29   31   17 1
    30   32   31 1
    31   33   34 1
    32   35   33 1
    33   36   37 1
    34   38   36 ar
    35   39   38 1
    36   40   38 ar
    37   41   40 1
    38   42   40 ar
    39   43   42 1
    40   44   42 ar
    41   45   44 1
    42   46   33 1
    43   47   48 1
    44   49   47 1
    45   50   47 1
    46   51   52 1
    47   53   51 1
    48   54   51 1
    49   55   11 1
    50   56    1 1
    51   57   14 1
    52   58   31 1
    53   59   20 1
    54   60   26 1
    55   61   20 2
    56    7    9 ar
    57   18   55 1
    58   21   59 1
    59   28   31 1
    60   33   58 1
    61   36   46 ar
    62   44   46 ar
    63   47   60 1
    64   51   56 1
    65   55   57 1
@<TRIPOS>SUBSTRUCTURE
     1 RES1 1

@<TRIPOS>CRYSIN
   8.4244    9.7309   27.0602  90.0000  90.0000  90.0000  19 1

