# MOL2 file generated by ConQuest
# Please check atom types

@<TRIPOS>MOLECULE
KEZMEK
    27    28     1
SMALL
NO_CHARGES
****
Generated from CSD

@<TRIPOS>ATOM
      1 N1         5.4562    6.1225   10.2492 N.3       1 RES1    0.0000
      2 N2         5.1631    8.3149   10.1631 N.2       1 RES1    0.0000
      3 C1         4.9037    5.4482    7.8698 C.ar      1 RES1    0.0000
      4 C2         5.0893    6.4164    8.9441 C.2       1 RES1    0.0000
      5 O1         4.5048    3.1586    3.5251 O.2       1 RES1    0.0000
      6 N3         4.2812    2.7767    4.6560 N.pl3     1 RES1    0.0000
      7 C3         5.2333    5.8040    6.5624 C.ar      1 RES1    0.0000
      8 H1         5.6001    6.6431    6.4010 H         1 RES1    0.0000
      9 O2         3.8501    1.6627    4.9088 O.2       1 RES1    0.0000
     10 C4         4.9205    7.7699    8.9351 C.2       1 RES1    0.0000
     11 H2         4.6706    8.2599    8.1860 H         1 RES1    0.0000
     12 C5         4.3528    4.1835    8.0797 C.ar      1 RES1    0.0000
     13 H3         4.1102    3.9291    8.9395 H         1 RES1    0.0000
     14 C6         5.0309    4.9495    5.5123 C.ar      1 RES1    0.0000
     15 H4         5.2479    5.2045    4.6455 H         1 RES1    0.0000
     16 C7         4.4989    3.7028    5.7683 C.ar      1 RES1    0.0000
     17 C8         5.4956    7.2958   10.9265 C.2       1 RES1    0.0000
     18 C9         4.1613    3.3091    7.0403 C.ar      1 RES1    0.0000
     19 H5         3.8091    2.4617    7.1945 H         1 RES1    0.0000
     20 C10        5.8339    4.8338   10.8045 C.3       1 RES1    0.0000
     21 H6         6.5463    4.9535   11.4359 H         1 RES1    0.0000
     22 H7         6.1284    4.2541   10.0972 H         1 RES1    0.0000
     23 H8         5.0769    4.4406   11.2465 H         1 RES1    0.0000
     24 C11        5.8756    7.3995   12.3627 C.3       1 RES1    0.0000
     25 H9         5.8427    8.3189   12.6378 H         1 RES1    0.0000
     26 H10        6.7656    7.0613   12.4842 H         1 RES1    0.0000
     27 H11        5.2632    6.8858   12.8946 H         1 RES1    0.0000
@<TRIPOS>BOND
     1    1    4 1
     2    2   10 1
     3    3    4 1
     4    4   10 2
     5    5    6 2
     6    6    9 2
     7    7    3 ar
     8    8    7 1
     9   10   11 1
    10   12    3 ar
    11   13   12 1
    12   14    7 ar
    13   15   14 1
    14   16    6 1
    15   17    1 1
    16   18   12 ar
    17   19   18 1
    18   20    1 1
    19   21   20 1
    20   22   20 1
    21   23   20 1
    22   24   17 1
    23   25   24 1
    24   26   24 1
    25   27   24 1
    26    2   17 2
    27   14   16 ar
    28   16   18 ar
@<TRIPOS>SUBSTRUCTURE
     1 RES1 1

@<TRIPOS>CRYSIN
   7.3070   13.7140   21.0490  90.0000  90.0000  90.0000  61 1

