# MOL2 file generated by ConQuest
# Please check atom types

@<TRIPOS>MOLECULE
KEZTEQ
    46    49     1
SMALL
NO_CHARGES
****
Generated from CSD

@<TRIPOS>ATOM
      1 C1         0.2433    0.5404    9.7403 C.3       1 RES1    0.0000
      2 H1         0.7592    0.2220    8.9835 H         1 RES1    0.0000
      3 H2         0.0516   -0.2074   10.3272 H         1 RES1    0.0000
      4 C2         1.0074    1.6450   10.4960 C.3       1 RES1    0.0000
      5 H3         0.8099    1.5591   11.4524 H         1 RES1    0.0000
      6 C3         0.3583    2.9504    9.9775 C.3       1 RES1    0.0000
      7 H4         0.9193    3.2913    9.2504 H         1 RES1    0.0000
      8 C4        -0.9642    2.5091    9.3685 C.2       1 RES1    0.0000
      9 C5        -1.9846    0.4492    8.5389 C.3       1 RES1    0.0000
     10 H5        -2.7872    0.3713    9.0596 H         1 RES1    0.0000
     11 H6        -1.6546   -0.4281    8.3281 H         1 RES1    0.0000
     12 H7        -2.1749    0.9222    7.7258 H         1 RES1    0.0000
     13 C6         2.5126    1.6463   10.3161 C.ar      1 RES1    0.0000
     14 C7         3.0810    1.6939    9.0188 C.ar      1 RES1    0.0000
     15 H8         2.5243    1.6410    8.2763 H         1 RES1    0.0000
     16 C8         4.4308    1.8154    8.8345 C.ar      1 RES1    0.0000
     17 H9         4.7784    1.8458    7.9729 H         1 RES1    0.0000
     18 C9         5.2888    1.8934    9.9322 C.ar      1 RES1    0.0000
     19 C10        6.7084    2.0612    9.7723 C.ar      1 RES1    0.0000
     20 H10        7.0826    2.1021    8.9217 H         1 RES1    0.0000
     21 C11        7.4964    2.1589   10.8699 C.ar      1 RES1    0.0000
     22 H11        8.4126    2.2752   10.7629 H         1 RES1    0.0000
     23 C12        6.9558    2.0876   12.1662 C.ar      1 RES1    0.0000
     24 H12        7.5165    2.1550   12.9054 H         1 RES1    0.0000
     25 C13        5.6196    1.9198   12.3472 C.ar      1 RES1    0.0000
     26 H13        5.2697    1.8709   13.2077 H         1 RES1    0.0000
     27 C14        4.7735    1.8207   11.2517 C.ar      1 RES1    0.0000
     28 C15        3.3418    1.6886   11.3896 C.ar      1 RES1    0.0000
     29 H14        2.9759    1.6304   12.2423 H         1 RES1    0.0000
     30 C16        0.2448    4.0391   11.0156 C.2       1 RES1    0.0000
     31 C17        1.1075    5.2480   10.9450 C.ar      1 RES1    0.0000
     32 C18        2.3492    5.2163   10.3305 C.ar      1 RES1    0.0000
     33 H15        2.6460    4.4328    9.9278 H         1 RES1    0.0000
     34 C19        3.1529    6.3473   10.3128 C.ar      1 RES1    0.0000
     35 H16        3.9849    6.3143    9.8980 H         1 RES1    0.0000
     36 C20        2.7327    7.5153   10.9030 C.ar      1 RES1    0.0000
     37 H17        3.2812    8.2658   10.8997 H         1 RES1    0.0000
     38 C21        1.4919    7.5655   11.4988 C.ar      1 RES1    0.0000
     39 H18        1.1969    8.3583   11.8849 H         1 RES1    0.0000
     40 C22        0.6846    6.4464   11.5264 C.ar      1 RES1    0.0000
     41 H19       -0.1491    6.4900   11.9357 H         1 RES1    0.0000
     42 N1        -0.9816    1.1755    9.2990 N.am      1 RES1    0.0000
     43 N2        -0.5461    3.9848   12.0206 N.2       1 RES1    0.0000
     44 O1        -1.8375    3.2656    8.9227 O.2       1 RES1    0.0000
     45 O2        -1.3351    2.8167   12.0063 O.3       1 RES1    0.0000
     46 H20       -1.8250    2.9993   12.7973 H         1 RES1    0.0000
@<TRIPOS>BOND
     1    1    2 1
     2    3    1 1
     3    4    1 1
     4    5    4 1
     5    6    4 1
     6    7    6 1
     7    8    6 1
     8    9   10 1
     9   11    9 1
    10   12    9 1
    11   13    4 1
    12   14   13 ar
    13   15   14 1
    14   16   14 ar
    15   17   16 1
    16   18   16 ar
    17   19   18 ar
    18   20   19 1
    19   21   19 ar
    20   22   21 1
    21   23   21 ar
    22   24   23 1
    23   25   23 ar
    24   26   25 1
    25   27   18 ar
    26   28   13 ar
    27   29   28 1
    28   30    6 1
    29   31   30 1
    30   32   31 ar
    31   33   32 1
    32   34   32 ar
    33   35   34 1
    34   36   34 ar
    35   37   36 1
    36   38   36 ar
    37   39   38 1
    38   40   31 ar
    39   41   40 1
    40   42    1 1
    41   43   30 2
    42   44    8 2
    43   45   43 1
    44   46   45 1
    45    8   42 1
    46    9   42 1
    47   25   27 ar
    48   27   28 ar
    49   38   40 ar
@<TRIPOS>SUBSTRUCTURE
     1 RES1 1

@<TRIPOS>CRYSIN
  12.0752   13.2126   11.0993  90.0000  96.3070  90.0000  14 1

