# MOL2 file generated by ConQuest
# Please check atom types

@<TRIPOS>MOLECULE
KEZZIB
    46    48     1
SMALL
NO_CHARGES
****
Generated from CSD

@<TRIPOS>ATOM
      1 O1         4.1968    2.1841    2.7426 O.3       1 RES1    0.0000
      2 O2         2.9414    5.7741    4.4942 O.2       1 RES1    0.0000
      3 O3         2.5179    4.6834    2.5505 O.3       1 RES1    0.0000
      4 O4         6.7457    3.6557    0.5054 O.2       1 RES1    0.0000
      5 O5         8.4283    3.6964    1.8401 O.2       1 RES1    0.0000
      6 O6        10.0223    4.0282    6.3354 O.2       1 RES1    0.0000
      7 O7         9.0084    5.2129    7.8320 O.2       1 RES1    0.0000
      8 N1         4.5039    4.4187    3.5229 N.am      1 RES1    0.0000
      9 N2         9.0366    4.6281    6.7500 N.pl3     1 RES1    0.0000
     10 N3         7.2454    3.5644    1.5955 N.pl3     1 RES1    0.0000
     11 C1         5.5592    4.6309    4.4127 C.ar      1 RES1    0.0000
     12 C2         5.5925    5.4292    5.5552 C.ar      1 RES1    0.0000
     13 H1         4.8488    5.9672    5.7999 H         1 RES1    0.0000
     14 C3         6.7585    5.4112    6.3273 C.ar      1 RES1    0.0000
     15 H2         6.8068    5.9157    7.1310 H         1 RES1    0.0000
     16 C4         7.8430    4.6516    5.9139 C.ar      1 RES1    0.0000
     17 C5         7.8411    3.9072    4.7597 C.ar      1 RES1    0.0000
     18 H3         8.6055    3.4155    4.4827 H         1 RES1    0.0000
     19 C6         6.6643    3.9086    4.0144 C.ar      1 RES1    0.0000
     20 C7         6.3658    3.1214    2.7694 C.3       1 RES1    0.0000
     21 C8         4.8473    3.4165    2.5051 C.3       1 RES1    0.0000
     22 H4         4.6866    3.7528    1.5772 H         1 RES1    0.0000
     23 C9         6.4568    1.5994    2.9558 C.3       1 RES1    0.0000
     24 H5         7.1549    1.3757    3.6352 H         1 RES1    0.0000
     25 C10        5.0554    1.3506    3.5334 C.3       1 RES1    0.0000
     26 H6         4.8018    0.3977    3.4456 H         1 RES1    0.0000
     27 H7         5.0166    1.6073    4.4884 H         1 RES1    0.0000
     28 C11        6.6804    0.8025    1.6968 C.2       1 RES1    0.0000
     29 H8         6.0167    0.8330    1.0179 H         1 RES1    0.0000
     30 C12        7.7399    0.0733    1.4942 C.2       1 RES1    0.0000
     31 H9         8.4186    0.0261    2.1576 H         1 RES1    0.0000
     32 H10        7.8354   -0.4115    0.6825 H         1 RES1    0.0000
     33 C13        3.2630    5.0359    3.5858 C.2       1 RES1    0.0000
     34 C14        1.2340    5.3960    2.2488 C.3       1 RES1    0.0000
     35 C15        0.7800    4.6903    0.9771 C.3       1 RES1    0.0000
     36 H11        1.4475    4.8243    0.2732 H         1 RES1    0.0000
     37 H12       -0.0801    5.0611    0.6873 H         1 RES1    0.0000
     38 H13        0.6786    3.7317    1.1541 H         1 RES1    0.0000
     39 C16        0.2433    5.1348    3.3948 C.3       1 RES1    0.0000
     40 H14        0.0313    4.1789    3.4325 H         1 RES1    0.0000
     41 H15       -0.5787    5.6458    3.2394 H         1 RES1    0.0000
     42 H16        0.6451    5.4140    4.2442 H         1 RES1    0.0000
     43 C17        1.5116    6.8475    2.0089 C.3       1 RES1    0.0000
     44 H17        1.8685    7.2511    2.8280 H         1 RES1    0.0000
     45 H18        0.6806    7.3017    1.7568 H         1 RES1    0.0000
     46 H19        2.1669    6.9396    1.2869 H         1 RES1    0.0000
@<TRIPOS>BOND
     1    1   21 1
     2    2   33 2
     3    3   33 1
     4    4   10 2
     5    5   10 2
     6    6    9 2
     7    7    9 2
     8    8   11 1
     9    9   16 1
    10   10   20 1
    11   11   12 ar
    12   12   13 1
    13   14   12 ar
    14   15   14 1
    15   16   14 ar
    16   17   16 ar
    17   18   17 1
    18   19   11 ar
    19   20   19 1
    20   21    8 1
    21   22   21 1
    22   23   20 1
    23   24   23 1
    24   25    1 1
    25   26   25 1
    26   27   25 1
    27   28   23 1
    28   29   28 1
    29   30   28 2
    30   31   30 1
    31   32   30 1
    32   33    8 1
    33   34    3 1
    34   35   34 1
    35   36   35 1
    36   37   35 1
    37   38   35 1
    38   39   34 1
    39   40   39 1
    40   41   39 1
    41   42   39 1
    42   43   34 1
    43   44   43 1
    44   45   43 1
    45   46   43 1
    46   17   19 ar
    47   20   21 1
    48   23   25 1
@<TRIPOS>SUBSTRUCTURE
     1 RES1 1

@<TRIPOS>CRYSIN
  11.0145    6.9118   11.9736  90.0000 103.4330  90.0000   4 1

