# MOL2 file generated by ConQuest
# Please check atom types

@<TRIPOS>MOLECULE
KIBFAC
    23    24     1
SMALL
NO_CHARGES
****
Generated from CSD

@<TRIPOS>ATOM
      1 N1         7.0422    0.1384    2.6156 N.2       1 RES1    0.0000
      2 N2         7.8118    1.1213    3.0777 N.pl3     1 RES1    0.0000
      3 N3         7.5358    2.4311    3.0308 N.2       1 RES1    0.0000
      4 C1         6.3776    2.7569    2.4492 C.2       1 RES1    0.0000
      5 C2         5.5117    1.8144    1.9309 C.2       1 RES1    0.0000
      6 C3         5.8858    0.4904    2.0361 C.2       1 RES1    0.0000
      7 C4         6.1060    4.2171    2.3973 C.3       1 RES1    0.0000
      8 C5         5.0802   -0.6527    1.5399 C.ar      1 RES1    0.0000
      9 C6         3.7912   -0.4620    1.0543 C.ar      1 RES1    0.0000
     10 C7         3.0447   -1.5376    0.6100 C.ar      1 RES1    0.0000
     11 C8         3.5659   -2.8158    0.6477 C.ar      1 RES1    0.0000
     12 C9         4.8454   -3.0119    1.1041 C.ar      1 RES1    0.0000
     13 C10        5.6039   -1.9397    1.5520 C.ar      1 RES1    0.0000
     14 O1         8.8893    0.7944    3.6130 O.2       1 RES1    0.0000
     15 H1         4.6646    2.0813    1.5143 H         1 RES1    0.0000
     16 H2         6.0560    4.5223    3.2703 H         1 RES1    0.0000
     17 H3         5.2577    4.4133    1.9622 H         1 RES1    0.0000
     18 H4         6.7989    4.6857    2.0120 H         1 RES1    0.0000
     19 H5         3.4350    0.4359    1.0309 H         1 RES1    0.0000
     20 H6         2.1645   -1.4166    0.2773 H         1 RES1    0.0000
     21 H7         3.0571   -3.5415    0.3555 H         1 RES1    0.0000
     22 H8         5.1938   -3.9229    1.1446 H         1 RES1    0.0000
     23 H9         6.5021   -2.0704    1.8200 H         1 RES1    0.0000
@<TRIPOS>BOND
     1    1    2 1
     2    2    3 2
     3    3    4 1
     4    4    5 2
     5    5    6 1
     6    6    1 2
     7    7    4 1
     8    8    6 1
     9    9    8 ar
    10   10    9 ar
    11   11   10 ar
    12   12   11 ar
    13   13    8 ar
    14   14    2 1
    15   15    5 1
    16   16    7 1
    17   17    7 1
    18   18    7 1
    19   19    9 1
    20   20   10 1
    21   21   11 1
    22   22   12 1
    23   23   13 1
    24   12   13 ar
@<TRIPOS>SUBSTRUCTURE
     1 RES1 1

@<TRIPOS>CRYSIN
  11.4860   10.8970    7.2350  90.0000 100.6900  90.0000 231 1

