# MOL2 file generated by ConQuest
# Please check atom types

@<TRIPOS>MOLECULE
KIBFUZ
    50    54     1
SMALL
NO_CHARGES
****
Generated from CSD

@<TRIPOS>ATOM
      1 O1         4.5338    5.9236    7.6416 O.2       1 RES1    0.0000
      2 N1         5.9478    8.0034    5.8769 N.3       1 RES1    0.0000
      3 C1         4.5284    7.5907    5.8734 C.3       1 RES1    0.0000
      4 O2         3.3543    9.3768    4.7164 O.2       1 RES1    0.0000
      5 C2         4.4297    6.5927    4.6845 C.3       1 RES1    0.0000
      6 H1         4.7317    5.7226    5.0194 H         1 RES1    0.0000
      7 N2         7.7545    3.4731   -0.0762 N.pl3     1 RES1    0.0000
      8 C3         5.4897    7.0778    3.6941 C.3       1 RES1    0.0000
      9 H2         5.1342    7.8619    3.2264 H         1 RES1    0.0000
     10 O3         2.1454    6.3032    5.0654 O.2       1 RES1    0.0000
     11 O4         7.8457    3.7917   -1.2278 O.2       1 RES1    0.0000
     12 C4         6.6054    7.5485    4.6331 C.3       1 RES1    0.0000
     13 H3         7.1934    6.7919    4.8387 H         1 RES1    0.0000
     14 O5         8.1276    2.3790    0.3366 O.2       1 RES1    0.0000
     15 C5         7.4505    8.7240    4.1654 C.3       1 RES1    0.0000
     16 H4         8.3591    8.6437    4.4932 H         1 RES1    0.0000
     17 H5         7.4714    8.7660    3.1962 H         1 RES1    0.0000
     18 C6         6.8100    9.9067    4.7164 C.3       1 RES1    0.0000
     19 H6         6.0854   10.2127    4.1441 H         1 RES1    0.0000
     20 H7         7.4434   10.6285    4.8369 H         1 RES1    0.0000
     21 C7         6.2774    9.4146    6.0505 C.3       1 RES1    0.0000
     22 H8         6.9491    9.5221    6.7397 H         1 RES1    0.0000
     23 H9         5.4877    9.9171    6.3057 H         1 RES1    0.0000
     24 C8         2.9959    6.4122    4.2274 C.2       1 RES1    0.0000
     25 C9         2.7147    6.3546    2.7976 C.3       1 RES1    0.0000
     26 H10        1.7665    6.4048    2.6559 H         1 RES1    0.0000
     27 H11        3.0509    5.5339    2.4362 H         1 RES1    0.0000
     28 H12        3.1415    7.0969    2.3600 H         1 RES1    0.0000
     29 C10        4.1698    6.9816    7.2482 C.2       1 RES1    0.0000
     30 C11        3.3472    7.9670    7.9268 C.ar      1 RES1    0.0000
     31 C12        2.9200    7.9856    9.2539 C.ar      1 RES1    0.0000
     32 H13        3.2078    7.3453    9.8633 H         1 RES1    0.0000
     33 C13        2.0532    8.9917    9.6259 C.ar      1 RES1    0.0000
     34 H14        1.7093    8.9967   10.4905 H         1 RES1    0.0000
     35 C14        1.6835    9.9912    8.7507 C.ar      1 RES1    0.0000
     36 H15        1.1213   10.6701    9.0483 H         1 RES1    0.0000
     37 C15        2.1213   10.0077    7.4573 C.ar      1 RES1    0.0000
     38 H16        1.8759   10.6858    6.8709 H         1 RES1    0.0000
     39 C16        2.9568    8.9594    7.0551 C.ar      1 RES1    0.0000
     40 C17        3.5582    8.7420    5.7334 C.2       1 RES1    0.0000
     41 C18        5.9876    6.1101    2.6718 C.ar      1 RES1    0.0000
     42 C19        6.4593    4.8632    3.0758 C.ar      1 RES1    0.0000
     43 H17        6.3909    4.6183    3.9705 H         1 RES1    0.0000
     44 C20        7.0276    3.9793    2.1704 C.ar      1 RES1    0.0000
     45 H18        7.3339    3.1450    2.4432 H         1 RES1    0.0000
     46 C21        7.1222    4.3715    0.8752 C.ar      1 RES1    0.0000
     47 C22        6.6580    5.5847    0.4270 C.ar      1 RES1    0.0000
     48 H19        6.7257    5.8254   -0.4677 H         1 RES1    0.0000
     49 C23        6.0897    6.4325    1.3518 C.ar      1 RES1    0.0000
     50 H20        5.7639    7.2547    1.0648 H         1 RES1    0.0000
@<TRIPOS>BOND
     1    1   29 2
     2    2    3 1
     3    3    5 1
     4    4   40 2
     5    5    6 1
     6    7   11 2
     7    8    5 1
     8    9    8 1
     9   10   24 2
    10   12    2 1
    11   13   12 1
    12   14    7 2
    13   15   12 1
    14   16   15 1
    15   17   15 1
    16   18   15 1
    17   19   18 1
    18   20   18 1
    19   21    2 1
    20   22   21 1
    21   23   21 1
    22   24    5 1
    23   25   24 1
    24   26   25 1
    25   27   25 1
    26   28   25 1
    27   29    3 1
    28   30   29 1
    29   31   30 ar
    30   32   31 1
    31   33   31 ar
    32   34   33 1
    33   35   33 ar
    34   36   35 1
    35   37   35 ar
    36   38   37 1
    37   39   30 ar
    38   40    3 1
    39   41    8 1
    40   42   41 ar
    41   43   42 1
    42   44   42 ar
    43   45   44 1
    44   46    7 1
    45   47   46 ar
    46   48   47 1
    47   49   41 ar
    48   50   49 1
    49    8   12 1
    50   18   21 1
    51   37   39 ar
    52   39   40 1
    53   44   46 ar
    54   47   49 ar
@<TRIPOS>SUBSTRUCTURE
     1 RES1 1

@<TRIPOS>CRYSIN
   7.6370    8.0550   17.9690  85.1700  80.4100  61.8700   2 1

