# MOL2 file generated by ConQuest
# Please check atom types

@<TRIPOS>MOLECULE
KIBGOU
    62    62     2
SMALL
NO_CHARGES
****
Generated from CSD

@<TRIPOS>ATOM
      1 O1        -7.9797    4.1493   18.6592 O.2       1 RES1    0.0000
      2 N1        -5.8960    3.5565   18.0475 N.am      1 RES1    0.0000
      3 H1        -6.0109    2.8743   18.5586 H         1 RES1    0.0000
      4 N2        -4.3862    4.5925   16.5849 N.ar      1 RES1    0.0000
      5 N3        -6.9567    5.3781   17.0485 N.am      1 RES1    0.0000
      6 H2        -6.2504    5.4351   16.5610 H         1 RES1    0.0000
      7 O2         0.0461    3.1817   16.2893 O.2       1 RES1    0.0000
      8 N4        -0.8314    3.9208   15.8767 N.pl3     1 RES1    0.0000
      9 O3        -0.6336    4.7635   15.0324 O.2       1 RES1    0.0000
     10 C1        -4.6488    3.6404   17.4854 C.ar      1 RES1    0.0000
     11 C2        -2.1637    3.7758   16.4438 C.ar      1 RES1    0.0000
     12 C3        -8.0134    6.3858   16.8386 C.3       1 RES1    0.0000
     13 C4        -2.4252    2.7824   17.3697 C.ar      1 RES1    0.0000
     14 H3        -1.7629    2.1812   17.6243 H         1 RES1    0.0000
     15 C5        -7.0141    4.3867   17.9360 C.2       1 RES1    0.0000
     16 C6        -3.6829    2.7065   17.9000 C.ar      1 RES1    0.0000
     17 H4        -3.8960    2.0491   18.5239 H         1 RES1    0.0000
     18 C7        -3.1585    4.6553   16.0726 C.ar      1 RES1    0.0000
     19 H5        -2.9650    5.3130   15.4437 H         1 RES1    0.0000
     20 C8        -7.5578    7.2471   15.6787 C.3       1 RES1    0.0000
     21 H6        -6.7213    7.6644   15.8983 H         1 RES1    0.0000
     22 H7        -8.2157    7.9231   15.5034 H         1 RES1    0.0000
     23 H8        -7.4470    6.6992   14.8985 H         1 RES1    0.0000
     24 C9        -9.3347    5.7187   16.4899 C.3       1 RES1    0.0000
     25 H9        -9.2092    5.1305   15.7423 H         1 RES1    0.0000
     26 H10       -9.9833    6.3902   16.2643 H         1 RES1    0.0000
     27 H11       -9.6479    5.2134   17.2448 H         1 RES1    0.0000
     28 C10       -8.1626    7.2371   18.0870 C.3       1 RES1    0.0000
     29 H12       -8.4311    6.6824   18.8225 H         1 RES1    0.0000
     30 H13       -8.8284    7.9130   17.9364 H         1 RES1    0.0000
     31 H14       -7.3230    7.6555   18.2908 H         1 RES1    0.0000
     32 O4         5.7044    6.9318   10.2398 O.2       2 RES2    0.0000
     33 N5         3.6135    6.3825   10.8547 N.am      2 RES2    0.0000
     34 H15        3.7297    5.6870   10.3638 H         2 RES2    0.0000
     35 N6         2.0903    7.4423   12.2902 N.ar      2 RES2    0.0000
     36 N7         4.6749    8.2470   11.7824 N.am      2 RES2    0.0000
     37 H16        3.9540    8.3542   12.2363 H         2 RES2    0.0000
     38 N8        -1.4524    6.7329   13.0045 N.pl3     2 RES2    0.0000
     39 O5        -2.3282    5.9797   12.6102 O.2       2 RES2    0.0000
     40 O6        -1.6494    7.5868   13.8375 O.2       2 RES2    0.0000
     41 C11        2.3594    6.4771   11.4077 C.ar      2 RES2    0.0000
     42 C12       -0.1259    6.6001   12.4328 C.ar      2 RES2    0.0000
     43 C13        5.7667    9.2279   11.9855 C.3       2 RES2    0.0000
     44 C14        0.1481    5.5927   11.5256 C.ar      2 RES2    0.0000
     45 H17       -0.5057    4.9794   11.2789 H         2 RES2    0.0000
     46 C15        4.7311    7.2119   10.9464 C.2       2 RES2    0.0000
     47 C16        1.4050    5.5241   11.0026 C.ar      2 RES2    0.0000
     48 H18        1.6265    4.8607   10.3908 H         2 RES2    0.0000
     49 C17        0.8533    7.4958   12.7916 C.ar      2 RES2    0.0000
     50 H19        0.6477    8.1627   13.4056 H         2 RES2    0.0000
     51 C18        5.2561   10.2283   13.0074 C.3       2 RES2    0.0000
     52 H20        4.4563   10.6440   12.6755 H         2 RES2    0.0000
     53 H21        5.9245   10.8993   13.1609 H         2 RES2    0.0000
     54 H22        5.0619    9.7739   13.8313 H         2 RES2    0.0000
     55 C19        7.0118    8.5300   12.5229 C.3       2 RES2    0.0000
     56 H23        6.7938    8.0653   13.3343 H         2 RES2    0.0000
     57 H24        7.6921    9.1827   12.7005 H         2 RES2    0.0000
     58 H25        7.3321    7.9018   11.8722 H         2 RES2    0.0000
     59 C20        6.0719    9.9480   10.6723 C.3       2 RES2    0.0000
     60 H26        6.3463    9.3070   10.0132 H         2 RES2    0.0000
     61 H27        6.7761   10.5857   10.8127 H         2 RES2    0.0000
     62 H28        5.2848   10.4032   10.3658 H         2 RES2    0.0000
@<TRIPOS>BOND
     1    1   15 2
     2    2    3 1
     3    4   10 ar
     4    5    6 1
     5    7    8 2
     6    8    9 2
     7   10    2 1
     8   11    8 1
     9   12    5 1
    10   13   11 ar
    11   14   13 1
    12   15    2 1
    13   16   10 ar
    14   17   16 1
    15   18    4 ar
    16   19   18 1
    17   20   12 1
    18   21   20 1
    19   22   20 1
    20   23   20 1
    21   24   12 1
    22   25   24 1
    23   26   24 1
    24   27   24 1
    25   28   12 1
    26   29   28 1
    27   30   28 1
    28   31   28 1
    29   32   46 2
    30   33   34 1
    31   35   41 ar
    32   36   37 1
    33   38   39 2
    34   40   38 2
    35   41   33 1
    36   42   38 1
    37   43   36 1
    38   44   42 ar
    39   45   44 1
    40   46   33 1
    41   47   41 ar
    42   48   47 1
    43   49   35 ar
    44   50   49 1
    45   51   43 1
    46   52   51 1
    47   53   51 1
    48   54   51 1
    49   55   43 1
    50   56   55 1
    51   57   55 1
    52   58   55 1
    53   59   43 1
    54   60   59 1
    55   61   59 1
    56   62   59 1
    57    5   15 1
    58   11   18 ar
    59   13   16 ar
    60   36   46 1
    61   42   49 ar
    62   44   47 ar
@<TRIPOS>SUBSTRUCTURE
     1 RES1 1
     2 RES2 32

@<TRIPOS>CRYSIN
  22.1391   11.1971   23.0374  90.0000 123.2600  90.0000  15 1

