# MOL2 file generated by ConQuest
# Please check atom types

@<TRIPOS>MOLECULE
KIBGIL
    58    58     2
SMALL
NO_CHARGES
****
Generated from CSD

@<TRIPOS>ATOM
      1 C1        10.4310   10.5646   11.5990 C.ar      1 RES1    0.0000
      2 C2        10.2702    9.4813   12.4269 C.ar      1 RES1    0.0000
      3 C3         9.7176    9.6464   13.6768 C.ar      1 RES1    0.0000
      4 C4         9.3465   10.9181   14.0556 C.ar      1 RES1    0.0000
      5 N1         8.7684   11.1123   15.3919 N.pl3     1 RES1    0.0000
      6 C5         9.5009   12.0146   13.2418 C.ar      1 RES1    0.0000
      7 C6        10.0437   11.8314   11.9886 C.ar      1 RES1    0.0000
      8 O1        11.0884   10.3851   10.3912 O.3       1 RES1    0.0000
      9 C7        10.3460   10.1800    9.2718 C.2       1 RES1    0.0000
     10 O2         9.1653   10.1936    9.3064 O.2       1 RES1    0.0000
     11 C8        11.2377    9.9551    8.0619 C.3       1 RES1    0.0000
     12 C9        10.3641    9.6390    6.8551 C.3       1 RES1    0.0000
     13 C10       12.0646   11.2091    7.8158 C.3       1 RES1    0.0000
     14 C11       12.1665    8.7679    8.3425 C.3       1 RES1    0.0000
     15 O3         8.5488   10.1408   16.0719 O.2       1 RES1    0.0000
     16 O4         8.5428   12.2453   15.7535 O.2       1 RES1    0.0000
     17 C12       10.8533    4.6488    6.8325 C.ar      2 RES2    0.0000
     18 C13       11.2153    5.5780    5.8837 C.ar      2 RES2    0.0000
     19 C14       11.8800    5.1577    4.7568 C.ar      2 RES2    0.0000
     20 C15       12.1389    3.8097    4.5949 C.ar      2 RES2    0.0000
     21 N2        12.8577    3.3682    3.4033 N.pl3     2 RES2    0.0000
     22 C16       11.7601    2.8790    5.5415 C.ar      2 RES2    0.0000
     23 C17       11.1125    3.3056    6.6695 C.ar      2 RES2    0.0000
     24 O5        10.2878    5.0992    8.0230 O.3       2 RES2    0.0000
     25 C18        8.9537    4.9091    8.2195 C.2       2 RES2    0.0000
     26 O6         8.2451    4.5372    7.3473 O.2       2 RES2    0.0000
     27 C19        8.5762    5.2207    9.6539 C.3       2 RES2    0.0000
     28 C20        7.0629    5.1512    9.7943 C.3       2 RES2    0.0000
     29 C21        9.2200    4.1554   10.5498 C.3       2 RES2    0.0000
     30 C22        9.0781    6.6030   10.0339 C.3       2 RES2    0.0000
     31 O7        13.0592    2.1801    3.2532 O.2       2 RES2    0.0000
     32 O8        13.2118    4.2003    2.5948 O.2       2 RES2    0.0000
     33 H1        10.5867    8.5880   12.0825 H         1 RES1    0.0000
     34 H2         9.5952    8.9305   14.3622 H         1 RES1    0.0000
     35 H3         9.2098   12.9007   13.5246 H         1 RES1    0.0000
     36 H4        10.1327   12.5737   11.3820 H         1 RES1    0.0000
     37 H5         9.7443   10.4092    6.6533 H         1 RES1    0.0000
     38 H6        11.0033    9.4002    6.0639 H         1 RES1    0.0000
     39 H7         9.7430    8.7972    6.9393 H         1 RES1    0.0000
     40 H8        12.4744   10.8553    6.9188 H         1 RES1    0.0000
     41 H9        11.4199   11.9690    7.6744 H         1 RES1    0.0000
     42 H10       12.6940   11.4397    8.6113 H         1 RES1    0.0000
     43 H11       11.5331    7.8338    8.5562 H         1 RES1    0.0000
     44 H12       12.7295    8.6719    7.6862 H         1 RES1    0.0000
     45 H13       12.6920    8.9138    9.1855 H         1 RES1    0.0000
     46 H14       11.0146    6.6065    5.9247 H         2 RES2    0.0000
     47 H15       12.1607    5.7462    4.0444 H         2 RES2    0.0000
     48 H16       11.9021    1.9348    5.4886 H         2 RES2    0.0000
     49 H17       10.9068    2.7062    7.4207 H         2 RES2    0.0000
     50 H18        6.5693    5.8143    9.3258 H         2 RES2    0.0000
     51 H19        6.8737    5.2599   10.7009 H         2 RES2    0.0000
     52 H20        6.6745    4.2384    9.4122 H         2 RES2    0.0000
     53 H21        8.8224    3.2361   10.4052 H         2 RES2    0.0000
     54 H22       10.1322    4.2138   10.5272 H         2 RES2    0.0000
     55 H23        8.8617    4.3048   11.5310 H         2 RES2    0.0000
     56 H24        8.7472    7.2668    9.4705 H         2 RES2    0.0000
     57 H25       10.0967    6.6151    9.9583 H         2 RES2    0.0000
     58 H26        8.7978    6.8197   11.0237 H         2 RES2    0.0000
@<TRIPOS>BOND
     1    1    2 ar
     2    2    3 ar
     3    3    4 ar
     4    4    5 1
     5    5   15 2
     6    6    4 ar
     7    7    1 ar
     8    8    1 1
     9    9    8 1
    10   10    9 2
    11   11    9 1
    12   12   11 1
    13   13   11 1
    14   14   11 1
    15   16    5 2
    16   17   18 ar
    17   18   19 ar
    18   19   20 ar
    19   20   21 1
    20   21   31 2
    21   22   20 ar
    22   23   17 ar
    23   24   17 1
    24   25   24 1
    25   26   25 2
    26   27   25 1
    27   28   27 1
    28   29   27 1
    29   30   27 1
    30   32   21 2
    31   33    2 1
    32   34    3 1
    33   35    6 1
    34   36    7 1
    35   37   12 1
    36   38   12 1
    37   39   12 1
    38   40   13 1
    39   41   13 1
    40   42   13 1
    41   43   14 1
    42   44   14 1
    43   45   14 1
    44   46   18 1
    45   47   19 1
    46   48   22 1
    47   49   23 1
    48   50   28 1
    49   51   28 1
    50   52   28 1
    51   53   29 1
    52   54   29 1
    53   55   29 1
    54   56   30 1
    55   57   30 1
    56   58   30 1
    57    6    7 ar
    58   22   23 ar
@<TRIPOS>SUBSTRUCTURE
     1 RES1 1
     2 RES2 17

@<TRIPOS>CRYSIN
  10.3080   10.8570   12.1210  71.2200  65.7000  70.2100   2 1

