# MOL2 file generated by ConQuest
# Please check atom types

@<TRIPOS>MOLECULE
KIBGEK
    56    61     1
SMALL
NO_CHARGES
****
Generated from CSD

@<TRIPOS>ATOM
      1 N1         6.2064    5.8220    3.0367 N.ar      1 RES1    0.0000
      2 O1         3.4932    2.1288    0.4172 O.2       1 RES1    0.0000
      3 C1         4.6272    3.9162    2.9880 C.3       1 RES1    0.0000
      4 N2         5.2449    2.9539    3.8884 N.3       1 RES1    0.0000
      5 C2         5.0320    5.3518    3.1913 C.ar      1 RES1    0.0000
      6 O2         9.5215   -0.1089   -2.7369 O.2       1 RES1    0.0000
      7 C3         3.9278    6.1386    3.5660 C.ar      1 RES1    0.0000
      8 N3         9.6654    0.8956   -2.1049 N.pl3     1 RES1    0.0000
      9 O3        10.5726    1.6582   -2.2588 O.2       1 RES1    0.0000
     10 N4         3.9943    7.3891    3.8357 N.ar      1 RES1    0.0000
     11 C4         5.2295    7.9164    3.7343 C.ar      1 RES1    0.0000
     12 C5         5.4145    9.2477    4.0366 C.ar      1 RES1    0.0000
     13 H1         4.6962    9.7607    4.3277 H         1 RES1    0.0000
     14 C6         6.6182    9.8013    3.9133 C.ar      1 RES1    0.0000
     15 H2         6.7380   10.6979    4.1276 H         1 RES1    0.0000
     16 C7         7.6874    9.0552    3.4704 C.ar      1 RES1    0.0000
     17 H3         8.5198    9.4579    3.3709 H         1 RES1    0.0000
     18 C8         7.5411    7.7535    3.1829 C.ar      1 RES1    0.0000
     19 H4         8.2739    7.2603    2.8920 H         1 RES1    0.0000
     20 C9         6.3269    7.1467    3.3153 C.ar      1 RES1    0.0000
     21 C10        2.7622    5.3024    3.5638 C.ar      1 RES1    0.0000
     22 C11        1.4659    5.6043    3.8329 C.ar      1 RES1    0.0000
     23 H5         1.2110    6.4753    4.0401 H         1 RES1    0.0000
     24 C12        0.5539    4.6006    3.7919 C.ar      1 RES1    0.0000
     25 H6        -0.3431    4.7838    3.9559 H         1 RES1    0.0000
     26 C13        0.9462    3.3246    3.5098 C.ar      1 RES1    0.0000
     27 H7         0.3076    2.6483    3.4978 H         1 RES1    0.0000
     28 C14        2.2411    3.0143    3.2455 C.ar      1 RES1    0.0000
     29 H8         2.4934    2.1380    3.0615 H         1 RES1    0.0000
     30 C15        3.1589    4.0189    3.2568 C.ar      1 RES1    0.0000
     31 C16        6.3825    2.3873    3.2375 C.3       1 RES1    0.0000
     32 H9         6.6590    1.5618    3.6651 H         1 RES1    0.0000
     33 H10        7.1285    3.0067    3.2266 H         1 RES1    0.0000
     34 C17        5.8620    2.1403    1.8630 C.3       1 RES1    0.0000
     35 C18        5.0616    3.3968    1.5949 C.3       1 RES1    0.0000
     36 C19        3.9191    3.2037    0.6540 C.2       1 RES1    0.0000
     37 C20        3.3451    4.4081    0.0339 C.3       1 RES1    0.0000
     38 H11        2.4831    4.2004   -0.3324 H         1 RES1    0.0000
     39 H12        3.9250    4.7144   -0.6670 H         1 RES1    0.0000
     40 H13        3.2544    5.0969    0.6976 H         1 RES1    0.0000
     41 C21        5.4832    3.4067    5.2223 C.3       1 RES1    0.0000
     42 H14        5.7368    2.6627    5.7731 H         1 RES1    0.0000
     43 H15        4.6835    3.8064    5.5719 H         1 RES1    0.0000
     44 H16        6.1901    4.0570    5.2177 H         1 RES1    0.0000
     45 C22        6.8745    1.8265    0.8221 C.ar      1 RES1    0.0000
     46 C23        7.9676    2.5949    0.6540 C.ar      1 RES1    0.0000
     47 H17        8.0925    3.3382    1.1995 H         1 RES1    0.0000
     48 C24        8.8917    2.3041   -0.2996 C.ar      1 RES1    0.0000
     49 H18        9.6461    2.8367   -0.4100 H         1 RES1    0.0000
     50 C25        8.6890    1.2242   -1.0838 C.ar      1 RES1    0.0000
     51 C26        7.6284    0.4273   -0.9345 C.ar      1 RES1    0.0000
     52 H19        7.5176   -0.3245   -1.4706 H         1 RES1    0.0000
     53 C27        6.7118    0.7438    0.0243 C.ar      1 RES1    0.0000
     54 H20        5.9601    0.2067    0.1323 H         1 RES1    0.0000
     55 H21        5.6472    4.0734    1.1699 H         1 RES1    0.0000
     56 H22        5.2842    1.3342    1.8927 H         1 RES1    0.0000
@<TRIPOS>BOND
     1    1    5 ar
     2    2   36 2
     3    3    4 1
     4    4   31 1
     5    5    3 1
     6    6    8 2
     7    7    5 ar
     8    8    9 2
     9   10    7 ar
    10   11   10 ar
    11   12   11 ar
    12   13   12 1
    13   14   12 ar
    14   15   14 1
    15   16   14 ar
    16   17   16 1
    17   18   16 ar
    18   19   18 1
    19   20    1 ar
    20   21    7 1
    21   22   21 ar
    22   23   22 1
    23   24   22 ar
    24   25   24 1
    25   26   24 ar
    26   27   26 1
    27   28   26 ar
    28   29   28 1
    29   30    3 1
    30   31   32 1
    31   33   31 1
    32   34   31 1
    33   35    3 1
    34   36   35 1
    35   37   36 1
    36   38   37 1
    37   39   37 1
    38   40   37 1
    39   41    4 1
    40   42   41 1
    41   43   41 1
    42   44   41 1
    43   45   34 1
    44   46   45 ar
    45   47   46 1
    46   48   46 ar
    47   49   48 1
    48   50    8 1
    49   51   50 ar
    50   52   51 1
    51   53   45 ar
    52   54   53 1
    53   55   35 1
    54   56   34 1
    55   11   20 ar
    56   18   20 ar
    57   21   30 ar
    58   28   30 ar
    59   34   35 1
    60   48   50 ar
    61   51   53 ar
@<TRIPOS>SUBSTRUCTURE
     1 RES1 1

@<TRIPOS>CRYSIN
   9.2830   10.6730   11.9710  74.3400  68.7500  75.5700   2 1

