# MOL2 file generated by ConQuest
# Please check atom types

@<TRIPOS>MOLECULE
KIBPUJ
    49    54     1
SMALL
NO_CHARGES
****
Generated from CSD

@<TRIPOS>ATOM
      1 O1         4.4303    4.3105    2.5520 O.2       1 RES1    0.0000
      2 O2         1.3033    6.0520    9.7335 O.2       1 RES1    0.0000
      3 O3         1.3793    5.5107   11.8459 O.2       1 RES1    0.0000
      4 N1         3.2754    3.1234    8.4039 N.2       1 RES1    0.0000
      5 N2         3.2092    4.0346    9.2857 N.2       1 RES1    0.0000
      6 N3         4.0194    5.1132    8.9787 N.pl3     1 RES1    0.0000
      7 C1         4.7245    4.9237    7.7118 C.3       1 RES1    0.0000
      8 H1         5.7168    5.0021    7.8040 H         1 RES1    0.0000
      9 C2         4.1519    5.7852    6.5478 C.3       1 RES1    0.0000
     10 C3         5.0762    5.5578    5.3301 C.3       1 RES1    0.0000
     11 H2         4.8597    6.1775    4.5888 H         1 RES1    0.0000
     12 H3         6.0304    5.6597    5.5750 H         1 RES1    0.0000
     13 C4         4.7404    4.0961    4.9612 C.3       1 RES1    0.0000
     14 H4         5.5374    3.5012    5.0635 H         1 RES1    0.0000
     15 C5         4.0433    3.8634    3.6328 C.2       1 RES1    0.0000
     16 N4         2.9308    3.0763    3.8399 N.am      1 RES1    0.0000
     17 C6         2.7347    2.7534    5.2681 C.3       1 RES1    0.0000
     18 H5         3.0015    1.8199    5.4626 H         1 RES1    0.0000
     19 H6         1.7892    2.8815    5.5364 H         1 RES1    0.0000
     20 C7         3.6368    3.7352    5.9759 C.3       1 RES1    0.0000
     21 C8         4.2668    3.4986    7.3512 C.3       1 RES1    0.0000
     22 H7         5.0320    2.8567    7.3092 H         1 RES1    0.0000
     23 O4         2.9724    5.0072    6.1694 O.3       1 RES1    0.0000
     24 C9         4.2244    6.1291    9.9324 C.ar      1 RES1    0.0000
     25 N5         1.8953    5.9578   10.8146 N.pl3     1 RES1    0.0000
     26 C10        3.2763    6.4756   10.8951 C.ar      1 RES1    0.0000
     27 C11        3.5326    7.3842   11.9132 C.ar      1 RES1    0.0000
     28 H8         2.8831    7.5463   12.5874 H         1 RES1    0.0000
     29 C12        4.7448    8.0536   11.9350 C.ar      1 RES1    0.0000
     30 H9         4.9313    8.6890   12.6159 H         1 RES1    0.0000
     31 C13        5.6858    7.7843   10.9471 C.ar      1 RES1    0.0000
     32 H10        6.5031    8.2680   10.9370 H         1 RES1    0.0000
     33 C14        5.4499    6.8233    9.9760 C.ar      1 RES1    0.0000
     34 H11        6.1232    6.6298    9.3336 H         1 RES1    0.0000
     35 C15        3.7711    7.2116    6.8547 C.3       1 RES1    0.0000
     36 H12        3.3567    7.6169    6.0648 H         1 RES1    0.0000
     37 H13        4.5734    7.7189    7.0979 H         1 RES1    0.0000
     38 H14        3.1358    7.2273    7.6011 H         1 RES1    0.0000
     39 C16        2.0473    2.5887    2.8211 C.ar      1 RES1    0.0000
     40 C17        1.1434    1.5689    3.1380 C.ar      1 RES1    0.0000
     41 H15        1.1160    1.2107    4.0169 H         1 RES1    0.0000
     42 C18        0.2863    1.0851    2.1586 C.ar      1 RES1    0.0000
     43 H16       -0.3260    0.3922    2.3766 H         1 RES1    0.0000
     44 C19        0.3031    1.5846    0.8805 C.ar      1 RES1    0.0000
     45 H17       -0.2836    1.2368    0.2197 H         1 RES1    0.0000
     46 C20        1.1981    2.6122    0.5669 C.ar      1 RES1    0.0000
     47 H18        1.2140    2.9704   -0.3136 H         1 RES1    0.0000
     48 C21        2.0587    3.1116    1.5229 C.ar      1 RES1    0.0000
     49 H19        2.6605    3.8111    1.2998 H         1 RES1    0.0000
@<TRIPOS>BOND
     1    1   15 2
     2    2   25 2
     3    3   25 2
     4    4    5 2
     5    5    6 1
     6    6    7 1
     7    7    8 1
     8    9    7 1
     9   10    9 1
    10   11   10 1
    11   12   10 1
    12   13   10 1
    13   14   13 1
    14   15   13 1
    15   16   15 1
    16   17   16 1
    17   18   17 1
    18   19   17 1
    19   20   13 1
    20   21    4 1
    21   22   21 1
    22   23    9 1
    23   24    6 1
    24   25   26 1
    25   26   24 ar
    26   27   26 ar
    27   28   27 1
    28   29   27 ar
    29   30   29 1
    30   31   29 ar
    31   32   31 1
    32   33   24 ar
    33   34   33 1
    34   35    9 1
    35   36   35 1
    36   37   35 1
    37   38   35 1
    38   39   16 1
    39   40   39 ar
    40   41   40 1
    41   42   40 ar
    42   43   42 1
    43   44   42 ar
    44   45   44 1
    45   46   44 ar
    46   47   46 1
    47   48   39 ar
    48   49   48 1
    49    7   21 1
    50   17   20 1
    51   20   21 1
    52   20   23 1
    53   31   33 ar
    54   46   48 ar
@<TRIPOS>SUBSTRUCTURE
     1 RES1 1

@<TRIPOS>CRYSIN
   8.8358   13.0740   16.7720  90.0000  90.0000  90.0000  19 1

