# MOL2 file generated by ConQuest
# Please check atom types

@<TRIPOS>MOLECULE
KIBQAQ
    51    54     2
SMALL
NO_CHARGES
****
Generated from CSD

@<TRIPOS>ATOM
      1 O1         7.7804    4.2645   11.9633 O.2       1 RES1    0.0000
      2 O2         5.8345    4.9062   12.7783 O.2       1 RES1    0.0000
      3 N1         6.2108    3.6179   15.4318 N.pl3     1 RES1    0.0000
      4 N2         7.3312    4.4148   15.4189 N.2       1 RES1    0.0000
      5 N3         7.4012    5.1506   16.4522 N.2       1 RES1    0.0000
      6 C1         6.2310    4.9215   17.3326 C.3       1 RES1    0.0000
      7 H1         6.4942    4.6585   18.2613 H         1 RES1    0.0000
      8 C2         5.2824    6.1446   17.3067 C.3       1 RES1    0.0000
      9 H2         5.7564    7.0219   17.3833 H         1 RES1    0.0000
     10 C3         4.1431    5.9693   18.3211 C.3       1 RES1    0.0000
     11 H3         3.6098    6.7976   18.4201 H         1 RES1    0.0000
     12 H4         4.4821    5.6862   19.2071 H         1 RES1    0.0000
     13 C4         3.3243    4.8362   17.6280 C.3       1 RES1    0.0000
     14 H5         3.3029    4.0071   18.1866 H         1 RES1    0.0000
     15 C5         1.9370    5.1997   17.1236 C.2       1 RES1    0.0000
     16 O3         1.0265    5.7103   17.7875 O.2       1 RES1    0.0000
     17 N4         1.8533    4.8571   15.8222 N.am      1 RES1    0.0000
     18 C6         3.0711    4.2444   15.2720 C.3       1 RES1    0.0000
     19 H6         3.3033    4.6279   14.3895 H         1 RES1    0.0000
     20 H7         2.9755    3.2625   15.1859 H         1 RES1    0.0000
     21 C7         4.1001    4.6119   16.3261 C.3       1 RES1    0.0000
     22 C8         5.3792    3.8262   16.6173 C.3       1 RES1    0.0000
     23 H8         5.2355    3.0011   17.1638 H         1 RES1    0.0000
     24 O4         4.6134    5.9524   16.0361 O.3       1 RES1    0.0000
     25 C9         6.0763    2.5677   14.4722 C.ar      1 RES1    0.0000
     26 C10        6.4605    2.7534   13.1423 C.ar      1 RES1    0.0000
     27 N5         6.7233    4.0867   12.5744 N.pl3     1 RES1    0.0000
     28 C11        6.4792    1.6807   12.2538 C.ar      1 RES1    0.0000
     29 H9         6.7680    1.8118   11.3585 H         1 RES1    0.0000
     30 C12        6.0745    0.4133   12.6760 C.ar      1 RES1    0.0000
     31 H10        6.1083   -0.3241   12.0800 H         1 RES1    0.0000
     32 C13        5.6195    0.2421   13.9828 C.ar      1 RES1    0.0000
     33 H11        5.3026   -0.6087   14.2658 H         1 RES1    0.0000
     34 C14        5.6261    1.3100   14.8774 C.ar      1 RES1    0.0000
     35 H12        5.3222    1.1821   15.7673 H         1 RES1    0.0000
     36 C15        0.6784    5.1611   15.0072 C.3       1 RES1    0.0000
     37 H13       -0.1319    5.0638   15.5665 H         1 RES1    0.0000
     38 H14        0.6190    4.4977   14.2751 H         1 RES1    0.0000
     39 C16        0.6931    6.5700   14.3980 C.ar      1 RES1    0.0000
     40 C17        1.8433    7.3573   14.3765 C.ar      1 RES1    0.0000
     41 H15        2.6477    7.0276   14.7585 H         1 RES1    0.0000
     42 C18        1.8225    8.6294   13.7959 C.ar      1 RES1    0.0000
     43 H16        2.6116    9.1594   13.7871 H         1 RES1    0.0000
     44 C19        0.6646    9.1160   13.2378 C.ar      1 RES1    0.0000
     45 H17        0.6530    9.9724   12.8273 H         1 RES1    0.0000
     46 C20       -0.4863    8.3464   13.2787 C.ar      1 RES1    0.0000
     47 H18       -1.2909    8.6873   12.9067 H         1 RES1    0.0000
     48 C21       -0.4826    7.0871   13.8555 C.ar      1 RES1    0.0000
     49 H19       -1.2815    6.5748   13.8805 H         1 RES1    0.0000
     50 O5         7.5046    4.0522   11.6093 Du        2 SUP2    0.0000
     51 O6         6.2107    5.1249   13.0188 Du        2 SUP2    0.0000
@<TRIPOS>BOND
     1    1   27 2
     2    2   27 2
     3    3    4 1
     4    4    5 2
     5    5    6 1
     6    6    7 1
     7    8    6 1
     8    9    8 1
     9   10    8 1
    10   11   10 1
    11   12   10 1
    12   13   10 1
    13   14   13 1
    14   15   13 1
    15   16   15 2
    16   17   15 1
    17   18   17 1
    18   19   18 1
    19   20   18 1
    20   21   13 1
    21   22    3 1
    22   23   22 1
    23   24    8 1
    24   25    3 1
    25   26   25 ar
    26   27   26 1
    27   28   26 ar
    28   29   28 1
    29   30   28 ar
    30   31   30 1
    31   32   30 ar
    32   33   32 1
    33   34   25 ar
    34   35   34 1
    35   36   17 1
    36   37   36 1
    37   38   36 1
    38   39   36 1
    39   40   39 ar
    40   41   40 1
    41   42   40 ar
    42   43   42 1
    43   44   42 ar
    44   45   44 1
    45   46   44 ar
    46   47   46 1
    47   48   39 ar
    48   49   48 1
    49    6   22 1
    50   18   21 1
    51   21   22 1
    52   21   24 1
    53   32   34 ar
    54   46   48 ar
@<TRIPOS>SUBSTRUCTURE
     1 RES1 1
     2 SUP2 50

@<TRIPOS>CRYSIN
  10.2190    8.0416   23.3620  90.0000  91.6700  90.0000 231 1

