# MOL2 file generated by ConQuest
# Please check atom types

@<TRIPOS>MOLECULE
KIBSAS01
    16    17     1
SMALL
NO_CHARGES
****
Generated from CSD

@<TRIPOS>ATOM
      1 C1         2.1101    5.5062    3.9064 C.2       1 RES1    0.0000
      2 C2         0.5145    6.0955    2.7287 C.2       1 RES1    0.0000
      3 C3         3.2158    5.5050    4.8721 C.2       1 RES1    0.0000
      4 C4         3.3107    5.8387    6.2450 C.2       1 RES1    0.0000
      5 N1         2.0108    4.5130    3.0846 N.2       1 RES1    0.0000
      6 N2         1.2149    6.5202    3.7526 N.2       1 RES1    0.0000
      7 N3        -0.4806    6.6885    2.1129 N.3       1 RES1    0.0000
      8 H1        -0.7497    7.4613    2.3766 H         1 RES1    0.0000
      9 H2        -0.8641    6.3038    1.4456 H         1 RES1    0.0000
     10 N4         4.3975    5.1212    4.4929 N.2       1 RES1    0.0000
     11 N5         4.5108    5.6639    6.6854 N.2       1 RES1    0.0000
     12 N6         2.2908    6.2800    7.1703 N.pl3     1 RES1    0.0000
     13 O1         0.9131    4.8982    2.2734 O.3       1 RES1    0.0000
     14 O2         5.2038    5.2128    5.6088 O.3       1 RES1    0.0000
     15 O3         1.1642    6.3604    6.7470 O.2       1 RES1    0.0000
     16 O4         2.6489    6.5474    8.3065 O.2       1 RES1    0.0000
@<TRIPOS>BOND
     1    1    3 1
     2    2    6 2
     3    3    4 1
     4    4   11 2
     5    5    1 2
     6    6    1 1
     7    7    2 1
     8    8    7 1
     9    9    7 1
    10   10    3 2
    11   11   14 1
    12   12    4 1
    13   13    2 1
    14   14   10 1
    15   15   12 2
    16   16   12 2
    17    5   13 1
@<TRIPOS>SUBSTRUCTURE
     1 RES1 1

@<TRIPOS>CRYSIN
   6.5817   15.5573    7.4055  90.0000  93.1240  90.0000  14 1

