# MOL2 file generated by ConQuest
# Please check atom types

@<TRIPOS>MOLECULE
KIBSAS
    16    17     1
SMALL
NO_CHARGES
****
Generated from CSD

@<TRIPOS>ATOM
      1 N1         4.4710   12.7462    4.4343 N.2       1 RES1    0.0000
      2 O1         5.2855   12.8366    5.5550 O.3       1 RES1    0.0000
      3 N2         4.5903   13.2874    6.6348 N.2       1 RES1    0.0000
      4 C1         3.3833   13.4609    6.1995 C.2       1 RES1    0.0000
      5 C2         3.2819   13.1294    4.8223 C.2       1 RES1    0.0000
      6 C3         2.1752   13.1346    3.8560 C.2       1 RES1    0.0000
      7 N3         2.0804   12.1428    3.0197 N.2       1 RES1    0.0000
      8 O2         0.9742   12.5315    2.2112 O.3       1 RES1    0.0000
      9 C4         0.5695   13.7249    2.6775 C.2       1 RES1    0.0000
     10 N4         1.2699   14.1487    3.7157 N.2       1 RES1    0.0000
     11 N5         2.3596   13.8946    7.1333 N.pl3     1 RES1    0.0000
     12 O3         2.7256   14.1621    8.2736 O.2       1 RES1    0.0000
     13 O4         1.2213   13.9644    6.7117 O.2       1 RES1    0.0000
     14 N6        -0.4287   14.3285    2.0643 N.3       1 RES1    0.0000
     15 H1        -0.7030   15.1164    2.3417 H         1 RES1    0.0000
     16 H2        -0.8205   13.9437    1.3771 H         1 RES1    0.0000
@<TRIPOS>BOND
     1    1    2 1
     2    2    3 1
     3    3    4 2
     4    4    5 1
     5    5    1 2
     6    6    5 1
     7    7    6 2
     8    8    7 1
     9    9    8 1
    10   10    6 1
    11   11    4 1
    12   12   11 2
    13   13   11 2
    14   14    9 1
    15   15   14 1
    16   16   14 1
    17    9   10 2
@<TRIPOS>SUBSTRUCTURE
     1 RES1 1

@<TRIPOS>CRYSIN
   6.5385   15.3700    7.3726  90.0000  92.7690  90.0000  14 1

