# MOL2 file generated by ConQuest
# Please check atom types

@<TRIPOS>MOLECULE
KICCIK
    49    51     1
SMALL
NO_CHARGES
****
Generated from CSD

@<TRIPOS>ATOM
      1 C1         3.9658    6.3169    4.2119 C.ar      1 RES1    0.0000
      2 C2         4.6916    5.8371    5.2826 C.ar      1 RES1    0.0000
      3 H1         5.2259    5.0807    5.1971 H         1 RES1    0.0000
      4 C3         4.6018    6.5242    6.5052 C.ar      1 RES1    0.0000
      5 H2         5.0775    6.2174    7.2434 H         1 RES1    0.0000
      6 C4         3.8103    7.6547    6.6214 C.ar      1 RES1    0.0000
      7 H3         3.7538    8.0868    7.4426 H         1 RES1    0.0000
      8 C5         3.1166    8.1480    5.5642 C.ar      1 RES1    0.0000
      9 H4         2.5994    8.9158    5.6531 H         1 RES1    0.0000
     10 C6         3.1930    7.4781    4.3391 C.ar      1 RES1    0.0000
     11 C7         2.5548    7.7521    3.0662 C.ar      1 RES1    0.0000
     12 C8         2.8638    6.7096    2.1737 C.ar      1 RES1    0.0000
     13 C9         2.3238    6.6771    0.9113 C.ar      1 RES1    0.0000
     14 H5         2.4953    5.9739    0.3276 H         1 RES1    0.0000
     15 C10        1.5066    7.7450    0.5428 C.ar      1 RES1    0.0000
     16 C11        1.2429    8.8137    1.3713 C.ar      1 RES1    0.0000
     17 H6         0.7222    9.5230    1.0717 H         1 RES1    0.0000
     18 C12        1.7534    8.8208    2.6377 C.ar      1 RES1    0.0000
     19 H7         1.5712    9.5293    3.2118 H         1 RES1    0.0000
     20 C13        3.8500    5.7361    2.8080 C.3       1 RES1    0.0000
     21 C14        3.3462    4.2794    2.8247 C.3       1 RES1    0.0000
     22 H8         3.2554    3.9678    1.9113 H         1 RES1    0.0000
     23 H9         4.0093    3.7222    3.2628 H         1 RES1    0.0000
     24 C15        2.0125    4.1123    3.5372 C.3       1 RES1    0.0000
     25 H10        2.0493    4.5864    4.3822 H         1 RES1    0.0000
     26 H11        1.3174    4.5232    2.9994 H         1 RES1    0.0000
     27 C16        1.6408    2.6856    3.7990 C.2       1 RES1    0.0000
     28 C17        0.0192    1.2932    4.7938 C.3       1 RES1    0.0000
     29 H12       -0.2250    0.8508    3.9773 H         1 RES1    0.0000
     30 H13       -0.7495    1.3575    5.3650 H         1 RES1    0.0000
     31 H14        0.7066    0.7907    5.2383 H         1 RES1    0.0000
     32 C18        5.2102    5.7880    2.0652 C.3       1 RES1    0.0000
     33 H15        5.8185    5.1584    2.4841 H         1 RES1    0.0000
     34 H16        5.0755    5.5014    1.1474 H         1 RES1    0.0000
     35 C19        5.8568    7.1587    2.0579 C.3       1 RES1    0.0000
     36 H17        5.2417    7.7936    1.6594 H         1 RES1    0.0000
     37 H18        6.0147    7.4361    2.9747 H         1 RES1    0.0000
     38 C20        7.1545    7.2036    1.3059 C.2       1 RES1    0.0000
     39 C21        8.8551    8.6567    0.5205 C.3       1 RES1    0.0000
     40 H19        9.4596    7.9449    0.7408 H         1 RES1    0.0000
     41 H20        9.2364    9.4951    0.7885 H         1 RES1    0.0000
     42 H21        8.7004    8.6640   -0.4264 H         1 RES1    0.0000
     43 N1         0.9037    7.7272   -0.7945 N.pl3     1 RES1    0.0000
     44 O1         0.9357    6.6951   -1.4395 O.2       1 RES1    0.0000
     45 O2         0.3895    8.7510   -1.2024 O.2       1 RES1    0.0000
     46 O3         2.2653    1.7250    3.4656 O.2       1 RES1    0.0000
     47 O4         0.5073    2.6143    4.4957 O.3       1 RES1    0.0000
     48 O5         7.7220    6.2658    0.8411 O.2       1 RES1    0.0000
     49 O6         7.6002    8.4554    1.2119 O.3       1 RES1    0.0000
@<TRIPOS>BOND
     1    1    2 ar
     2    2    3 1
     3    4    2 ar
     4    5    4 1
     5    6    4 ar
     6    7    6 1
     7    8    6 ar
     8    9    8 1
     9   10    1 ar
    10   11   10 1
    11   12   11 ar
    12   13   12 ar
    13   14   13 1
    14   15   13 ar
    15   16   15 ar
    16   17   16 1
    17   18   11 ar
    18   19   18 1
    19   20    1 1
    20   21   20 1
    21   22   21 1
    22   23   21 1
    23   24   21 1
    24   25   24 1
    25   26   24 1
    26   27   24 1
    27   28   29 1
    28   30   28 1
    29   31   28 1
    30   32   20 1
    31   33   32 1
    32   34   32 1
    33   35   32 1
    34   36   35 1
    35   37   35 1
    36   38   35 1
    37   39   40 1
    38   41   39 1
    39   42   39 1
    40   43   15 1
    41   44   43 2
    42   45   43 2
    43   46   27 2
    44   47   27 1
    45   48   38 2
    46   49   38 1
    47    8   10 ar
    48   12   20 1
    49   16   18 ar
    50   28   47 1
    51   39   49 1
@<TRIPOS>SUBSTRUCTURE
     1 RES1 1

@<TRIPOS>CRYSIN
  11.4581   10.3624   16.5730  90.0000  96.6290  90.0000  14 1

