# MOL2 file generated by ConQuest
# Please check atom types

@<TRIPOS>MOLECULE
KICLUG
    66    70     2
SMALL
NO_CHARGES
****
Generated from CSD

@<TRIPOS>ATOM
      1 O1         0.7894   -0.4799    1.0819 O.3       1 RES1    0.0000
      2 H1         0.3047   -1.1406    0.8939 H         1 RES1    0.0000
      3 N1         1.6144   -0.8020    2.1269 N.2       1 RES1    0.0000
      4 N2         0.9923    2.3995   -0.1016 N.1       1 RES1    0.0000
      5 C1         4.2153    6.4757    2.3300 C.ar      1 RES1    0.0000
      6 H2         4.4564    7.3859    2.2094 H         1 RES1    0.0000
      7 C2         5.0963    5.5866    2.9243 C.ar      1 RES1    0.0000
      8 H3         5.9408    5.8910    3.2354 H         1 RES1    0.0000
      9 C3         4.7478    4.2562    3.0653 C.ar      1 RES1    0.0000
     10 H4         5.3495    3.6562    3.4894 H         1 RES1    0.0000
     11 C4         3.5356    3.7832    2.5967 C.ar      1 RES1    0.0000
     12 C5         3.2149    2.3531    2.7110 C.2       1 RES1    0.0000
     13 C6         3.8089    1.4526    3.6874 C.2       1 RES1    0.0000
     14 H5         4.4862    1.7065    4.3033 H         1 RES1    0.0000
     15 C7         3.2790    0.2072    3.6125 C.2       1 RES1    0.0000
     16 C8         3.5719   -0.9435    4.4722 C.ar      1 RES1    0.0000
     17 C9         4.8065   -1.0044    5.1477 C.ar      1 RES1    0.0000
     18 H6         5.4463   -0.3151    5.0131 H         1 RES1    0.0000
     19 C10        5.1043   -2.0486    6.0035 C.ar      1 RES1    0.0000
     20 H7         5.9411   -2.0678    6.4530 H         1 RES1    0.0000
     21 C11        4.2040   -3.0509    6.2054 C.ar      1 RES1    0.0000
     22 H8         4.4153   -3.7769    6.7819 H         1 RES1    0.0000
     23 C12        2.9671   -3.0018    5.5566 C.ar      1 RES1    0.0000
     24 H9         2.3332   -3.6933    5.7039 H         1 RES1    0.0000
     25 C13        2.6531   -1.9553    4.7020 C.ar      1 RES1    0.0000
     26 H10        1.8058   -1.9318    4.2728 H         1 RES1    0.0000
     27 C14        2.3014    0.2481    2.5078 C.2       1 RES1    0.0000
     28 C15        2.3064    1.6146    1.9745 C.2       1 RES1    0.0000
     29 C16        1.5663    2.0573    0.8330 C.1       1 RES1    0.0000
     30 C17        2.6223    4.6940    2.0304 C.ar      1 RES1    0.0000
     31 H11        1.7723    4.3899    1.7333 H         1 RES1    0.0000
     32 C18        2.9534    6.0074    1.9085 C.ar      1 RES1    0.0000
     33 H12        2.3276    6.6158    1.5352 H         1 RES1    0.0000
     34 O2         8.1686   12.9338   11.6782 O.3       2 RES2    0.0000
     35 H13        8.6250   13.6169   11.8560 H         2 RES2    0.0000
     36 N3         7.3660   13.1899   10.5976 N.2       2 RES2    0.0000
     37 N4         8.0715   10.0008   12.8159 N.1       2 RES2    0.0000
     38 C19        5.0186    5.8466   10.2408 C.ar      2 RES2    0.0000
     39 H14        4.8651    4.9101   10.2675 H         2 RES2    0.0000
     40 C20        5.3736    6.5096   11.3874 C.ar      2 RES2    0.0000
     41 H15        5.4550    6.0355   12.2077 H         2 RES2    0.0000
     42 C21        5.6146    7.8920   11.3417 C.ar      2 RES2    0.0000
     43 H16        5.8594    8.3523   12.1366 H         2 RES2    0.0000
     44 C22        5.4987    8.5995   10.1417 C.ar      2 RES2    0.0000
     45 C23        5.8002   10.0315   10.0249 C.2       2 RES2    0.0000
     46 C24        5.2898   10.8834    8.9748 C.2       2 RES2    0.0000
     47 H17        4.7004   10.5955    8.2879 H         2 RES2    0.0000
     48 C25        5.7634   12.1496    9.1018 C.2       2 RES2    0.0000
     49 C26        5.4620   13.2974    8.2129 C.ar      2 RES2    0.0000
     50 C27        5.4252   14.6006    8.7056 C.ar      2 RES2    0.0000
     51 H18        5.5851   14.7629    9.6275 H         2 RES2    0.0000
     52 C28        5.1543   15.6595    7.8523 C.ar      2 RES2    0.0000
     53 H19        5.1302   16.5462    8.1926 H         2 RES2    0.0000
     54 C29        4.9216   15.4318    6.5152 C.ar      2 RES2    0.0000
     55 H20        4.7435   16.1631    5.9362 H         2 RES2    0.0000
     56 C30        6.6567   12.1451   10.2802 C.2       2 RES2    0.0000
     57 C31        6.6214   10.8037   10.8300 C.2       2 RES2    0.0000
     58 C32        7.4151   10.3446   11.9309 C.1       2 RES2    0.0000
     59 C33        5.2150   13.0645    6.8797 C.ar      2 RES2    0.0000
     60 H21        5.2275   12.1743    6.5495 H         2 RES2    0.0000
     61 C34        4.9446   14.1245    6.0035 C.ar      2 RES2    0.0000
     62 H22        4.7819   13.9621    5.0817 H         2 RES2    0.0000
     63 C35        5.0993    7.8918    9.0053 C.ar      2 RES2    0.0000
     64 H23        4.9743    8.3572    8.1876 H         2 RES2    0.0000
     65 C36        4.8837    6.5271    9.0497 C.ar      2 RES2    0.0000
     66 H24        4.6418    6.0594    8.2587 H         2 RES2    0.0000
@<TRIPOS>BOND
     1    1    2 1
     2    3    1 1
     3    4   29 3
     4    5    6 1
     5    7    5 ar
     6    8    7 1
     7    9    7 ar
     8   10    9 1
     9   11    9 ar
    10   12   11 1
    11   13   12 1
    12   14   13 1
    13   15   13 2
    14   16   15 1
    15   17   16 ar
    16   18   17 1
    17   19   17 ar
    18   20   19 1
    19   21   19 ar
    20   22   21 1
    21   23   21 ar
    22   24   23 1
    23   25   16 ar
    24   26   25 1
    25   27    3 2
    26   28   12 2
    27   29   28 1
    28   30   11 ar
    29   31   30 1
    30   32    5 ar
    31   33   32 1
    32   34   35 1
    33   36   34 1
    34   37   58 3
    35   38   39 1
    36   40   38 ar
    37   41   40 1
    38   42   40 ar
    39   43   42 1
    40   44   42 ar
    41   45   44 1
    42   46   45 1
    43   47   46 1
    44   48   46 2
    45   49   48 1
    46   50   49 ar
    47   51   50 1
    48   52   50 ar
    49   53   52 1
    50   54   52 ar
    51   55   54 1
    52   56   36 2
    53   57   45 2
    54   58   57 1
    55   59   49 ar
    56   60   59 1
    57   61   54 ar
    58   62   61 1
    59   63   44 ar
    60   64   63 1
    61   65   38 ar
    62   66   65 1
    63   15   27 1
    64   23   25 ar
    65   27   28 1
    66   30   32 ar
    67   48   56 1
    68   56   57 1
    69   59   61 ar
    70   63   65 ar
@<TRIPOS>SUBSTRUCTURE
     1 RES1 1
     2 RES2 34

@<TRIPOS>CRYSIN
   9.3900   11.5610   12.8240  82.9560  84.3920  74.5050   2 1

