# MOL2 file generated by ConQuest
# Please check atom types

@<TRIPOS>MOLECULE
KIDLAN
    37    40     1
SMALL
NO_CHARGES
****
Generated from CSD

@<TRIPOS>ATOM
      1 C1         4.2015    9.1128    9.5796 C.ar      1 RES1    0.0000
      2 C2         2.1365   10.1943    9.5307 C.ar      1 RES1    0.0000
      3 C3         0.8299   10.2976    9.0332 C.ar      1 RES1    0.0000
      4 H1         0.5115    9.6826    8.4124 H         1 RES1    0.0000
      5 C4         0.0229   11.3247    9.4787 C.ar      1 RES1    0.0000
      6 H2        -0.8350   11.4190    9.1313 H         1 RES1    0.0000
      7 C5         0.4789   12.2210   10.4424 C.ar      1 RES1    0.0000
      8 H3        -0.0918   12.8833   10.7592 H         1 RES1    0.0000
      9 C6         1.7630   12.1402   10.9312 C.ar      1 RES1    0.0000
     10 H4         2.0566   12.7484   11.5714 H         1 RES1    0.0000
     11 C7         2.6384   11.1294   10.4588 C.ar      1 RES1    0.0000
     12 C8         4.6574   10.1325   10.4518 C.ar      1 RES1    0.0000
     13 C9         6.0800    9.7645   10.7975 C.3       1 RES1    0.0000
     14 C10        5.8859    8.5386   11.7447 C.3       1 RES1    0.0000
     15 H5         6.7260    8.2868   12.1601 H         1 RES1    0.0000
     16 H6         5.2386    8.7388   12.4389 H         1 RES1    0.0000
     17 C11        5.3693    7.4090   10.8194 C.3       1 RES1    0.0000
     18 H7         4.4965    7.0956   11.1025 H         1 RES1    0.0000
     19 H8         5.9860    6.6597   10.8030 H         1 RES1    0.0000
     20 C12        5.2927    8.1041    9.4280 C.3       1 RES1    0.0000
     21 H9         5.2300    7.5113    8.6497 H         1 RES1    0.0000
     22 C13        6.5285    9.0538    9.4750 C.3       1 RES1    0.0000
     23 C14        6.5892    9.9815    8.2670 C.3       1 RES1    0.0000
     24 H10        6.8339    9.4769    7.4885 H         1 RES1    0.0000
     25 H11        7.2428   10.6670    8.4228 H         1 RES1    0.0000
     26 H12        5.7287   10.3853    8.1302 H         1 RES1    0.0000
     27 C15        7.8564    8.3145    9.6025 C.3       1 RES1    0.0000
     28 H13        7.7981    7.6719   10.3145 H         1 RES1    0.0000
     29 H14        8.5551    8.9434    9.7961 H         1 RES1    0.0000
     30 H15        8.0511    7.8626    8.7788 H         1 RES1    0.0000
     31 C16        6.9374   10.8850   11.3368 C.3       1 RES1    0.0000
     32 H16        7.0058   11.5807   10.6785 H         1 RES1    0.0000
     33 H17        7.8141   10.5492   11.5391 H         1 RES1    0.0000
     34 H18        6.5381   11.2380   12.1359 H         1 RES1    0.0000
     35 N1         2.9541    9.1178    9.1154 N.pl3     1 RES1    0.0000
     36 N2         3.9426   11.1161   10.9242 N.ar      1 RES1    0.0000
     37 O1         2.4888    8.2017    8.3502 O.2       1 RES1    0.0000
@<TRIPOS>BOND
     1    1   12 ar
     2    2    3 ar
     3    3    4 1
     4    5    3 ar
     5    6    5 1
     6    7    5 ar
     7    8    7 1
     8    9    7 ar
     9   10    9 1
    10   11    2 ar
    11   12   13 1
    12   13   14 1
    13   14   15 1
    14   16   14 1
    15   17   14 1
    16   18   17 1
    17   19   17 1
    18   20    1 1
    19   21   20 1
    20   22   13 1
    21   23   22 1
    22   24   23 1
    23   25   23 1
    24   26   23 1
    25   27   22 1
    26   28   27 1
    27   29   27 1
    28   30   27 1
    29   31   13 1
    30   32   31 1
    31   33   31 1
    32   34   31 1
    33   35    1 ar
    34   36   11 ar
    35   37   35 1
    36    2   35 ar
    37    9   11 ar
    38   12   36 ar
    39   17   20 1
    40   20   22 1
@<TRIPOS>SUBSTRUCTURE
     1 RES1 1

@<TRIPOS>CRYSIN
  10.6779   10.7120   11.5207  90.0000  90.0000  90.0000  19 1

