# MOL2 file generated by ConQuest
# Please check atom types

@<TRIPOS>MOLECULE
KIDXED
    33    35     1
SMALL
NO_CHARGES
****
Generated from CSD

@<TRIPOS>ATOM
      1 N1         2.5768    2.8435    2.8846 N.am      1 RES1    0.0000
      2 C1         3.1206    4.0058    3.4501 C.2       1 RES1    0.0000
      3 O1         3.3376    4.2727    4.6039 O.2       1 RES1    0.0000
      4 C2         3.3422    4.6708    2.0912 C.3       1 RES1    0.0000
      5 C3         2.9276    3.2964    1.5057 C.3       1 RES1    0.0000
      6 C4         4.0285    2.3482    1.0884 C.2       1 RES1    0.0000
      7 O2         4.6446    2.3399    0.0401 O.2       1 RES1    0.0000
      8 N2         4.1923    1.4823    2.1378 N.am      1 RES1    0.0000
      9 O3         4.8386    0.2681    1.9184 O.3       1 RES1    0.0000
     10 C5         3.1118    1.5114    3.1570 C.3       1 RES1    0.0000
     11 C6         2.1052    0.4180    2.9579 C.2       1 RES1    0.0000
     12 C7         1.9943   -0.5891    3.7994 C.2       1 RES1    0.0000
     13 C8         6.0521    0.1940    2.7203 C.3       1 RES1    0.0000
     14 C9         6.5548   -1.2087    2.5477 C.ar      1 RES1    0.0000
     15 C10        7.1298   -1.5862    1.3428 C.ar      1 RES1    0.0000
     16 C11        7.5257   -2.8980    1.1213 C.ar      1 RES1    0.0000
     17 C12        7.3859   -3.8338    2.1336 C.ar      1 RES1    0.0000
     18 C13        6.8572   -3.4578    3.3509 C.ar      1 RES1    0.0000
     19 C14        6.4268   -2.1483    3.5585 C.ar      1 RES1    0.0000
     20 H1         4.2809    4.9286    1.9093 H         1 RES1    0.0000
     21 H2         2.7154    5.4097    1.8882 H         1 RES1    0.0000
     22 H3         2.1530    3.3337    0.8734 H         1 RES1    0.0000
     23 H4         3.4977    1.4701    4.0781 H         1 RES1    0.0000
     24 H5         1.5309    0.4524    2.2026 H         1 RES1    0.0000
     25 H6         2.5615   -0.6376    4.5591 H         1 RES1    0.0000
     26 H7         1.3463   -1.2665    3.6456 H         1 RES1    0.0000
     27 H8         5.8534    0.3800    3.6731 H         1 RES1    0.0000
     28 H9         6.7229    0.8483    2.4009 H         1 RES1    0.0000
     29 H10        7.2539   -0.9382    0.6603 H         1 RES1    0.0000
     30 H11        7.8909   -3.1517    0.2827 H         1 RES1    0.0000
     31 H12        7.6529   -4.7346    1.9895 H         1 RES1    0.0000
     32 H13        6.7865   -4.0946    4.0528 H         1 RES1    0.0000
     33 H14        6.0458   -1.9002    4.3925 H         1 RES1    0.0000
@<TRIPOS>BOND
     1    1    2 1
     2    2    3 2
     3    4    2 1
     4    5    1 1
     5    6    5 1
     6    7    6 2
     7    8    6 1
     8    9    8 1
     9   10    1 1
    10   11   10 1
    11   12   11 2
    12   13    9 1
    13   14   13 1
    14   15   14 ar
    15   16   15 ar
    16   17   16 ar
    17   18   17 ar
    18   19   14 ar
    19   20    4 1
    20   21    4 1
    21   22    5 1
    22   23   10 1
    23   24   11 1
    24   25   12 1
    25   26   12 1
    26   27   13 1
    27   28   13 1
    28   29   15 1
    29   30   16 1
    30   31   17 1
    31   32   18 1
    32   33   19 1
    33    4    5 1
    34    8   10 1
    35   18   19 ar
@<TRIPOS>SUBSTRUCTURE
     1 RES1 1

@<TRIPOS>CRYSIN
   7.8548    7.9507   21.0974  90.0000  90.0000  90.0000  19 1

