# MOL2 file generated by ConQuest
# Please check atom types

@<TRIPOS>MOLECULE
KIFSIE
   108   106     2
SMALL
NO_CHARGES
****
Generated from CSD

@<TRIPOS>ATOM
      1 N1         5.5039   12.5250    3.4498 N.am      1 RES1    0.0000
      2 N2         8.9823    7.6052    3.6453 N.3       1 RES1    0.0000
      3 N3         9.6462   11.0643   -0.2717 N.3       1 RES1    0.0000
      4 O1         4.9467   10.6407    4.6362 O.2       1 RES1    0.0000
      5 O2         6.6454   13.9798    2.0791 O.2       1 RES1    0.0000
      6 O3         7.6024    7.2114    4.0251 O.3       1 RES1    0.0000
      7 O4         4.5574    8.1197    3.1141 O.2       1 RES1    0.0000
      8 O5         5.1040    7.5066    5.1871 O.3       1 RES1    0.0000
      9 O6         8.4300   10.9311    0.5790 O.3       1 RES1    0.0000
     10 O7        11.1468   14.1482    2.4185 O.2       1 RES1    0.0000
     11 O8         9.4387   13.4210    3.6735 O.3       1 RES1    0.0000
     12 C1         5.6644   11.2364    3.8748 C.2       1 RES1    0.0000
     13 C2         6.5495   12.9193    2.6308 C.2       1 RES1    0.0000
     14 C3         7.4593   11.7373    2.5477 C.2       1 RES1    0.0000
     15 C4         6.9300   10.7228    3.2419 C.2       1 RES1    0.0000
     16 C5         7.4454    9.3984    3.4723 C.2       1 RES1    0.0000
     17 C6         8.9253    9.0949    3.5266 C.3       1 RES1    0.0000
     18 H1         9.3596    9.3846    2.6971 H         1 RES1    0.0000
     19 C7         6.8015    8.2880    3.8221 C.2       1 RES1    0.0000
     20 C8         5.3509    7.9734    3.9841 C.2       1 RES1    0.0000
     21 C9         3.6592    7.3539    5.6102 C.3       1 RES1    0.0000
     22 H2         3.5572    7.5433    6.5567 H         1 RES1    0.0000
     23 H3         3.0892    7.9570    5.1076 H         1 RES1    0.0000
     24 C10        3.3144    5.9654    5.3237 C.3       1 RES1    0.0000
     25 H4         3.3596    5.8138    4.3771 H         1 RES1    0.0000
     26 H5         2.4242    5.7874    5.6357 H         1 RES1    0.0000
     27 H6         3.9329    5.3838    5.7722 H         1 RES1    0.0000
     28 C11        9.5935    9.7429    4.7182 C.ar      1 RES1    0.0000
     29 C12       10.8479   10.2688    4.6321 C.ar      1 RES1    0.0000
     30 H7        11.3031   10.2359    3.8221 H         1 RES1    0.0000
     31 C13       11.4543   10.8502    5.7242 C.ar      1 RES1    0.0000
     32 H8        12.3109   11.2024    5.6432 H         1 RES1    0.0000
     33 C14       10.8075   10.9095    6.9167 C.ar      1 RES1    0.0000
     34 H9        11.2141   11.3149    7.6487 H         1 RES1    0.0000
     35 C15        9.5618   10.3739    7.0352 C.ar      1 RES1    0.0000
     36 H10        9.1171   10.4052    7.8512 H         1 RES1    0.0000
     37 C16        8.9612    9.7845    5.9447 C.ar      1 RES1    0.0000
     38 H11        8.1147    9.4095    6.0362 H         1 RES1    0.0000
     39 C17        9.2909    6.8518    2.3836 C.3       1 RES1    0.0000
     40 C18        8.3569    7.1693    1.2225 C.3       1 RES1    0.0000
     41 H12        7.4669    6.8834    1.4400 H         1 RES1    0.0000
     42 H13        8.6577    6.7090    0.4350 H         1 RES1    0.0000
     43 H14        8.3582    8.1153    1.0605 H         1 RES1    0.0000
     44 C19        9.2205    5.3717    2.7361 C.3       1 RES1    0.0000
     45 H15        9.7589    5.2009    3.5116 H         1 RES1    0.0000
     46 H16        9.5480    4.8514    1.9981 H         1 RES1    0.0000
     47 H17        8.3095    5.1287    2.9176 H         1 RES1    0.0000
     48 C20       10.7277    7.2058    2.0371 C.3       1 RES1    0.0000
     49 H18       10.7654    8.1100    1.7130 H         1 RES1    0.0000
     50 H19       11.0494    6.6086    1.3590 H         1 RES1    0.0000
     51 H20       11.2754    7.1250    2.8216 H         1 RES1    0.0000
     52 C21        8.5999   11.7591    1.6275 C.2       1 RES1    0.0000
     53 C22       10.3758   12.2666    0.2390 C.3       1 RES1    0.0000
     54 H21       10.2095   13.0298   -0.3540 H         1 RES1    0.0000
     55 C23        9.6999   12.5022    1.5638 C.2       1 RES1    0.0000
     56 C24       10.1838   13.4459    2.5651 C.2       1 RES1    0.0000
     57 C25        9.8464   14.2504    4.7731 C.3       1 RES1    0.0000
     58 H22        9.9529   15.1692    4.4806 H         1 RES1    0.0000
     59 H23       10.6939   13.9412    5.1316 H         1 RES1    0.0000
     60 C26        8.8059   14.1619    5.7917 C.3       1 RES1    0.0000
     61 H24        8.0051   14.5795    5.4662 H         1 RES1    0.0000
     62 H25        9.0991   14.6090    6.5882 H         1 RES1    0.0000
     63 H26        8.6283   13.2392    5.9882 H         1 RES1    0.0000
     64 C27       11.8585   11.9677    0.2783 C.ar      1 RES1    0.0000
     65 C28       12.3438   10.8505    0.9015 C.ar      1 RES1    0.0000
     66 H27       11.7562   10.2708    1.3290 H         1 RES1    0.0000
     67 C29       13.7011   10.5719    0.9030 C.ar      1 RES1    0.0000
     68 H28       14.0253    9.8146    1.3365 H         1 RES1    0.0000
     69 C30       14.5621   11.4230    0.2580 C.ar      1 RES1    0.0000
     70 H29       15.4719   11.2314    0.2370 H         1 RES1    0.0000
     71 C31       14.0967   12.5402   -0.3465 C.ar      1 RES1    0.0000
     72 H30       14.6883   13.1198   -0.7710 H         1 RES1    0.0000
     73 C32       12.7501   12.8214   -0.3360 C.ar      1 RES1    0.0000
     74 H31       12.4384   13.5957   -0.7455 H         1 RES1    0.0000
     75 C33        9.1202   11.1619   -1.6665 C.3       1 RES1    0.0000
     76 C34        8.4231    9.8329   -1.9471 C.3       1 RES1    0.0000
     77 H32        9.0356    9.1104   -1.7926 H         1 RES1    0.0000
     78 H33        8.1297    9.8123   -2.8621 H         1 RES1    0.0000
     79 H34        7.6650    9.7403   -1.3665 H         1 RES1    0.0000
     80 C35       10.3373   11.3015   -2.5561 C.3       1 RES1    0.0000
     81 H35       10.7903   12.1221   -2.3521 H         1 RES1    0.0000
     82 H36       10.0621   11.3064   -3.4756 H         1 RES1    0.0000
     83 H37       10.9307   10.5616   -2.4046 H         1 RES1    0.0000
     84 C36        8.1856   12.3285   -1.8796 C.3       1 RES1    0.0000
     85 H38        7.4534   12.2693   -1.2615 H         1 RES1    0.0000
     86 H39        7.8487   12.3083   -2.7781 H         1 RES1    0.0000
     87 H40        8.6612   13.1496   -1.7340 H         1 RES1    0.0000
     88 C37        4.3140   13.3667    3.7006 C.3       1 RES1    0.0000
     89 H41        4.0482   13.7974    2.8741 H         1 RES1    0.0000
     90 H42        3.5802   12.8021    3.9916 H         1 RES1    0.0000
     91 C38        4.5668   14.3990    4.7266 C.ar      1 RES1    0.0000
     92 C39        4.3941   15.7200    4.4701 C.ar      1 RES1    0.0000
     93 H43        4.0944   15.9880    3.6316 H         1 RES1    0.0000
     94 C40        4.6608   16.6842    5.4437 C.ar      1 RES1    0.0000
     95 H44        4.5145   17.5881    5.2787 H         1 RES1    0.0000
     96 C41        5.1362   16.2643    6.6287 C.ar      1 RES1    0.0000
     97 H45        5.4092   16.9101    7.2392 H         1 RES1    0.0000
     98 C42        5.2446   14.9673    6.9932 C.ar      1 RES1    0.0000
     99 H46        5.4924   14.7133    7.8527 H         1 RES1    0.0000
    100 C43        4.9574   14.0212    5.9867 C.ar      1 RES1    0.0000
    101 H47        5.0365   13.1160    6.1832 H         1 RES1    0.0000
    102 C44        3.7964    6.8355    5.1361 Du        2 SUP2    0.0000
    103 H48        3.8349    5.9951    4.6546 Du        2 SUP2    0.0000
    104 H49        3.1071    7.4025    4.7626 Du        2 SUP2    0.0000
    105 C45        3.6346    6.6342    6.6632 Du        2 SUP2    0.0000
    106 H50        3.7328    5.7032    6.8762 Du        2 SUP2    0.0000
    107 H51        2.7639    6.9348    6.9347 Du        2 SUP2    0.0000
    108 H52        4.3057    7.1411    7.1282 Du        2 SUP2    0.0000
@<TRIPOS>BOND
     1    1   12 1
     2    2    6 1
     3    3    9 1
     4    4   12 2
     5    5   13 2
     6    6   19 1
     7    7   20 2
     8    8   20 1
     9    9   52 1
    10   10   56 2
    11   11   56 1
    12   12   15 1
    13   13    1 1
    14   14   13 1
    15   15   14 2
    16   16   15 1
    17   17    2 1
    18   18   17 1
    19   19   16 2
    20   20   19 1
    21   21    8 1
    22   22   21 1
    23   23   21 1
    24   24   21 1
    25   25   24 1
    26   26   24 1
    27   27   24 1
    28   28   17 1
    29   29   28 ar
    30   30   29 1
    31   31   29 ar
    32   32   31 1
    33   33   31 ar
    34   34   33 1
    35   35   33 ar
    36   36   35 1
    37   37   28 ar
    38   38   37 1
    39   39    2 1
    40   40   39 1
    41   41   40 1
    42   42   40 1
    43   43   40 1
    44   44   39 1
    45   45   44 1
    46   46   44 1
    47   47   44 1
    48   48   39 1
    49   49   48 1
    50   50   48 1
    51   51   48 1
    52   52   14 1
    53   53    3 1
    54   54   53 1
    55   55   52 2
    56   56   55 1
    57   57   11 1
    58   58   57 1
    59   59   57 1
    60   60   57 1
    61   61   60 1
    62   62   60 1
    63   63   60 1
    64   64   53 1
    65   65   64 ar
    66   66   65 1
    67   67   65 ar
    68   68   67 1
    69   69   67 ar
    70   70   69 1
    71   71   69 ar
    72   72   71 1
    73   73   64 ar
    74   74   73 1
    75   75    3 1
    76   76   75 1
    77   77   76 1
    78   78   76 1
    79   79   76 1
    80   80   75 1
    81   81   80 1
    82   82   80 1
    83   83   80 1
    84   84   75 1
    85   85   84 1
    86   86   84 1
    87   87   84 1
    88   88    1 1
    89   89   88 1
    90   90   88 1
    91   91   88 1
    92   92   91 ar
    93   93   92 1
    94   94   92 ar
    95   95   94 1
    96   96   94 ar
    97   97   96 1
    98   98   96 ar
    99   99   98 1
   100  100   91 ar
   101  101  100 1
   102   16   17 1
   103   35   37 ar
   104   53   55 1
   105   71   73 ar
   106   98  100 ar
@<TRIPOS>SUBSTRUCTURE
     1 RES1 1
     2 SUP2 102

@<TRIPOS>CRYSIN
   9.7750   15.0110   16.6650  64.1910  82.9640  75.7190   2 1

