# MOL2 file generated by ConQuest
# Please check atom types

@<TRIPOS>MOLECULE
KIFVAY
    31    31     1
SMALL
NO_CHARGES
****
Generated from CSD

@<TRIPOS>ATOM
      1 O1         6.5592    2.8167    9.7820 O.2       1 RES1    0.0000
      2 O2         1.6556    6.5006   10.1660 O.2       1 RES1    0.0000
      3 O3         3.3780    6.3889   11.4596 O.2       1 RES1    0.0000
      4 N1         2.5430    5.8746   10.7210 N.pl3     1 RES1    0.0000
      5 C1         5.6083    2.1122    9.6115 C.2       1 RES1    0.0000
      6 H1         5.7256    1.1954    9.4006 H         1 RES1    0.0000
      7 C2         4.1597    2.5076    9.7766 C.3       1 RES1    0.0000
      8 H2         3.8558    2.0945   10.6348 H         1 RES1    0.0000
      9 C3         3.9982    4.0390    9.9575 C.3       1 RES1    0.0000
     10 H3         4.6627    4.3248   10.6483 H         1 RES1    0.0000
     11 C4         2.6063    4.3694   10.5076 C.3       1 RES1    0.0000
     12 H4         1.9215    4.1126    9.8259 H         1 RES1    0.0000
     13 C5         3.3173    1.8625    8.6738 C.3       1 RES1    0.0000
     14 H5         2.3779    2.1171    8.7890 H         1 RES1    0.0000
     15 H6         3.4003    0.8870    8.7277 H         1 RES1    0.0000
     16 H7         3.6338    2.1695    7.7987 H         1 RES1    0.0000
     17 C6         2.2485    3.7136   11.8299 C.3       1 RES1    0.0000
     18 H8         1.3453    3.9867   12.0958 H         1 RES1    0.0000
     19 H9         2.8898    3.9916   12.5174 H         1 RES1    0.0000
     20 H10        2.2785    2.7389   11.7305 H         1 RES1    0.0000
     21 C7         4.3056    4.8256    8.6913 C.ar      1 RES1    0.0000
     22 C8         5.5443    5.4566    8.5607 C.ar      1 RES1    0.0000
     23 H11        6.1760    5.3929    9.2670 H         1 RES1    0.0000
     24 C9         5.8716    6.1753    7.4188 C.ar      1 RES1    0.0000
     25 H12        6.7256    6.5841    7.3440 H         1 RES1    0.0000
     26 C10        4.9565    6.2948    6.3917 C.ar      1 RES1    0.0000
     27 H13        5.1759    6.7907    5.6122 H         1 RES1    0.0000
     28 C11        3.7223    5.6914    6.5055 C.ar      1 RES1    0.0000
     29 H14        3.0918    5.7763    5.7997 H         1 RES1    0.0000
     30 C12        3.3881    4.9572    7.6453 C.ar      1 RES1    0.0000
     31 H15        2.5347    4.5455    7.7092 H         1 RES1    0.0000
@<TRIPOS>BOND
     1    1    5 2
     2    2    4 2
     3    3    4 2
     4    4   11 1
     5    5    6 1
     6    7    5 1
     7    8    7 1
     8    9    7 1
     9   10    9 1
    10   11    9 1
    11   12   11 1
    12   13    7 1
    13   14   13 1
    14   15   13 1
    15   16   13 1
    16   17   11 1
    17   18   17 1
    18   19   17 1
    19   20   17 1
    20   21    9 1
    21   22   21 ar
    22   23   22 1
    23   24   22 ar
    24   25   24 1
    25   26   24 ar
    26   27   26 1
    27   28   26 ar
    28   29   28 1
    29   30   21 ar
    30   31   30 1
    31   28   30 ar
@<TRIPOS>SUBSTRUCTURE
     1 RES1 1

@<TRIPOS>CRYSIN
   6.6458    7.0736   12.4703  90.0000 100.6290  90.0000   4 1

