# MOL2 file generated by ConQuest
# Please check atom types

@<TRIPOS>MOLECULE
KIFYOQ
   114   118     2
SMALL
NO_CHARGES
****
Generated from CSD

@<TRIPOS>ATOM
      1 C1        -2.5281    7.3845   12.0792 C.2       1 RES1    0.0000
      2 C2        -3.8021    5.1799   12.1198 C.3       1 RES1    0.0000
      3 H1        -3.4255    4.5088   12.7427 H         1 RES1    0.0000
      4 H2        -4.1498    4.7023   11.3250 H         1 RES1    0.0000
      5 C3        -4.9358    5.9242   12.8024 C.3       1 RES1    0.0000
      6 H3        -5.4796    6.3921   12.1055 H         1 RES1    0.0000
      7 C4        -5.8734    5.0920   13.6831 C.3       1 RES1    0.0000
      8 H4        -5.3844    4.3449   14.1103 H         1 RES1    0.0000
      9 H5        -6.6227    4.7238   13.1509 H         1 RES1    0.0000
     10 C5        -6.3907    6.0921   14.7476 C.3       1 RES1    0.0000
     11 H6        -7.3570    6.2631   14.6139 H         1 RES1    0.0000
     12 H7        -6.2579    5.7240   15.6569 H         1 RES1    0.0000
     13 C6        -5.5927    7.3945   14.5781 C.3       1 RES1    0.0000
     14 H8        -5.3170    7.7606   15.4564 H         1 RES1    0.0000
     15 H9        -6.1227    8.0779   14.0960 H         1 RES1    0.0000
     16 C7        -4.3727    6.9549   13.7523 C.3       1 RES1    0.0000
     17 H10       -3.7386    6.4885   14.3681 H         1 RES1    0.0000
     18 C8        -3.5801    8.0226   12.9814 C.3       1 RES1    0.0000
     19 H11       -3.0921    8.5735   13.6592 H         1 RES1    0.0000
     20 C9        -4.5082    8.9753   12.2105 C.3       1 RES1    0.0000
     21 H12       -5.2074    8.4320   11.7666 H         1 RES1    0.0000
     22 H13       -4.9627    9.5617   12.8668 H         1 RES1    0.0000
     23 C10       -3.8196    9.4240    9.9216 C.2       1 RES1    0.0000
     24 C11       -3.0720   10.2272    7.7473 C.3       1 RES1    0.0000
     25 C12       -2.5326   11.5820    7.2867 C.3       1 RES1    0.0000
     26 H14       -3.2067   12.2744    7.4466 H         1 RES1    0.0000
     27 H15       -2.3271   11.5432    6.3272 H         1 RES1    0.0000
     28 H16       -1.7178   11.7970    7.7855 H         1 RES1    0.0000
     29 C13       -2.0319    9.1529    7.5898 C.3       1 RES1    0.0000
     30 H17       -1.2923    9.3218    8.2103 H         1 RES1    0.0000
     31 H18       -1.6940    9.1580    6.6685 H         1 RES1    0.0000
     32 H19       -2.4313    8.2800    7.7855 H         1 RES1    0.0000
     33 C14       -4.3375    9.8944    6.9669 C.3       1 RES1    0.0000
     34 H20       -4.6724    9.0166    7.2461 H         1 RES1    0.0000
     35 H21       -4.1343    9.8758    6.0074 H         1 RES1    0.0000
     36 H22       -5.0193   10.5756    7.1435 H         1 RES1    0.0000
     37 C15       -1.8745    5.8644    9.6018 C.3       1 RES1    0.0000
     38 H23       -1.6662    6.8281    9.5159 H         1 RES1    0.0000
     39 H24       -2.8058    5.7213    9.2987 H         1 RES1    0.0000
     40 C16       -0.9437    5.0717    8.7569 C.ar      1 RES1    0.0000
     41 C17        0.2930    5.5457    8.4108 C.ar      1 RES1    0.0000
     42 H25        0.6019    6.3753    8.7545 H         1 RES1    0.0000
     43 C18        1.1038    4.7931    7.5373 C.ar      1 RES1    0.0000
     44 H26        1.9548    5.1189    7.2700 H         1 RES1    0.0000
     45 C19        0.6411    3.5717    7.0766 C.ar      1 RES1    0.0000
     46 H27        1.1686    3.0545    6.4800 H         1 RES1    0.0000
     47 C20       -0.5330    3.1316    7.4681 C.ar      1 RES1    0.0000
     48 H28       -0.8222    2.2750    7.1745 H         1 RES1    0.0000
     49 C21       -1.3350    3.8485    8.2676 C.ar      1 RES1    0.0000
     50 H29       -2.1895    3.5053    8.4991 H         1 RES1    0.0000
     51 N1        -2.7539    6.1089   11.7100 N.am      1 RES1    0.0000
     52 N2        -3.8821    9.8194   11.2047 N.am      1 RES1    0.0000
     53 H30       -3.5413   10.5958   11.4396 H         1 RES1    0.0000
     54 O1        -1.5319    8.0087   11.7272 O.2       1 RES1    0.0000
     55 O2        -4.1492    8.3229    9.5214 O.2       1 RES1    0.0000
     56 O3        -3.3492   10.4324    9.1500 O.3       1 RES1    0.0000
     57 O4        -1.7458    5.4654   10.9692 O.3       1 RES1    0.0000
     58 C22       -0.6063    3.7581   -0.2339 C.2       2 RES2    0.0000
     59 C23       -1.7673    1.5337   -0.4726 C.3       2 RES2    0.0000
     60 H31       -2.0801    0.9406    0.2578 H         2 RES2    0.0000
     61 H32       -1.3593    0.9676   -1.1743 H         2 RES2    0.0000
     62 C24       -2.9536    2.2825   -1.0573 C.3       2 RES2    0.0000
     63 H33       -3.4856    2.6810   -0.3103 H         2 RES2    0.0000
     64 C25       -3.8861    1.4864   -1.9547 C.3       2 RES2    0.0000
     65 H34       -4.6533    1.1332   -1.4392 H         2 RES2    0.0000
     66 H35       -3.4071    0.7285   -2.3748 H         2 RES2    0.0000
     67 C26       -4.3703    2.5067   -3.0383 C.3       2 RES2    0.0000
     68 H36       -4.1120    2.2004   -3.9429 H         2 RES2    0.0000
     69 H37       -5.3545    2.6072   -3.0049 H         2 RES2    0.0000
     70 C27       -3.6766    3.8418   -2.6994 C.3       2 RES2    0.0000
     71 H38       -3.4482    4.3410   -3.5228 H         2 RES2    0.0000
     72 H39       -4.2552    4.4086   -2.1313 H         2 RES2    0.0000
     73 C28       -2.4157    3.4179   -1.9500 C.3       2 RES2    0.0000
     74 H40       -1.7910    3.0092   -2.6135 H         2 RES2    0.0000
     75 C29       -1.6196    4.4272   -1.1265 C.3       2 RES2    0.0000
     76 H41       -1.1080    4.9905   -1.7757 H         2 RES2    0.0000
     77 C30       -2.5589    5.3721   -0.3556 C.3       2 RES2    0.0000
     78 H42       -3.0153    5.9542   -1.0144 H         2 RES2    0.0000
     79 H43       -3.2555    4.8232    0.0835 H         2 RES2    0.0000
     80 C31       -1.8431    5.7901    1.9070 C.2       2 RES2    0.0000
     81 C32       -0.8854    6.4349    4.0598 C.3       2 RES2    0.0000
     82 C33       -0.2996    7.7524    4.5300 C.3       2 RES2    0.0000
     83 H44        0.5319    7.9322    4.0407 H         2 RES2    0.0000
     84 H45       -0.1113    7.7034    5.4895 H         2 RES2    0.0000
     85 H46       -0.9404    8.4743    4.3582 H         2 RES2    0.0000
     86 C34       -2.0456    6.0325    4.9357 C.3       2 RES2    0.0000
     87 H47       -2.6985    6.7623    4.9715 H         2 RES2    0.0000
     88 H48       -1.7212    5.8414    5.8403 H         2 RES2    0.0000
     89 H49       -2.4715    5.2315    4.5658 H         2 RES2    0.0000
     90 C35        0.2104    5.3919    3.9572 C.3       2 RES2    0.0000
     91 H50       -0.1803    4.5324    3.6947 H         2 RES2    0.0000
     92 H51        0.6539    5.2969    4.8260 H         2 RES2    0.0000
     93 H52        0.8661    5.6724    3.2841 H         2 RES2    0.0000
     94 C36       -0.2458    1.9421    2.2244 C.3       2 RES2    0.0000
     95 H53       -1.0418    1.3683    2.3581 H         2 RES2    0.0000
     96 H54       -0.5018    2.8777    2.4201 H         2 RES2    0.0000
     97 C37        0.8502    1.5101    3.1553 C.ar      2 RES2    0.0000
     98 C38        2.0032    2.2666    3.2627 C.ar      2 RES2    0.0000
     99 H55        2.1250    3.0204    2.6994 H         2 RES2    0.0000
    100 C39        2.9717    1.9370    4.1744 C.ar      2 RES2    0.0000
    101 H56        3.7613    2.4624    4.2364 H         2 RES2    0.0000
    102 C40        2.8028    0.8459    4.9978 C.ar      2 RES2    0.0000
    103 H57        3.4740    0.6270    5.6327 H         2 RES2    0.0000
    104 C41        1.6690    0.0741    4.9071 C.ar      2 RES2    0.0000
    105 H58        1.5603   -0.6859    5.4680 H         2 RES2    0.0000
    106 C42        0.6757    0.4156    3.9811 C.ar      2 RES2    0.0000
    107 H59       -0.1175   -0.1030    3.9190 H         2 RES2    0.0000
    108 N3        -0.7688    2.4500    0.0473 N.am      2 RES2    0.0000
    109 N4        -1.9587    6.2177    0.6447 N.am      2 RES2    0.0000
    110 H60       -1.6668    7.0173    0.4248 H         2 RES2    0.0000
    111 O5         0.3515    4.3976    0.2341 O.2       2 RES2    0.0000
    112 O6        -2.1596    4.6615    2.2750 O.2       2 RES2    0.0000
    113 O7        -1.3537    6.7554    2.7027 O.3       2 RES2    0.0000
    114 O8         0.2048    1.8381    0.8528 O.3       2 RES2    0.0000
@<TRIPOS>BOND
     1    1   18 1
     2    2    3 1
     3    4    2 1
     4    5    2 1
     5    6    5 1
     6    7    5 1
     7    8    7 1
     8    9    7 1
     9   10    7 1
    10   11   10 1
    11   12   10 1
    12   13   10 1
    13   14   13 1
    14   15   13 1
    15   16    5 1
    16   17   16 1
    17   18   16 1
    18   19   18 1
    19   20   18 1
    20   21   20 1
    21   22   20 1
    22   23   52 1
    23   24   25 1
    24   25   26 1
    25   27   25 1
    26   28   25 1
    27   29   24 1
    28   30   29 1
    29   31   29 1
    30   32   29 1
    31   33   24 1
    32   34   33 1
    33   35   33 1
    34   36   33 1
    35   37   38 1
    36   39   37 1
    37   40   37 1
    38   41   40 ar
    39   42   41 1
    40   43   41 ar
    41   44   43 1
    42   45   43 ar
    43   46   45 1
    44   47   45 ar
    45   48   47 1
    46   49   40 ar
    47   50   49 1
    48   51    1 1
    49   52   20 1
    50   53   52 1
    51   54    1 2
    52   55   23 2
    53   56   23 1
    54   57   37 1
    55   58   75 1
    56   59   60 1
    57   61   59 1
    58   62   59 1
    59   63   62 1
    60   64   62 1
    61   65   64 1
    62   66   64 1
    63   67   64 1
    64   68   67 1
    65   69   67 1
    66   70   67 1
    67   71   70 1
    68   72   70 1
    69   73   62 1
    70   74   73 1
    71   75   73 1
    72   76   75 1
    73   77   75 1
    74   78   77 1
    75   79   77 1
    76   80  109 1
    77   81   82 1
    78   82   83 1
    79   84   82 1
    80   85   82 1
    81   86   81 1
    82   87   86 1
    83   88   86 1
    84   89   86 1
    85   90   81 1
    86   91   90 1
    87   92   90 1
    88   93   90 1
    89   94   95 1
    90   96   94 1
    91   97   94 1
    92   98   97 ar
    93   99   98 1
    94  100   98 ar
    95  101  100 1
    96  102  100 ar
    97  103  102 1
    98  104  102 ar
    99  105  104 1
   100  106   97 ar
   101  107  106 1
   102  108   58 1
   103  109   77 1
   104  110  109 1
   105  111   58 2
   106  112   80 2
   107  113   80 1
   108  114   94 1
   109    2   51 1
   110   13   16 1
   111   24   56 1
   112   47   49 ar
   113   51   57 1
   114   59  108 1
   115   70   73 1
   116   81  113 1
   117  104  106 ar
   118  108  114 1
@<TRIPOS>SUBSTRUCTURE
     1 RES1 1
     2 RES2 58

@<TRIPOS>CRYSIN
   6.1691   13.5581   24.8746 104.3240  96.5970  94.4980   2 1

