# MOL2 file generated by ConQuest
# Please check atom types

@<TRIPOS>MOLECULE
KIFZUX
    94    98     2
SMALL
NO_CHARGES
****
Generated from CSD

@<TRIPOS>ATOM
      1 O1         4.3760   -4.4047   -7.4457 O.2       1 RES1    0.0000
      2 N1         4.4027    0.4875   -2.1712 N.2       1 RES1    0.0000
      3 C1         5.1781    0.3069   -3.1787 C.2       1 RES1    0.0000
      4 O2         2.4455   -4.4380   -6.4916 O.2       1 RES1    0.0000
      5 N2         4.8251    1.4684   -1.2530 N.2       1 RES1    0.0000
      6 C2         4.7506   -0.7625   -4.1262 C.ar      1 RES1    0.0000
      7 O3         5.5383    5.1658    3.8879 O.3       1 RES1    0.0000
      8 N3         3.5717   -3.9688   -6.6349 N.pl3     1 RES1    0.0000
      9 C3         5.6215   -1.2829   -5.0810 C.ar      1 RES1    0.0000
     10 H1         6.4911   -0.9103   -5.1680 H         1 RES1    0.0000
     11 C4         5.2483   -2.3321   -5.9070 C.ar      1 RES1    0.0000
     12 H2         5.8545   -2.6886   -6.5458 H         1 RES1    0.0000
     13 C5         3.9728   -2.8460   -5.7777 C.ar      1 RES1    0.0000
     14 C6         3.0776   -2.3494   -4.8566 C.ar      1 RES1    0.0000
     15 H3         2.2050   -2.7185   -4.7869 H         1 RES1    0.0000
     16 C7         3.4622   -1.3120   -4.0386 C.ar      1 RES1    0.0000
     17 H4         2.8465   -0.9625   -3.4051 H         1 RES1    0.0000
     18 C8         6.4571    1.0328   -3.4535 C.3       1 RES1    0.0000
     19 H5         6.5680    1.7570   -2.8027 H         1 RES1    0.0000
     20 H6         6.4319    1.4079   -4.3585 H         1 RES1    0.0000
     21 H7         7.2092    0.4089   -3.3793 H         1 RES1    0.0000
     22 C9         4.1151    1.4791   -0.1755 C.2       1 RES1    0.0000
     23 C10        4.4872    2.4808    0.8624 C.ar      1 RES1    0.0000
     24 C11        3.5904    2.8552    1.8552 C.ar      1 RES1    0.0000
     25 H8         2.7260    2.4613    1.8698 H         1 RES1    0.0000
     26 C12        3.9243    3.7907    2.8279 C.ar      1 RES1    0.0000
     27 H9         3.2902    4.0480    3.4869 H         1 RES1    0.0000
     28 C13        5.1893    4.3398    2.8221 C.ar      1 RES1    0.0000
     29 C14        6.1138    3.9839    1.8529 C.ar      1 RES1    0.0000
     30 H10        6.9814    4.3709    1.8557 H         1 RES1    0.0000
     31 C15        5.7671    3.0636    0.8824 C.ar      1 RES1    0.0000
     32 H11        6.4024    2.8209    0.2191 H         1 RES1    0.0000
     33 C16        2.9593    0.5691    0.0982 C.3       1 RES1    0.0000
     34 H12        2.9284   -0.1339   -0.5839 H         1 RES1    0.0000
     35 H13        2.1256    1.0837    0.0749 H         1 RES1    0.0000
     36 H14        3.0669    0.1613    0.9828 H         1 RES1    0.0000
     37 C17        5.8318    6.4954    3.6832 C.ar      1 RES1    0.0000
     38 C18        5.6461    7.1611    2.4813 C.ar      1 RES1    0.0000
     39 H15        5.3065    6.7058    1.7197 H         1 RES1    0.0000
     40 C19        5.9710    8.5175    2.4185 C.ar      1 RES1    0.0000
     41 H16        5.8609    8.9859    1.5993 H         1 RES1    0.0000
     42 C20        6.4491    9.1909    3.5246 C.ar      1 RES1    0.0000
     43 H17        6.6682   10.1134    3.4653 H         1 RES1    0.0000
     44 C21        6.6068    8.5141    4.7184 C.ar      1 RES1    0.0000
     45 H18        6.9265    8.9743    5.4855 H         1 RES1    0.0000
     46 C22        6.2998    7.1663    4.7995 C.ar      1 RES1    0.0000
     47 H19        6.4103    6.7023    5.6210 H         1 RES1    0.0000
     48 O4         1.6993   11.3512    7.2418 O.2       2 RES2    0.0000
     49 N4         1.1115    6.2526    2.2418 N.2       2 RES2    0.0000
     50 C23        0.3344    6.5986    3.2018 C.2       2 RES2    0.0000
     51 O5         3.6796   10.9424    6.4980 O.2       2 RES2    0.0000
     52 N5         0.5781    5.3167    1.3415 N.2       2 RES2    0.0000
     53 C24        0.8955    7.6178    4.1270 C.ar      2 RES2    0.0000
     54 O6        -0.6354    1.5656   -3.6275 O.3       2 RES2    0.0000
     55 N6         2.4757   10.7110    6.5479 N.pl3     2 RES2    0.0000
     56 C25        0.0813    8.3250    5.0143 C.ar      2 RES2    0.0000
     57 H20       -0.8423    8.1099    5.0720 H         2 RES2    0.0000
     58 C26        0.5939    9.3317    5.8098 C.ar      2 RES2    0.0000
     59 H21        0.0305    9.8138    6.4036 H         2 RES2    0.0000
     60 C27        1.9419    9.6242    5.7249 C.ar      2 RES2    0.0000
     61 C28        2.7868    8.9346    4.8748 C.ar      2 RES2    0.0000
     62 H22        3.7129    9.1434    4.8378 H         2 RES2    0.0000
     63 C29        2.2583    7.9381    4.0815 C.ar      2 RES2    0.0000
     64 H23        2.8297    7.4592    3.4926 H         2 RES2    0.0000
     65 C30       -1.0633    6.1009    3.4344 C.3       2 RES2    0.0000
     66 H24       -1.2651    5.3842    2.7972 H         2 RES2    0.0000
     67 H25       -1.6975    6.8374    3.3094 H         2 RES2    0.0000
     68 H26       -1.1392    5.7559    4.3486 H         2 RES2    0.0000
     69 C31        1.3231    5.1406    0.3018 C.2       2 RES2    0.0000
     70 C32        0.8278    4.1691   -0.7037 C.ar      2 RES2    0.0000
     71 C33        1.6820    3.5789   -1.6295 C.ar      2 RES2    0.0000
     72 H27        2.6059    3.7993   -1.6111 H         2 RES2    0.0000
     73 C34        1.2225    2.6762   -2.5805 C.ar      2 RES2    0.0000
     74 H28        1.8236    2.2759   -3.1977 H         2 RES2    0.0000
     75 C35       -0.1244    2.3714   -2.6120 C.ar      2 RES2    0.0000
     76 C36       -1.0038    2.9382   -1.7090 C.ar      2 RES2    0.0000
     77 H29       -1.9277    2.7188   -1.7384 H         2 RES2    0.0000
     78 C37       -0.5298    3.8253   -0.7646 C.ar      2 RES2    0.0000
     79 H30       -1.1358    4.2110   -0.1429 H         2 RES2    0.0000
     80 C38        2.6201    5.8550    0.0417 C.3       2 RES2    0.0000
     81 H31        2.7210    6.5916    0.6802 H         2 RES2    0.0000
     82 H32        2.6194    6.2116   -0.8710 H         2 RES2    0.0000
     83 H33        3.3654    5.2274    0.1467 H         2 RES2    0.0000
     84 C39       -0.4789    0.1991   -3.5416 C.ar      2 RES2    0.0000
     85 C40       -0.0032   -0.4603   -2.4194 C.ar      2 RES2    0.0000
     86 H34        0.2787    0.0259   -1.6535 H         2 RES2    0.0000
     87 C41        0.0526   -1.8551   -2.4399 C.ar      2 RES2    0.0000
     88 H35        0.3765   -2.3222   -1.6787 H         2 RES2    0.0000
     89 C42       -0.3556   -2.5635   -3.5487 C.ar      2 RES2    0.0000
     90 H36       -0.3233   -3.5130   -3.5468 H         2 RES2    0.0000
     91 C43       -0.8112   -1.8887   -4.6611 C.ar      2 RES2    0.0000
     92 H37       -1.0845   -2.3750   -5.4300 H         2 RES2    0.0000
     93 C44       -0.8722   -0.5106   -4.6632 C.ar      2 RES2    0.0000
     94 H38       -1.1835   -0.0493   -5.4332 H         2 RES2    0.0000
@<TRIPOS>BOND
     1    1    8 2
     2    2    3 2
     3    3    6 1
     4    4    8 2
     5    5    2 1
     6    6    9 ar
     7    7   28 1
     8    8   13 1
     9    9   10 1
    10   11    9 ar
    11   12   11 1
    12   13   11 ar
    13   14   13 ar
    14   15   14 1
    15   16    6 ar
    16   17   16 1
    17   18    3 1
    18   19   18 1
    19   20   18 1
    20   21   18 1
    21   22    5 2
    22   23   22 1
    23   24   23 ar
    24   25   24 1
    25   26   24 ar
    26   27   26 1
    27   28   26 ar
    28   29   28 ar
    29   30   29 1
    30   31   23 ar
    31   32   31 1
    32   33   22 1
    33   34   33 1
    34   35   33 1
    35   36   33 1
    36   37    7 1
    37   38   37 ar
    38   39   38 1
    39   40   38 ar
    40   41   40 1
    41   42   40 ar
    42   43   42 1
    43   44   42 ar
    44   45   44 1
    45   46   37 ar
    46   47   46 1
    47   48   55 2
    48   49   50 2
    49   50   53 1
    50   51   55 2
    51   52   49 1
    52   53   56 ar
    53   54   75 1
    54   55   60 1
    55   56   57 1
    56   58   56 ar
    57   59   58 1
    58   60   58 ar
    59   61   60 ar
    60   62   61 1
    61   63   53 ar
    62   64   63 1
    63   65   50 1
    64   66   65 1
    65   67   65 1
    66   68   65 1
    67   69   52 2
    68   70   69 1
    69   71   70 ar
    70   72   71 1
    71   73   71 ar
    72   74   73 1
    73   75   73 ar
    74   76   75 ar
    75   77   76 1
    76   78   70 ar
    77   79   78 1
    78   80   69 1
    79   81   80 1
    80   82   80 1
    81   83   80 1
    82   84   54 1
    83   85   84 ar
    84   86   85 1
    85   87   85 ar
    86   88   87 1
    87   89   87 ar
    88   90   89 1
    89   91   89 ar
    90   92   91 1
    91   93   84 ar
    92   94   93 1
    93   14   16 ar
    94   29   31 ar
    95   44   46 ar
    96   61   63 ar
    97   76   78 ar
    98   91   93 ar
@<TRIPOS>SUBSTRUCTURE
     1 RES1 1
     2 RES2 48

@<TRIPOS>CRYSIN
  10.5125   13.4900   13.7490  78.6690  75.5280  86.6420   2 1

