# MOL2 file generated by ConQuest
# Please check atom types

@<TRIPOS>MOLECULE
KIHBUA
    78    66     3
SMALL
NO_CHARGES
****
Generated from CSD

@<TRIPOS>ATOM
      1 C1        24.3093    6.9044    9.6467 C.2       1 RES1    0.0000
      2 C2        24.0738    8.1832   10.3612 C.2       1 RES1    0.0000
      3 C3        22.8262    8.5530   10.6665 C.2       1 RES1    0.0000
      4 C4        21.6175    7.7025   10.4533 C.3       1 RES1    0.0000
      5 C5        21.9849    6.2561   10.3739 C.3       1 RES1    0.0000
      6 C6        23.0722    6.0856    9.3114 C.3       1 RES1    0.0000
      7 C7        20.8056    5.3493   10.0408 C.2       1 RES1    0.0000
      8 C8        19.9577    5.6109    8.9132 C.1       1 RES1    0.0000
      9 N1        19.2964    5.8509    8.0296 N.1       1 RES1    0.0000
     10 C9        20.5255    4.3413   10.8228 C.2       1 RES1    0.0000
     11 O1        25.4117    6.5951    9.2265 O.2       1 RES1    0.0000
     12 C10       25.2450    9.0525   10.6641 C.ar      1 RES1    0.0000
     13 C11       25.2283   10.3933   10.2769 C.ar      1 RES1    0.0000
     14 C12       26.3025   11.2354   10.5262 C.ar      1 RES1    0.0000
     15 C13       27.4420   10.7518   11.1367 C.ar      1 RES1    0.0000
     16 C14       27.5009    9.4274   11.5241 C.ar      1 RES1    0.0000
     17 C15       26.4039    8.6123   11.3022 C.ar      1 RES1    0.0000
     18 N2        26.4821    7.2405   11.8410 N.pl3     1 RES1    0.0000
     19 O2        27.5813    6.7044   11.9026 O.2       1 RES1    0.0000
     20 O3        25.4460    6.7114   12.2242 O.2       1 RES1    0.0000
     21 H1        22.7010    9.4158   11.0451 H         1 RES1    0.0000
     22 H2        21.0170    7.8314   11.1784 H         1 RES1    0.0000
     23 H3        21.1973    7.9602    9.6419 H         1 RES1    0.0000
     24 H4        22.3412    5.9899   11.2138 H         1 RES1    0.0000
     25 H5        23.3128    5.1687    9.2591 H         1 RES1    0.0000
     26 H6        22.7307    6.3719    8.4732 H         1 RES1    0.0000
     27 H7        21.0782    4.1545   11.5730 H         1 RES1    0.0000
     28 H8        19.7719    3.7941   10.6404 H         1 RES1    0.0000
     29 H9        24.4637   10.7379    9.8325 H         1 RES1    0.0000
     30 H10       26.2537   12.1503   10.2761 H         1 RES1    0.0000
     31 H11       28.1832   11.3276   11.2897 H         1 RES1    0.0000
     32 H12       28.2838    9.0801   11.9373 H         1 RES1    0.0000
     33 C16       21.9066    6.4607    9.5863 Du        3 SUP3    0.0000
     34 C17       23.2599    5.8455    9.8089 Du        3 SUP3    0.0000
     35 H13       21.2975    7.4146   11.2998 Du        3 SUP3    0.0000
     36 H14       20.9514    8.2250   10.0231 Du        3 SUP3    0.0000
     37 H15       21.7945    6.6729    8.6671 Du        3 SUP3    0.0000
     38 H16       23.3056    5.4836   10.6859 Du        3 SUP3    0.0000
     39 H17       23.4055    5.1540    9.1731 Du        3 SUP3    0.0000
     40 C18       23.8544    4.6108   13.9182 C.2       2 RES2    0.0000
     41 C19       23.7320    5.8502   14.7177 C.2       2 RES2    0.0000
     42 C20       24.7428    6.2281   15.5038 C.2       2 RES2    0.0000
     43 C21       25.9890    5.4451   15.7163 C.3       2 RES2    0.0000
     44 C22       25.7837    3.9655   15.4026 C.3       2 RES2    0.0000
     45 C23       25.1630    3.8605   14.0062 C.3       2 RES2    0.0000
     46 C24       27.0944    3.1931   15.4596 C.2       2 RES2    0.0000
     47 C25       27.0144    1.8268   14.9959 C.1       2 RES2    0.0000
     48 N3        26.9299    0.7520   14.6262 N.1       2 RES2    0.0000
     49 C26       28.2430    3.6120   15.9649 C.2       2 RES2    0.0000
     50 O4        22.9986    4.2697   13.1184 O.2       2 RES2    0.0000
     51 C27       22.5406    6.7174   14.5150 C.ar      2 RES2    0.0000
     52 C28       22.7198    8.0613   14.1826 C.ar      2 RES2    0.0000
     53 C29       21.6489    8.9142   13.9817 C.ar      2 RES2    0.0000
     54 C30       20.3595    8.4411   14.0662 C.ar      2 RES2    0.0000
     55 C31       20.1349    7.1082   14.3612 C.ar      2 RES2    0.0000
     56 C32       21.2237    6.2824   14.5929 C.ar      2 RES2    0.0000
     57 N4        20.9310    4.8978   14.9932 N.pl3     2 RES2    0.0000
     58 O5        20.0097    4.3263   14.4260 O.2       2 RES2    0.0000
     59 O6        21.6138    4.3932   15.8710 O.2       2 RES2    0.0000
     60 H18       24.6593    7.0572   15.9597 H         2 RES2    0.0000
     61 H19       26.2576    5.5337   16.6225 H         2 RES2    0.0000
     62 H20       26.6691    5.7884   15.1502 H         2 RES2    0.0000
     63 H21       25.1814    3.5965   16.0373 H         2 RES2    0.0000
     64 H22       25.7680    4.2248   13.3726 H         2 RES2    0.0000
     65 H23       25.0072    2.9452   13.8060 H         2 RES2    0.0000
     66 H24       28.9841    3.0200   16.0154 H         2 RES2    0.0000
     67 H25       28.3273    4.5049   16.2785 H         2 RES2    0.0000
     68 H26       23.6038    8.4002   14.0910 H         2 RES2    0.0000
     69 H27       21.8037    9.8303   13.7841 H         2 RES2    0.0000
     70 H28       19.6273    9.0284   13.9224 H         2 RES2    0.0000
     71 H29       19.2501    6.7647   14.4047 H         2 RES2    0.0000
     72 C33       26.1516    4.2402   14.7336 Du        3 SUP3    0.0000
     73 C34       24.7995    3.5857   14.5717 Du        3 SUP3    0.0000
     74 H30       26.7308    6.0261   15.6022 Du        3 SUP3    0.0000
     75 H31       25.9835    5.1092   16.6057 Du        3 SUP3    0.0000
     76 H32       26.5107    4.5150   13.8988 Du        3 SUP3    0.0000
     77 H33       24.4589    3.3287   15.4200 Du        3 SUP3    0.0000
     78 H34       24.8735    2.8186   14.0168 Du        3 SUP3    0.0000
@<TRIPOS>BOND
     1    1    2 1
     2    2    3 2
     3    3    4 1
     4    4    5 1
     5    5    6 1
     6    6    1 1
     7    7    5 1
     8    8    7 1
     9    9    8 3
    10   10    7 2
    11   11    1 2
    12   12    2 1
    13   13   12 ar
    14   14   13 ar
    15   15   14 ar
    16   16   15 ar
    17   17   12 ar
    18   18   17 1
    19   19   18 2
    20   20   18 2
    21   21    3 1
    22   22    4 1
    23   23    4 1
    24   24    5 1
    25   25    6 1
    26   26    6 1
    27   27   10 1
    28   28   10 1
    29   29   13 1
    30   30   14 1
    31   31   15 1
    32   32   16 1
    33   40   41 1
    34   41   42 2
    35   42   43 1
    36   43   44 1
    37   44   45 1
    38   45   40 1
    39   46   44 1
    40   47   46 1
    41   48   47 3
    42   49   46 2
    43   50   40 2
    44   51   41 1
    45   52   51 ar
    46   53   52 ar
    47   54   53 ar
    48   55   54 ar
    49   56   51 ar
    50   57   56 1
    51   58   57 2
    52   59   57 2
    53   60   42 1
    54   61   43 1
    55   62   43 1
    56   63   44 1
    57   64   45 1
    58   65   45 1
    59   66   49 1
    60   67   49 1
    61   68   52 1
    62   69   53 1
    63   70   54 1
    64   71   55 1
    65   16   17 ar
    66   55   56 ar
@<TRIPOS>SUBSTRUCTURE
     1 RES1 1
     2 RES2 40
     3 SUP3 33

@<TRIPOS>CRYSIN
  40.6397    7.7179   17.0144  90.0000  97.5888  90.0000  15 1

