# MOL2 file generated by ConQuest
# Please check atom types

@<TRIPOS>MOLECULE
KIHSEB
    67    67     2
SMALL
NO_CHARGES
****
Generated from CSD

@<TRIPOS>ATOM
      1 N1         5.0509    7.3407   20.7821 N.3       1 RES1    0.0000
      2 C1         3.3659    5.7771   21.0894 C.3       1 RES1    0.0000
      3 H1         3.9777    5.0119   21.0835 H         1 RES1    0.0000
      4 C2         3.1649    6.3247   19.6704 C.3       1 RES1    0.0000
      5 H2         2.3959    6.9323   19.6648 H         1 RES1    0.0000
      6 C3         4.0137    6.9865   21.7646 C.3       1 RES1    0.0000
      7 H3         3.3562    7.7130   21.7950 H         1 RES1    0.0000
      8 C4         4.4639    7.1385   19.4081 C.3       1 RES1    0.0000
      9 C5         5.4190    8.7562   17.7982 C.3       1 RES1    0.0000
     10 H4         5.0647    8.6972   16.8980 H         1 RES1    0.0000
     11 H5         5.8529    9.6171   17.9049 H         1 RES1    0.0000
     12 C6         1.9154    4.0763   22.1676 C.3       1 RES1    0.0000
     13 C7         5.5053    6.4684   18.5052 C.3       1 RES1    0.0000
     14 H6         6.0099    5.8009   18.9949 H         1 RES1    0.0000
     15 H7         5.0816    6.0463   17.7405 H         1 RES1    0.0000
     16 C8         4.2906    8.5835   18.8379 C.3       1 RES1    0.0000
     17 H8         3.4097    8.6937   18.4229 H         1 RES1    0.0000
     18 C9         2.9372    3.6522   23.2112 C.3       1 RES1    0.0000
     19 H9         3.8110    3.6350   22.8143 H         1 RES1    0.0000
     20 H10        2.7169    2.7771   23.5383 H         1 RES1    0.0000
     21 H11        2.9282    4.2767   23.9397 H         1 RES1    0.0000
     22 C10        1.8643    5.4146   17.7782 C.3       1 RES1    0.0000
     23 C11        6.4078    7.6200   18.0626 C.3       1 RES1    0.0000
     24 H12        6.8989    7.3904   17.2579 H         1 RES1    0.0000
     25 H13        7.0371    7.8591   18.7599 H         1 RES1    0.0000
     26 C12        4.6007    6.8095   23.1569 C.3       1 RES1    0.0000
     27 H14        4.8471    7.6827   23.4987 H         1 RES1    0.0000
     28 H15        3.9100    6.4531   23.7380 H         1 RES1    0.0000
     29 C13        4.4213    9.4494   20.0721 C.3       1 RES1    0.0000
     30 H16        4.7481   10.3335   19.8416 H         1 RES1    0.0000
     31 H17        3.5676    9.5387   20.5239 H         1 RES1    0.0000
     32 C14        5.8149    5.9014   23.2408 C.3       1 RES1    0.0000
     33 H18        6.5600    6.3245   22.7852 H         1 RES1    0.0000
     34 H19        5.6211    5.0680   22.7831 H         1 RES1    0.0000
     35 C15        1.9260    3.1008   21.0020 C.3       1 RES1    0.0000
     36 H20        1.2421    3.3452   20.3742 H         1 RES1    0.0000
     37 H21        1.7610    2.2126   21.3269 H         1 RES1    0.0000
     38 H22        2.7820    3.1289   20.5697 H         1 RES1    0.0000
     39 C16        1.8669    4.0613   17.0798 C.3       1 RES1    0.0000
     40 H23        2.7339    3.8992   16.7004 H         1 RES1    0.0000
     41 H24        1.2064    4.0593   16.3821 H         1 RES1    0.0000
     42 H25        1.6621    3.3720   17.7156 H         1 RES1    0.0000
     43 C17        0.5256    5.6418   18.4605 C.3       1 RES1    0.0000
     44 H26        0.4030    4.9862   19.1510 H         1 RES1    0.0000
     45 H27       -0.1801    5.5624   17.8154 H         1 RES1    0.0000
     46 H28        0.5083    6.5208   18.8472 H         1 RES1    0.0000
     47 C18        6.2206    5.5960   24.6930 C.3       1 RES1    0.0000
     48 H29        7.0380    5.0738   24.6886 H         1 RES1    0.0000
     49 H30        5.5275    5.0575   25.1068 H         1 RES1    0.0000
     50 C19        0.5320    4.1393   22.7981 C.3       1 RES1    0.0000
     51 H31        0.5564    4.7139   23.5674 H         1 RES1    0.0000
     52 H32        0.2622    3.2575   23.0660 H         1 RES1    0.0000
     53 H33       -0.0954    4.4859   22.1590 H         1 RES1    0.0000
     54 C20        6.4423    6.8659   25.5411 C.2       1 RES1    0.0000
     55 H34        5.7094    7.3986   25.7496 H         1 RES1    0.0000
     56 C21        2.1596    6.5263   16.7869 C.3       1 RES1    0.0000
     57 H35        2.1569    7.3706   17.2434 H         1 RES1    0.0000
     58 H36        1.4873    6.5302   16.1013 H         1 RES1    0.0000
     59 H37        3.0210    6.3806   16.3904 H         1 RES1    0.0000
     60 C22        7.6175    7.2175   25.9740 C.2       1 RES1    0.0000
     61 H38        8.3612    6.6962   25.7745 H         1 RES1    0.0000
     62 H39        7.7138    7.9901   26.4839 H         1 RES1    0.0000
     63 O1         2.1415    5.4397   21.7205 O.3       1 RES1    0.0000
     64 O2         2.9372    5.2742   18.7461 O.3       1 RES1    0.0000
     65 O3         5.3726    8.7496   20.9040 O.3       1 RES1    0.0000
     66 C23        6.8578    7.4185   26.0367 Du        2 SUP2    0.0000
     67 C24        7.2591    6.5618   25.0962 Du        2 SUP2    0.0000
@<TRIPOS>BOND
     1    1    6 1
     2    2    3 1
     3    4    2 1
     4    5    4 1
     5    6    2 1
     6    7    6 1
     7    8    1 1
     8    9   10 1
     9   11    9 1
    10   12   18 1
    11   13    8 1
    12   14   13 1
    13   15   13 1
    14   16    8 1
    15   17   16 1
    16   18   19 1
    17   20   18 1
    18   21   18 1
    19   22   39 1
    20   23    9 1
    21   24   23 1
    22   25   23 1
    23   26    6 1
    24   27   26 1
    25   28   26 1
    26   29   16 1
    27   30   29 1
    28   31   29 1
    29   32   26 1
    30   33   32 1
    31   34   32 1
    32   35   12 1
    33   36   35 1
    34   37   35 1
    35   38   35 1
    36   39   40 1
    37   41   39 1
    38   42   39 1
    39   43   22 1
    40   44   43 1
    41   45   43 1
    42   46   43 1
    43   47   32 1
    44   48   47 1
    45   49   47 1
    46   50   12 1
    47   51   50 1
    48   52   50 1
    49   53   50 1
    50   54   47 1
    51   55   54 1
    52   56   22 1
    53   57   56 1
    54   58   56 1
    55   59   56 1
    56   60   54 2
    57   61   60 1
    58   62   60 1
    59   63    2 1
    60   64    4 1
    61   65    1 1
    62    4    8 1
    63    9   16 1
    64   12   63 1
    65   13   23 1
    66   22   64 1
    67   29   65 1
@<TRIPOS>SUBSTRUCTURE
     1 RES1 1
     2 SUP2 66

@<TRIPOS>CRYSIN
   8.9167   11.6882   20.8027  90.0000  90.0000  90.0000  19 1

