# MOL2 file generated by ConQuest
# Please check atom types

@<TRIPOS>MOLECULE
KIHXEG
    60    65     1
SMALL
NO_CHARGES
****
Generated from CSD

@<TRIPOS>ATOM
      1 O1         1.1244    5.1880    5.7031 O.2       1 RES1    0.0000
      2 N1         2.2097    4.5354    5.5954 N.pl3     1 RES1    0.0000
      3 N2         2.5833    3.5160    8.7027 N.ar      1 RES1    0.0000
      4 C1         2.7726    4.5717    7.9349 C.ar      1 RES1    0.0000
      5 C2         4.1297    3.4788    5.8953 C.2       1 RES1    0.0000
      6 C3         2.1552    3.7580    9.9663 C.ar      1 RES1    0.0000
      7 C4         5.3604    3.0279    6.5588 C.ar      1 RES1    0.0000
      8 N3         1.9454    4.9805   10.4579 N.ar      1 RES1    0.0000
      9 N4         2.1700    6.0425    9.6777 N.ar      1 RES1    0.0000
     10 C5         3.0817    4.2550    6.5290 C.2       1 RES1    0.0000
     11 C6         2.5864    5.8847    8.4129 C.ar      1 RES1    0.0000
     12 N5         3.8981    3.2759    4.6274 N.2       1 RES1    0.0000
     13 C7         1.9573    8.1811    7.7699 C.ar      1 RES1    0.0000
     14 H1         1.2626    8.1449    8.3868 H         1 RES1    0.0000
     15 C8         5.8189    3.6141    7.7339 C.ar      1 RES1    0.0000
     16 H2         5.3142    4.2811    8.1423 H         1 RES1    0.0000
     17 C9         2.6521    3.9076    4.2914 C.3       1 RES1    0.0000
     18 C10        1.8387    2.6051   10.8138 C.ar      1 RES1    0.0000
     19 C11        2.8015    7.0948    7.6136 C.ar      1 RES1    0.0000
     20 C12        1.8145    0.2363   11.1964 C.ar      1 RES1    0.0000
     21 H3         2.0474   -0.6222   10.9259 H         1 RES1    0.0000
     22 C13        7.3210    1.6465    6.5522 C.ar      1 RES1    0.0000
     23 H4         7.8290    0.9776    6.1524 H         1 RES1    0.0000
     24 C14        2.1714    1.3187   10.4248 C.ar      1 RES1    0.0000
     25 H5         2.6407    1.1844    9.6329 H         1 RES1    0.0000
     26 C15        6.1357    2.0410    5.9762 C.ar      1 RES1    0.0000
     27 H6         5.8523    1.6398    5.1868 H         1 RES1    0.0000
     28 C16        2.1460    9.3178    7.0104 C.ar      1 RES1    0.0000
     29 H7         1.5765   10.0458    7.1180 H         1 RES1    0.0000
     30 C17        4.0206    8.3250    5.9567 C.ar      1 RES1    0.0000
     31 H8         4.7243    8.3793    5.3513 H         1 RES1    0.0000
     32 C18        2.8258    5.0034    3.2559 C.3       1 RES1    0.0000
     33 H9         3.5600    5.5798    3.5182 H         1 RES1    0.0000
     34 H10        2.0198    5.5427    3.2195 H         1 RES1    0.0000
     35 C19        3.8400    7.1882    6.7025 C.ar      1 RES1    0.0000
     36 H11        4.4224    6.4717    6.5944 H         1 RES1    0.0000
     37 C20        1.5836    2.9033    3.8775 C.3       1 RES1    0.0000
     38 H12        1.5558    2.1772    4.5200 H         1 RES1    0.0000
     39 H13        0.7158    3.3359    3.8758 H         1 RES1    0.0000
     40 C21        7.0124    3.2196    8.3009 C.ar      1 RES1    0.0000
     41 H14        7.3132    3.6217    9.0838 H         1 RES1    0.0000
     42 C22        1.1201    0.4183   12.3547 C.ar      1 RES1    0.0000
     43 H15        0.8676   -0.3144   12.8690 H         1 RES1    0.0000
     44 C23        1.1572    2.7794   12.0000 C.ar      1 RES1    0.0000
     45 H16        0.9418    3.6370   12.2882 H         1 RES1    0.0000
     46 C24        2.0206    3.4674    1.4657 C.3       1 RES1    0.0000
     47 H17        2.2336    3.0891    0.5989 H         1 RES1    0.0000
     48 H18        1.1798    3.9457    1.3865 H         1 RES1    0.0000
     49 C25        3.1587    9.3807    6.1065 C.ar      1 RES1    0.0000
     50 H19        3.2685   10.1439    5.5866 H         1 RES1    0.0000
     51 C26        3.1064    4.4231    1.8786 C.3       1 RES1    0.0000
     52 H20        3.1668    5.1425    1.2311 H         1 RES1    0.0000
     53 H21        3.9585    3.9581    1.8919 H         1 RES1    0.0000
     54 C27        1.8757    2.3440    2.4917 C.3       1 RES1    0.0000
     55 H22        1.1539    1.7532    2.2238 H         1 RES1    0.0000
     56 H23        2.6942    1.8247    2.5195 H         1 RES1    0.0000
     57 C28        0.7948    1.6932   12.7600 C.ar      1 RES1    0.0000
     58 H24        0.3260    1.8199   13.5540 H         1 RES1    0.0000
     59 C29        7.7550    2.2277    7.7030 C.ar      1 RES1    0.0000
     60 H25        8.5568    1.9533    8.0865 H         1 RES1    0.0000
@<TRIPOS>BOND
     1    1    2 1
     2    2   10 2
     3    3    4 ar
     4    4   10 1
     5    5    7 1
     6    6    3 ar
     7    7   15 ar
     8    8    6 ar
     9    9    8 ar
    10   10    5 1
    11   11    4 ar
    12   12    5 2
    13   13   14 1
    14   15   16 1
    15   17    2 1
    16   18    6 1
    17   19   11 1
    18   20   21 1
    19   22   23 1
    20   24   18 ar
    21   25   24 1
    22   26    7 ar
    23   27   26 1
    24   28   13 ar
    25   29   28 1
    26   30   31 1
    27   32   17 1
    28   33   32 1
    29   34   32 1
    30   35   19 ar
    31   36   35 1
    32   37   17 1
    33   38   37 1
    34   39   37 1
    35   40   15 ar
    36   41   40 1
    37   42   20 ar
    38   43   42 1
    39   44   18 ar
    40   45   44 1
    41   46   47 1
    42   48   46 1
    43   49   28 ar
    44   50   49 1
    45   51   32 1
    46   52   51 1
    47   53   51 1
    48   54   37 1
    49   55   54 1
    50   56   54 1
    51   57   42 ar
    52   58   57 1
    53   59   22 ar
    54   60   59 1
    55    9   11 ar
    56   12   17 1
    57   13   19 ar
    58   20   24 ar
    59   22   26 ar
    60   30   35 ar
    61   30   49 ar
    62   40   59 ar
    63   44   57 ar
    64   46   51 1
    65   46   54 1
@<TRIPOS>SUBSTRUCTURE
     1 RES1 1

@<TRIPOS>CRYSIN
  17.2482    9.5284   15.0868  90.0000  90.0000  90.0000  33 1

