# MOL2 file generated by ConQuest
# Please check atom types

@<TRIPOS>MOLECULE
KIJCUE
    22    22     1
SMALL
NO_CHARGES
****
Generated from CSD

@<TRIPOS>ATOM
      1 N1        -1.7550    5.7541    8.5187 N.pl3     1 RES1    0.0000
      2 O1        -4.5162    6.4139   10.5792 O.2       1 RES1    0.0000
      3 N2        -2.3320    4.2978   10.3912 N.pl3     1 RES1    0.0000
      4 O2        -1.5379    6.8580    8.0543 O.2       1 RES1    0.0000
      5 O3        -4.2920    5.8005    8.5102 O.2       1 RES1    0.0000
      6 N3        -1.4664    8.8544   11.8818 N.pl3     1 RES1    0.0000
      7 N4        -0.1903    9.0893   12.2273 N.2       1 RES1    0.0000
      8 N5        -3.8728    6.0183    9.6339 N.pl3     1 RES1    0.0000
      9 O4        -1.5394    4.6818    7.9926 O.2       1 RES1    0.0000
     10 N6        -0.2321    9.7027   13.3628 N.2       1 RES1    0.0000
     11 O5        -1.2344    3.9272   10.7548 O.2       1 RES1    0.0000
     12 O6        -3.3586    3.6521   10.3913 O.2       1 RES1    0.0000
     13 N7        -1.5125    9.8819   13.7789 N.2       1 RES1    0.0000
     14 C1        -1.7973    8.1537   10.6421 C.3       1 RES1    0.0000
     15 C2        -1.7664    6.6511   10.9187 C.3       1 RES1    0.0000
     16 C3        -2.2452    9.3481   12.8364 C.2       1 RES1    0.0000
     17 C4        -2.3950    5.7502    9.8990 C.3       1 RES1    0.0000
     18 H1        -2.2234    6.4432   11.7029 H         1 RES1    0.0000
     19 H2        -0.8984    6.3660   10.9922 H         1 RES1    0.0000
     20 H3        -2.6655    8.4287   10.3921 H         1 RES1    0.0000
     21 H4        -1.1483    8.4287   10.0012 H         1 RES1    0.0000
     22 H5        -3.1511    9.2940   12.7936 H         1 RES1    0.0000
@<TRIPOS>BOND
     1    1    4 2
     2    2    8 2
     3    3   11 2
     4    5    8 2
     5    6    7 1
     6    7   10 2
     7    8   17 1
     8    9    1 2
     9   10   13 1
    10   12    3 2
    11   13   16 2
    12   14    6 1
    13   15   14 1
    14   16    6 1
    15   17    1 1
    16   18   15 1
    17   19   15 1
    18   20   14 1
    19   21   14 1
    20   22   16 1
    21    3   17 1
    22   15   17 1
@<TRIPOS>SUBSTRUCTURE
     1 RES1 1

@<TRIPOS>CRYSIN
  11.0691    7.7257   12.0300  90.0000 114.4570  90.0000  14 1

