# MOL2 file generated by ConQuest
# Please check atom types

@<TRIPOS>MOLECULE
KIJFUG
    92    97     1
SMALL
USER_CHARGES
****
Generated from CSD

@<TRIPOS>ATOM
      1 N1         5.0051   13.8003   18.5619 N.pl3     1 RES1    1.0000
      2 N2         5.0109   11.7290   19.2568 N.pl3     1 RES1    0.0000
      3 O1         5.3980   14.9121   18.0520 O.2       1 RES1   -1.0000
      4 O2         5.3801   10.5269   19.5016 O.2       1 RES1    0.0000
      5 O3        13.1241   12.5997   16.1429 O.3       1 RES1    0.0000
      6 C1         3.6986   13.6731   19.2636 C.3       1 RES1    0.0000
      7 C2         3.5781   12.1378   19.4128 C.3       1 RES1    0.0000
      8 C3         5.7590   12.7037   18.7055 C.2       1 RES1    0.0000
      9 C4         7.1659   12.5787   18.3712 C.ar      1 RES1    0.0000
     10 C5         7.7045   13.1723   17.2516 C.ar      1 RES1    0.0000
     11 H1         7.1546   13.6690   16.6894 H         1 RES1    0.0000
     12 C6         9.0626   13.0415   16.9437 C.ar      1 RES1    0.0000
     13 C7         9.6263   13.5891   15.7541 C.ar      1 RES1    0.0000
     14 H2         9.0822   14.0545   15.1614 H         1 RES1    0.0000
     15 C8        10.9407   13.4415   15.4751 C.ar      1 RES1    0.0000
     16 H3        11.2926   13.8083   14.6969 H         1 RES1    0.0000
     17 C9        11.7779   12.7364   16.3563 C.ar      1 RES1    0.0000
     18 C10       11.2903   12.1514   17.5013 C.ar      1 RES1    0.0000
     19 C11        9.9123   12.3029   17.8180 C.ar      1 RES1    0.0000
     20 C12        9.3301   11.7231   18.9702 C.ar      1 RES1    0.0000
     21 H4         9.8701   11.2462   19.5570 H         1 RES1    0.0000
     22 C13        8.0141   11.8429   19.2409 C.ar      1 RES1    0.0000
     23 H5         7.6597   11.4417   20.0018 H         1 RES1    0.0000
     24 C14       13.6141   12.3661   14.8637 C.3       1 RES1    0.0000
     25 H6        13.6465   13.1977   14.3651 H         1 RES1    0.0000
     26 H7        13.0316   11.7499   14.3938 H         1 RES1    0.0000
     27 C15       14.9452   11.8033   14.9731 C.3       1 RES1    0.0000
     28 H8        15.5361   12.4520   15.3641 H         1 RES1    0.0000
     29 H9        15.2645   11.5627   14.1015 H         1 RES1    0.0000
     30 H10       14.9170   11.0210   15.5308 H         1 RES1    0.0000
     31 C16        2.8196   11.4403   18.2893 C.3       1 RES1    0.0000
     32 H11        3.1067   11.7921   17.4426 H         1 RES1    0.0000
     33 H12        1.8769   11.5937   18.3967 H         1 RES1    0.0000
     34 H13        2.9955   10.4976   18.3214 H         1 RES1    0.0000
     35 C17        3.0836   11.6556   20.7762 C.3       1 RES1    0.0000
     36 H14        3.0166   10.6974   20.7730 H         1 RES1    0.0000
     37 H15        2.2202   12.0355   20.9559 H         1 RES1    0.0000
     38 H16        3.7018   11.9300   21.4562 H         1 RES1    0.0000
     39 C18        2.6215   14.3556   18.4480 C.3       1 RES1    0.0000
     40 H17        2.7971   15.2983   18.4110 H         1 RES1    0.0000
     41 H18        1.7658   14.2037   18.8576 H         1 RES1    0.0000
     42 H19        2.6184   13.9954   17.5574 H         1 RES1    0.0000
     43 C19        3.8861   14.3922   20.6078 C.3       1 RES1    0.0000
     44 H20        4.5376   13.9237   21.1334 H         1 RES1    0.0000
     45 H21        3.0504   14.4133   21.0796 H         1 RES1    0.0000
     46 H22        4.1872   15.2913   20.4501 H         1 RES1    0.0000
     47 N1F       13.8003    5.0051   17.3061 N.pl3     1 RES1    1.0000
     48 N2F       11.7290    5.0109   16.6112 N.pl3     1 RES1    0.0000
     49 O1F       14.9121    5.3980   17.8160 O.2       1 RES1   -1.0000
     50 O2F       10.5269    5.3801   16.3664 O.2       1 RES1    0.0000
     51 O3F       12.5997   13.1241   19.7251 O.3       1 RES1    0.0000
     52 C1F       13.6731    3.6986   16.6044 C.3       1 RES1    0.0000
     53 C2F       12.1378    3.5781   16.4552 C.3       1 RES1    0.0000
     54 C3F       12.7037    5.7590   17.1625 C.2       1 RES1    0.0000
     55 C4F       12.5787    7.1659   17.4968 C.ar      1 RES1    0.0000
     56 C5F       13.1723    7.7045   18.6164 C.ar      1 RES1    0.0000
     57 H1F       13.6690    7.1546   19.1786 H         1 RES1    0.0000
     58 C6F       13.0415    9.0626   18.9243 C.ar      1 RES1    0.0000
     59 C7F       13.5891    9.6263   20.1139 C.ar      1 RES1    0.0000
     60 H2F       14.0545    9.0822   20.7066 H         1 RES1    0.0000
     61 C8F       13.4415   10.9407   20.3929 C.ar      1 RES1    0.0000
     62 H3F       13.8083   11.2926   21.1711 H         1 RES1    0.0000
     63 C9F       12.7364   11.7779   19.5117 C.ar      1 RES1    0.0000
     64 C10F      12.1514   11.2903   18.3667 C.ar      1 RES1    0.0000
     65 C11F      12.3029    9.9123   18.0500 C.ar      1 RES1    0.0000
     66 C12F      11.7231    9.3301   16.8978 C.ar      1 RES1    0.0000
     67 H4F       11.2462    9.8701   16.3110 H         1 RES1    0.0000
     68 C13F      11.8429    8.0141   16.6271 C.ar      1 RES1    0.0000
     69 H5F       11.4417    7.6597   15.8662 H         1 RES1    0.0000
     70 C14F      12.3661   13.6141   21.0043 C.3       1 RES1    0.0000
     71 H6F       13.1977   13.6465   21.5029 H         1 RES1    0.0000
     72 H7F       11.7499   13.0316   21.4742 H         1 RES1    0.0000
     73 C15F      11.8033   14.9452   20.8949 C.3       1 RES1    0.0000
     74 H8F       12.4520   15.5361   20.5039 H         1 RES1    0.0000
     75 H9F       11.5627   15.2645   21.7665 H         1 RES1    0.0000
     76 H10F      11.0210   14.9170   20.3372 H         1 RES1    0.0000
     77 C16F      11.4403    2.8196   17.5787 C.3       1 RES1    0.0000
     78 H11F      11.7921    3.1067   18.4254 H         1 RES1    0.0000
     79 H12F      11.5937    1.8769   17.4713 H         1 RES1    0.0000
     80 H13F      10.4976    2.9955   17.5466 H         1 RES1    0.0000
     81 C17F      11.6556    3.0836   15.0918 C.3       1 RES1    0.0000
     82 H14F      10.6974    3.0166   15.0950 H         1 RES1    0.0000
     83 H15F      12.0355    2.2202   14.9121 H         1 RES1    0.0000
     84 H16F      11.9300    3.7018   14.4118 H         1 RES1    0.0000
     85 C18F      14.3556    2.6215   17.4200 C.3       1 RES1    0.0000
     86 H17F      15.2983    2.7971   17.4570 H         1 RES1    0.0000
     87 H18F      14.2037    1.7658   17.0104 H         1 RES1    0.0000
     88 H19F      13.9954    2.6184   18.3106 H         1 RES1    0.0000
     89 C19F      14.3922    3.8861   15.2602 C.3       1 RES1    0.0000
     90 H20F      13.9237    4.5376   14.7346 H         1 RES1    0.0000
     91 H21F      14.4133    3.0504   14.7884 H         1 RES1    0.0000
     92 H22F      15.2913    4.1872   15.4179 H         1 RES1    0.0000
@<TRIPOS>BOND
     1    1    3 1
     2    2    4 1
     3    5   17 1
     4    6    1 1
     5    7    2 1
     6    8    1 2
     7    9    8 1
     8   10    9 ar
     9   11   10 1
    10   12   10 ar
    11   13   12 ar
    12   14   13 1
    13   15   13 ar
    14   16   15 1
    15   17   15 ar
    16   18   17 ar
    17   19   12 ar
    18   20   19 ar
    19   21   20 1
    20   22    9 ar
    21   23   22 1
    22   24    5 1
    23   25   24 1
    24   26   24 1
    25   27   24 1
    26   28   27 1
    27   29   27 1
    28   30   27 1
    29   31    7 1
    30   32   31 1
    31   33   31 1
    32   34   31 1
    33   35    7 1
    34   36   35 1
    35   37   35 1
    36   38   35 1
    37   39    6 1
    38   40   39 1
    39   41   39 1
    40   42   39 1
    41   43    6 1
    42   44   43 1
    43   45   43 1
    44   46   43 1
    45   47   49 1
    46   48   50 1
    47   51   63 1
    48   52   47 1
    49   53   48 1
    50   54   47 2
    51   55   54 1
    52   56   55 ar
    53   57   56 1
    54   58   56 ar
    55   59   58 ar
    56   60   59 1
    57   61   59 ar
    58   62   61 1
    59   63   61 ar
    60   64   18 1
    61   65   58 ar
    62   66   65 ar
    63   67   66 1
    64   68   55 ar
    65   69   68 1
    66   70   51 1
    67   71   70 1
    68   72   70 1
    69   73   70 1
    70   74   73 1
    71   75   73 1
    72   76   73 1
    73   77   53 1
    74   78   77 1
    75   79   77 1
    76   80   77 1
    77   81   53 1
    78   82   81 1
    79   83   81 1
    80   84   81 1
    81   85   52 1
    82   86   85 1
    83   87   85 1
    84   88   85 1
    85   89   52 1
    86   90   89 1
    87   91   89 1
    88   92   89 1
    89    2    8 1
    90    6    7 1
    91   18   19 ar
    92   20   22 ar
    93   48   54 1
    94   52   53 1
    95   63   64 ar
    96   64   65 ar
    97   66   68 ar
@<TRIPOS>SUBSTRUCTURE
     1 RES1 1

@<TRIPOS>CRYSIN
  14.0700   14.0700   17.9340  90.0000  90.0000  90.0000  92 1

