# MOL2 file generated by ConQuest
# Please check atom types

@<TRIPOS>MOLECULE
KIJGAN
    70    74     1
SMALL
USER_CHARGES
****
Generated from CSD

@<TRIPOS>ATOM
      1 C1        11.9723   -3.6664    0.5026 C.3       1 RES1    0.0000
      2 H1        11.2293   -4.2775    0.4208 H         1 RES1    0.0000
      3 H2        12.7902   -4.1662    0.5074 H         1 RES1    0.0000
      4 H3        11.9659   -3.0626   -0.2429 H         1 RES1    0.0000
      5 C2        13.0800   -2.0450    1.8252 C.3       1 RES1    0.0000
      6 H4        13.0597   -1.4012    1.1110 H         1 RES1    0.0000
      7 H5        13.8628   -2.5895    1.7411 H         1 RES1    0.0000
      8 H6        13.0994   -1.5815    2.6669 H         1 RES1    0.0000
      9 C3        11.8450   -2.9126    1.7555 C.3       1 RES1    0.0000
     10 C4        11.5440   -3.6737    3.0709 C.3       1 RES1    0.0000
     11 C5        12.6554   -3.7148    4.0641 C.3       1 RES1    0.0000
     12 H7        12.3730   -4.2170    4.8361 H         1 RES1    0.0000
     13 H8        12.8862   -2.8254    4.3262 H         1 RES1    0.0000
     14 H9        13.4188   -4.1456    3.6697 H         1 RES1    0.0000
     15 C6        11.0031   -5.0701    2.8473 C.3       1 RES1    0.0000
     16 H10       11.7240   -5.6666    2.6429 H         1 RES1    0.0000
     17 H11       10.3810   -5.0568    2.1138 H         1 RES1    0.0000
     18 H12       10.5508   -5.3702    3.6409 H         1 RES1    0.0000
     19 C7         9.9379   -1.9627    2.7583 C.2       1 RES1    0.0000
     20 C8         8.8163   -1.0624    2.9964 C.ar      1 RES1    0.0000
     21 C9         7.8453   -1.3625    3.9174 C.ar      1 RES1    0.0000
     22 H13        7.9062   -2.1623    4.3888 H         1 RES1    0.0000
     23 C10        8.7120    0.1440    2.2846 C.ar      1 RES1    0.0000
     24 H14        9.3490    0.3558    1.6401 H         1 RES1    0.0000
     25 C11        7.6837    1.0092    2.5274 C.ar      1 RES1    0.0000
     26 H15        7.6588    1.8199    2.0729 H         1 RES1    0.0000
     27 C12        6.6582    0.7067    3.4485 C.ar      1 RES1    0.0000
     28 C13        6.7542   -0.5022    4.1771 C.ar      1 RES1    0.0000
     29 C14        5.7637   -0.8071    5.1246 C.ar      1 RES1    0.0000
     30 H16        5.8191   -1.5997    5.6104 H         1 RES1    0.0000
     31 C15        4.7354    0.0339    5.3411 C.ar      1 RES1    0.0000
     32 H17        4.0966   -0.1803    5.9807 H         1 RES1    0.0000
     33 C16        4.6108    1.2197    4.6196 C.ar      1 RES1    0.0000
     34 C17        5.5551    1.6045    3.7010 C.ar      1 RES1    0.0000
     35 C18        5.4185    2.8799    2.9675 C.ar      1 RES1    0.0000
     36 C19        6.1597    4.0427    3.3523 C.ar      1 RES1    0.0000
     37 C20        7.0754    4.0161    4.4369 C.ar      1 RES1    0.0000
     38 H18        7.1862    3.2356    4.9274 H         1 RES1    0.0000
     39 C21        7.7816    5.1136    4.7567 C.ar      1 RES1    0.0000
     40 H19        8.4046    5.0773    5.4493 H         1 RES1    0.0000
     41 C22        7.5969    6.3297    4.0425 C.ar      1 RES1    0.0000
     42 H20        8.0760    7.0896    4.2781 H         1 RES1    0.0000
     43 C23        6.7173    6.3757    3.0276 C.ar      1 RES1    0.0000
     44 H21        6.6028    7.1767    2.5683 H         1 RES1    0.0000
     45 C24        5.9659    5.2564    2.6333 C.ar      1 RES1    0.0000
     46 C25        5.0529    5.2504    1.5920 C.ar      1 RES1    0.0000
     47 H22        4.9099    6.0490    1.1399 H         1 RES1    0.0000
     48 C26        4.3588    4.1698    1.1928 C.ar      1 RES1    0.0000
     49 H23        3.7560    4.2230    0.4858 H         1 RES1    0.0000
     50 C27        4.5739    2.9452    1.8830 C.ar      1 RES1    0.0000
     51 C28        3.4246    1.6384    0.1972 C.3       1 RES1    0.0000
     52 H24        2.8182    2.3608   -0.0192 H         1 RES1    0.0000
     53 H25        2.9363    0.8047    0.1299 H         1 RES1    0.0000
     54 C29        4.5692    1.6215   -0.8128 C.3       1 RES1    0.0000
     55 H26        5.0003    2.4830   -0.8152 H         1 RES1    0.0000
     56 H27        4.2148    1.4436   -1.6882 H         1 RES1    0.0000
     57 H28        5.1988    0.9463   -0.5747 H         1 RES1    0.0000
     58 C30        2.2892    1.6505    4.5138 C.3       1 RES1    0.0000
     59 H29        1.9708    1.0334    5.1920 H         1 RES1    0.0000
     60 H30        2.3345    1.1737    3.6721 H         1 RES1    0.0000
     61 C31        1.3662    2.7468    4.3960 C.3       1 RES1    0.0000
     62 H31        1.5369    3.3881    5.0934 H         1 RES1    0.0000
     63 H32        0.4671    2.4225    4.4753 H         1 RES1    0.0000
     64 H33        1.4797    3.1715    3.5399 H         1 RES1    0.0000
     65 N1        10.4170   -2.8884    3.6120 N.pl3     1 RES1    0.0000
     66 N2        10.7077   -1.9941    1.6617 N.pl3     1 RES1    1.0000
     67 O1         3.5816    2.1067    4.8649 O.3       1 RES1    0.0000
     68 O2         3.8945    1.8030    1.5415 O.3       1 RES1    0.0000
     69 O3         9.9268   -3.1606    4.7639 O.2       1 RES1    0.0000
     70 O4        10.5536   -1.2899    0.5940 O.2       1 RES1   -1.0000
@<TRIPOS>BOND
     1    1    2 1
     2    3    1 1
     3    4    1 1
     4    5    6 1
     5    7    5 1
     6    8    5 1
     7    9    1 1
     8   10    9 1
     9   11   10 1
    10   12   11 1
    11   13   11 1
    12   14   11 1
    13   15   10 1
    14   16   15 1
    15   17   15 1
    16   18   15 1
    17   19   20 1
    18   20   21 ar
    19   21   22 1
    20   23   20 ar
    21   24   23 1
    22   25   23 ar
    23   26   25 1
    24   27   25 ar
    25   28   21 ar
    26   29   28 ar
    27   30   29 1
    28   31   29 ar
    29   32   31 1
    30   33   31 ar
    31   34   27 ar
    32   35   34 1
    33   36   35 ar
    34   37   36 ar
    35   38   37 1
    36   39   37 ar
    37   40   39 1
    38   41   39 ar
    39   42   41 1
    40   43   41 ar
    41   44   43 1
    42   45   36 ar
    43   46   45 ar
    44   47   46 1
    45   48   46 ar
    46   49   48 1
    47   50   35 ar
    48   51   52 1
    49   53   51 1
    50   54   51 1
    51   55   54 1
    52   56   54 1
    53   57   54 1
    54   58   59 1
    55   60   58 1
    56   61   58 1
    57   62   61 1
    58   63   61 1
    59   64   61 1
    60   65   10 1
    61   66    9 1
    62   67   33 1
    63   68   50 1
    64   69   65 1
    65   70   66 1
    66    5    9 1
    67   19   65 1
    68   19   66 2
    69   27   28 ar
    70   33   34 ar
    71   43   45 ar
    72   48   50 ar
    73   51   68 1
    74   58   67 1
@<TRIPOS>SUBSTRUCTURE
     1 RES1 1

@<TRIPOS>CRYSIN
   9.2308   12.1004   24.0480  90.0000  90.0000  90.0000  19 1

