# MOL2 file generated by ConQuest
# Please check atom types

@<TRIPOS>MOLECULE
KIJGER
    92    97     1
SMALL
USER_CHARGES
****
Generated from CSD

@<TRIPOS>ATOM
      1 N1         0.2681    9.0792   18.5098 N.pl3     1 RES1    1.0000
      2 N2         2.3436    9.0714   19.2054 N.pl3     1 RES1    0.0000
      3 O1        -0.8451    8.6867   18.0017 O.2       1 RES1   -1.0000
      4 O2         3.5487    8.7024   19.4435 O.2       1 RES1    0.0000
      5 O3         1.4694    0.9455   16.0943 O.3       1 RES1    0.0000
      6 C1         2.2763   -0.8795   14.9252 C.3       1 RES1    0.0000
      7 H1         3.0628   -0.8485   15.4742 H         1 RES1    0.0000
      8 H2         2.5089   -1.1995   14.0507 H         1 RES1    0.0000
      9 H3         1.6322   -1.4715   15.3204 H         1 RES1    0.0000
     10 C2         1.7055    0.4567   14.8168 C.3       1 RES1    0.0000
     11 H4         2.3200    1.0430   14.3475 H         1 RES1    0.0000
     12 H5         0.8753    0.4229   14.3171 H         1 RES1    0.0000
     13 C3         1.3344    2.2900   16.3093 C.ar      1 RES1    0.0000
     14 C4         1.9195    2.7824   17.4533 C.ar      1 RES1    0.0000
     15 C5         1.7672    4.1644   17.7675 C.ar      1 RES1    0.0000
     16 C6         2.3520    4.7459   18.9177 C.ar      1 RES1    0.0000
     17 H6         2.8331    4.2059   19.5032 H         1 RES1    0.0000
     18 C7         2.2291    6.0673   19.1890 C.ar      1 RES1    0.0000
     19 H7         2.6301    6.4231   19.9485 H         1 RES1    0.0000
     20 C8         1.4905    6.9149   18.3185 C.ar      1 RES1    0.0000
     21 C9         0.8991    6.3753   17.2045 C.ar      1 RES1    0.0000
     22 H8         0.4017    6.9249   16.6437 H         1 RES1    0.0000
     23 C10        1.0279    5.0127   16.8926 C.ar      1 RES1    0.0000
     24 C11        0.4792    4.4501   15.7113 C.ar      1 RES1    0.0000
     25 H9         0.0113    4.9953   15.1201 H         1 RES1    0.0000
     26 C12        0.6260    3.1301   15.4275 C.ar      1 RES1    0.0000
     27 H10        0.2579    2.7795   14.6480 H         1 RES1    0.0000
     28 C13        1.3678    8.3265   18.6538 C.2       1 RES1    0.0000
     29 C14        0.3934   10.3873   19.2099 C.3       1 RES1    0.0000
     30 C15        1.9352   10.5095   19.3564 C.3       1 RES1    0.0000
     31 C16        2.4159   11.0048   20.7169 C.3       1 RES1    0.0000
     32 H11        2.1467   10.3824   21.3970 H         1 RES1    0.0000
     33 H12        2.0297   11.8652   20.8999 H         1 RES1    0.0000
     34 H13        3.3729   11.0787   20.7103 H         1 RES1    0.0000
     35 C17        2.6372   11.2680   18.2382 C.3       1 RES1    0.0000
     36 H14        3.5815   11.1026   18.2818 H         1 RES1    0.0000
     37 H15        2.4723   12.2091   18.3372 H         1 RES1    0.0000
     38 H16        2.2989   10.9715   17.3894 H         1 RES1    0.0000
     39 C18       -0.3256   10.2006   20.5479 C.3       1 RES1    0.0000
     40 H17       -1.2220    9.8947   20.3902 H         1 RES1    0.0000
     41 H18       -0.3496   11.0364   21.0179 H         1 RES1    0.0000
     42 H19        0.1452    9.5508   21.0751 H         1 RES1    0.0000
     43 C19       -0.2889   11.4698   18.4005 C.3       1 RES1    0.0000
     44 H20        0.0832   11.4888   17.5146 H         1 RES1    0.0000
     45 H21       -0.1508   12.3204   18.8236 H         1 RES1    0.0000
     46 H22       -1.2291   11.2859   18.3497 H         1 RES1    0.0000
     47 N1F        9.0792    0.2681   17.2562 N.pl3     1 RES1    1.0000
     48 N2F        9.0714    2.3436   16.5606 N.pl3     1 RES1    0.0000
     49 O1F        8.6867   -0.8451   17.7643 O.2       1 RES1   -1.0000
     50 O2F        8.7024    3.5487   16.3225 O.2       1 RES1    0.0000
     51 O3F        0.9455    1.4694   19.6717 O.3       1 RES1    0.0000
     52 C1F       -0.8795    2.2763   20.8408 C.3       1 RES1    0.0000
     53 H1F       -0.8485    3.0628   20.2918 H         1 RES1    0.0000
     54 H2F       -1.1995    2.5089   21.7153 H         1 RES1    0.0000
     55 H3F       -1.4715    1.6322   20.4456 H         1 RES1    0.0000
     56 C2F        0.4567    1.7055   20.9492 C.3       1 RES1    0.0000
     57 H4F        1.0430    2.3200   21.4185 H         1 RES1    0.0000
     58 H5F        0.4229    0.8753   21.4489 H         1 RES1    0.0000
     59 C3F        2.2900    1.3344   19.4567 C.ar      1 RES1    0.0000
     60 C4F        2.7824    1.9195   18.3127 C.ar      1 RES1    0.0000
     61 C5F        4.1644    1.7672   17.9985 C.ar      1 RES1    0.0000
     62 C6F        4.7459    2.3520   16.8483 C.ar      1 RES1    0.0000
     63 H6F        4.2059    2.8331   16.2628 H         1 RES1    0.0000
     64 C7F        6.0673    2.2291   16.5770 C.ar      1 RES1    0.0000
     65 H7F        6.4231    2.6301   15.8175 H         1 RES1    0.0000
     66 C8F        6.9149    1.4905   17.4475 C.ar      1 RES1    0.0000
     67 C9F        6.3753    0.8991   18.5615 C.ar      1 RES1    0.0000
     68 H8F        6.9249    0.4017   19.1223 H         1 RES1    0.0000
     69 C10F       5.0127    1.0279   18.8734 C.ar      1 RES1    0.0000
     70 C11F       4.4501    0.4792   20.0547 C.ar      1 RES1    0.0000
     71 H9F        4.9953    0.0113   20.6459 H         1 RES1    0.0000
     72 C12F       3.1301    0.6260   20.3385 C.ar      1 RES1    0.0000
     73 H10F       2.7795    0.2579   21.1180 H         1 RES1    0.0000
     74 C13F       8.3265    1.3678   17.1122 C.2       1 RES1    0.0000
     75 C14F      10.3873    0.3934   16.5561 C.3       1 RES1    0.0000
     76 C15F      10.5095    1.9352   16.4096 C.3       1 RES1    0.0000
     77 C16F      11.0048    2.4159   15.0491 C.3       1 RES1    0.0000
     78 H11F      10.3824    2.1467   14.3690 H         1 RES1    0.0000
     79 H12F      11.8652    2.0297   14.8661 H         1 RES1    0.0000
     80 H13F      11.0787    3.3729   15.0557 H         1 RES1    0.0000
     81 C17F      11.2680    2.6372   17.5278 C.3       1 RES1    0.0000
     82 H14F      11.1026    3.5815   17.4842 H         1 RES1    0.0000
     83 H15F      12.2091    2.4723   17.4288 H         1 RES1    0.0000
     84 H16F      10.9715    2.2989   18.3766 H         1 RES1    0.0000
     85 C18F      10.2006   -0.3256   15.2181 C.3       1 RES1    0.0000
     86 H17F       9.8947   -1.2220   15.3758 H         1 RES1    0.0000
     87 H18F      11.0364   -0.3496   14.7481 H         1 RES1    0.0000
     88 H19F       9.5508    0.1452   14.6909 H         1 RES1    0.0000
     89 C19F      11.4698   -0.2889   17.3655 C.3       1 RES1    0.0000
     90 H20F      11.4888    0.0832   18.2514 H         1 RES1    0.0000
     91 H21F      12.3204   -0.1508   16.9424 H         1 RES1    0.0000
     92 H22F      11.2859   -1.2291   17.4163 H         1 RES1    0.0000
@<TRIPOS>BOND
     1    1    3 1
     2    2    4 1
     3    5   10 1
     4    6    7 1
     5    8    6 1
     6    9    6 1
     7   10    6 1
     8   11   10 1
     9   12   10 1
    10   13    5 1
    11   14   13 ar
    12   15   14 ar
    13   16   15 ar
    14   17   16 1
    15   18   16 ar
    16   19   18 1
    17   20   18 ar
    18   21   20 ar
    19   22   21 1
    20   23   15 ar
    21   24   23 ar
    22   25   24 1
    23   26   13 ar
    24   27   26 1
    25   28    1 2
    26   29    1 1
    27   30    2 1
    28   31   30 1
    29   32   31 1
    30   33   31 1
    31   34   31 1
    32   35   30 1
    33   36   35 1
    34   37   35 1
    35   38   35 1
    36   39   29 1
    37   40   39 1
    38   41   39 1
    39   42   39 1
    40   43   29 1
    41   44   43 1
    42   45   43 1
    43   46   43 1
    44   47   49 1
    45   48   50 1
    46   51   56 1
    47   52   53 1
    48   54   52 1
    49   55   52 1
    50   56   52 1
    51   57   56 1
    52   58   56 1
    53   59   51 1
    54   60   14 1
    55   61   60 ar
    56   62   61 ar
    57   63   62 1
    58   64   62 ar
    59   65   64 1
    60   66   64 ar
    61   67   66 ar
    62   68   67 1
    63   69   61 ar
    64   70   69 ar
    65   71   70 1
    66   72   59 ar
    67   73   72 1
    68   74   47 2
    69   75   47 1
    70   76   48 1
    71   77   76 1
    72   78   77 1
    73   79   77 1
    74   80   77 1
    75   81   76 1
    76   82   81 1
    77   83   81 1
    78   84   81 1
    79   85   75 1
    80   86   85 1
    81   87   85 1
    82   88   85 1
    83   89   75 1
    84   90   89 1
    85   91   89 1
    86   92   89 1
    87    2   28 1
    88   20   28 1
    89   21   23 ar
    90   24   26 ar
    91   29   30 1
    92   48   74 1
    93   59   60 ar
    94   66   74 1
    95   67   69 ar
    96   70   72 ar
    97   75   76 1
@<TRIPOS>SUBSTRUCTURE
     1 RES1 1

@<TRIPOS>CRYSIN
  14.0950   14.0950   17.8830  90.0000  90.0000  90.0000  96 1

