# MOL2 file generated by ConQuest
# Please check atom types

@<TRIPOS>MOLECULE
KIJNUM
    33    33     1
SMALL
NO_CHARGES
****
Generated from CSD

@<TRIPOS>ATOM
      1 O1         0.0916   17.2493    2.6288 O.2       1 RES1    0.0000
      2 O2        -0.9035   16.7187    4.5014 O.2       1 RES1    0.0000
      3 O3        -0.4090   12.7024    0.8087 O.2       1 RES1    0.0000
      4 O4         1.5259   12.3142    0.0325 O.2       1 RES1    0.0000
      5 O5         1.6591   10.3952    2.3690 O.2       1 RES1    0.0000
      6 O6         2.7098   10.8884    4.2184 O.2       1 RES1    0.0000
      7 O7         0.8435   12.2051    5.7648 O.3       1 RES1    0.0000
      8 O8         2.8663   12.4123    6.8132 O.2       1 RES1    0.0000
      9 O9         1.4266   10.8635    7.3993 O.2       1 RES1    0.0000
     10 O10       -1.5709   13.5563    4.4751 O.2       1 RES1    0.0000
     11 O11       -1.2093   14.3148    6.4838 O.2       1 RES1    0.0000
     12 N1        -0.1367   16.4894    3.5628 N.pl3     1 RES1    0.0000
     13 N2         0.8212   12.7093    0.9495 N.pl3     1 RES1    0.0000
     14 N3         1.8872   11.1191    3.3370 N.pl3     1 RES1    0.0000
     15 N4         1.8489   11.7864    6.7637 N.pl3     1 RES1    0.0000
     16 N5        -0.8677   14.0882    5.3364 N.pl3     1 RES1    0.0000
     17 C1         0.4972   15.1465    3.5643 C.2       1 RES1    0.0000
     18 C2         0.8942   14.6740    2.3953 C.2       1 RES1    0.0000
     19 C3         1.5111   13.3062    2.2175 C.3       1 RES1    0.0000
     20 C4         1.0960   12.4081    3.4004 C.3       1 RES1    0.0000
     21 C5         1.3349   13.0934    4.7488 C.3       1 RES1    0.0000
     22 C6         0.5855   14.4557    4.9112 C.3       1 RES1    0.0000
     23 C7         3.0122   13.4222    1.9700 C.3       1 RES1    0.0000
     24 C8         1.2467   15.2694    6.0184 C.3       1 RES1    0.0000
     25 H1         0.7845   15.2294    1.6190 H         1 RES1    0.0000
     26 H2         0.1551   12.2313    3.3293 H         1 RES1    0.0000
     27 H3         2.2738   13.2813    4.8184 H         1 RES1    0.0000
     28 H4         3.3765   12.5629    1.7443 H         1 RES1    0.0000
     29 H5         3.4458   13.7580    2.7587 H         1 RES1    0.0000
     30 H6         3.1548   14.0315    1.2417 H         1 RES1    0.0000
     31 H7         2.1403   15.5057    5.7586 H         1 RES1    0.0000
     32 H8         1.2761   14.7334    6.8147 H         1 RES1    0.0000
     33 H9         0.7414   16.0680    6.1885 H         1 RES1    0.0000
@<TRIPOS>BOND
     1    1   12 2
     2    2   12 2
     3    3   13 2
     4    4   13 2
     5    5   14 2
     6    6   14 2
     7    7   15 1
     8    8   15 2
     9    9   15 2
    10   10   16 2
    11   11   16 2
    12   12   17 1
    13   13   19 1
    14   14   20 1
    15   16   22 1
    16   17   18 2
    17   18   19 1
    18   19   20 1
    19   20   21 1
    20   21    7 1
    21   22   17 1
    22   23   19 1
    23   24   22 1
    24   25   18 1
    25   26   20 1
    26   27   21 1
    27   28   23 1
    28   29   23 1
    29   30   23 1
    30   31   24 1
    31   32   24 1
    32   33   24 1
    33   21   22 1
@<TRIPOS>SUBSTRUCTURE
     1 RES1 1

@<TRIPOS>CRYSIN
   6.5490   13.8160   15.4670  90.0000  91.2300  90.0000  14 2

