# MOL2 file generated by ConQuest
# Please check atom types

@<TRIPOS>MOLECULE
KIJNOG
    31    31     1
SMALL
NO_CHARGES
****
Generated from CSD

@<TRIPOS>ATOM
      1 O1         0.9312    3.8331    1.9361 O.2       1 RES1    0.0000
      2 O2         2.7413    3.9036    3.1965 O.2       1 RES1    0.0000
      3 O3         3.6389    5.6695    0.9602 O.2       1 RES1    0.0000
      4 O4         3.1145    4.7885   -0.9950 O.2       1 RES1    0.0000
      5 O5         6.2568    4.1768    0.7814 O.3       1 RES1    0.0000
      6 O6         6.6408    5.5759    2.5938 O.2       1 RES1    0.0000
      7 O7         7.7678    5.7811    0.7466 O.2       1 RES1    0.0000
      8 O8         6.0449    1.3504   -0.0933 O.2       1 RES1    0.0000
      9 O9         7.7481    1.1259    1.2638 O.2       1 RES1    0.0000
     10 N1         2.0851    3.5484    2.2273 N.pl3     1 RES1    0.0000
     11 N2         3.5840    4.7474    0.1664 N.pl3     1 RES1    0.0000
     12 N3         6.9020    5.2219    1.4122 N.pl3     1 RES1    0.0000
     13 N4         6.6295    1.4850    0.9703 N.pl3     1 RES1    0.0000
     14 C1         4.6263    1.2568    2.4061 C.2       1 RES1    0.0000
     15 C2         3.3726    1.4119    2.0350 C.2       1 RES1    0.0000
     16 C3         2.8675    2.5250    1.2356 C.3       1 RES1    0.0000
     17 C4         4.0701    3.3958    0.6600 C.3       1 RES1    0.0000
     18 C5         5.2341    3.5240    1.5505 C.3       1 RES1    0.0000
     19 C6         5.7840    2.1955    2.1284 C.3       1 RES1    0.0000
     20 C7         1.9271    2.1070    0.1675 C.3       1 RES1    0.0000
     21 C8         6.6629    2.3673    3.3224 C.3       1 RES1    0.0000
     22 H1         4.8301    0.4629    2.9064 H         1 RES1    0.0000
     23 H2         2.7422    0.7425    2.3105 H         1 RES1    0.0000
     24 H3         4.4011    2.8944   -0.0888 H         1 RES1    0.0000
     25 H4         4.9567    4.0190    2.3251 H         1 RES1    0.0000
     26 H5         1.5284    2.7674   -0.4036 H         1 RES1    0.0000
     27 H6         1.2394    1.6556    0.6622 H         1 RES1    0.0000
     28 H7         2.4085    1.4709   -0.3654 H         1 RES1    0.0000
     29 H8         6.2705    2.9110    4.0094 H         1 RES1    0.0000
     30 H9         7.1980    2.9162    2.7468 H         1 RES1    0.0000
     31 H10        7.2141    1.6915    3.7249 H         1 RES1    0.0000
@<TRIPOS>BOND
     1    1   10 2
     2    2   10 2
     3    3   11 2
     4    4   11 2
     5    5   12 1
     6    6   12 2
     7    7   12 2
     8    8   13 2
     9    9   13 2
    10   10   16 1
    11   11   17 1
    12   13   19 1
    13   14   15 2
    14   15   16 1
    15   16   17 1
    16   17   18 1
    17   18    5 1
    18   19   14 1
    19   20   16 1
    20   21   19 1
    21   22   14 1
    22   23   15 1
    23   24   17 1
    24   25   18 1
    25   26   20 1
    26   27   20 1
    27   28   20 1
    28   29   21 1
    29   30   21 1
    30   31   21 1
    31   18   19 1
@<TRIPOS>SUBSTRUCTURE
     1 RES1 1

@<TRIPOS>CRYSIN
   8.8630   12.8240   11.8260  90.0000 108.0600  90.0000  14 1

