# MOL2 file generated by ConQuest
# Please check atom types

@<TRIPOS>MOLECULE
KIJROM
    48    48     2
SMALL
USER_CHARGES
****
Generated from CSD

@<TRIPOS>ATOM
      1 O1         5.4451    4.2372    0.4772 O.2       1 RES1   -1.0000
      2 N1         6.4090    3.4156    0.4776 N.pl3     1 RES1    1.0000
      3 O2         5.4916    2.5220    2.2327 O.3       1 RES1    0.0000
      4 N2         6.5613    2.4495    1.3111 N.2       1 RES1    0.0000
      5 N3         7.4071    3.5632   -0.4646 N.3       1 RES1    0.0000
      6 H1         7.5046    4.3033   -0.9302 H         1 RES1    0.0000
      7 C1         8.3071    2.3926   -0.6434 C.3       1 RES1    0.0000
      8 H2         9.0092    2.6164   -1.2892 H         1 RES1    0.0000
      9 H3         7.7883    1.6300   -0.9751 H         1 RES1    0.0000
     10 H4         8.7163    2.1602    0.2167 H         1 RES1    0.0000
     11 C2         5.6544    1.4475    3.1518 C.3       1 RES1    0.0000
     12 H5         5.7824    0.6108    2.6389 H         1 RES1    0.0000
     13 H6         4.8201    1.3519    3.6758 H         1 RES1    0.0000
     14 C3         6.8002    1.6026    4.1031 C.ar      1 RES1    0.0000
     15 C4         7.8468    0.6768    4.1552 C.ar      1 RES1    0.0000
     16 H7         7.8510   -0.0644    3.5613 H         1 RES1    0.0000
     17 C5         8.8957    0.8351    5.0836 C.ar      1 RES1    0.0000
     18 H8         9.6117    0.2109    5.1090 H         1 RES1    0.0000
     19 C6         8.8743    1.9053    5.9559 C.ar      1 RES1    0.0000
     20 H9         9.5709    2.0062    6.5933 H         1 RES1    0.0000
     21 C7         7.8314    2.8472    5.9121 C.ar      1 RES1    0.0000
     22 H10        7.8210    3.5798    6.5174 H         1 RES1    0.0000
     23 C8         6.8145    2.6958    4.9740 C.ar      1 RES1    0.0000
     24 H11        6.1206    3.3436    4.9248 H         1 RES1    0.0000
     25 O3         3.6866    3.9270    4.3297 O.2       2 RES2   -1.0000
     26 N4         3.0108    4.6902    3.6142 N.pl3     2 RES2    1.0000
     27 O4         2.4214    5.7314    5.4048 O.3       2 RES2    0.0000
     28 N5         2.2720    5.6815    4.0309 N.2       2 RES2    0.0000
     29 N6         2.9644    4.4364    2.2471 N.3       2 RES2    0.0000
     30 H12        3.1502    3.6426    1.9161 H         2 RES2    0.0000
     31 C9         2.5986    5.5387    1.4095 C.3       2 RES2    0.0000
     32 H13        2.6494    5.2661    0.4690 H         2 RES2    0.0000
     33 H14        3.2131    6.2864    1.5663 H         2 RES2    0.0000
     34 H15        1.6830    5.8189    1.6189 H         2 RES2    0.0000
     35 C10        1.6476    6.9020    5.9177 C.3       2 RES2    0.0000
     36 H16        1.8882    7.7027    5.3876 H         2 RES2    0.0000
     37 H17        1.9090    7.0726    6.8564 H         2 RES2    0.0000
     38 C11        0.1420    6.7018    5.8541 C.ar      2 RES2    0.0000
     39 C12       -0.6761    7.5159    5.1870 C.ar      2 RES2    0.0000
     40 H18       -0.3098    8.2496    4.7066 H         2 RES2    0.0000
     41 C13       -2.0735    7.3168    5.1749 C.ar      2 RES2    0.0000
     42 H19       -2.6405    7.9378    4.7314 H         2 RES2    0.0000
     43 C14       -2.6298    6.1871    5.8273 C.ar      2 RES2    0.0000
     44 H20       -3.5639    6.0218    5.8086 H         2 RES2    0.0000
     45 C15       -1.7472    5.3149    6.5066 C.ar      2 RES2    0.0000
     46 H21       -2.1057    4.5738    6.9802 H         2 RES2    0.0000
     47 C16       -0.3894    5.5065    6.5012 C.ar      2 RES2    0.0000
     48 H22        0.1930    4.8759    6.9090 H         2 RES2    0.0000
@<TRIPOS>BOND
     1    1    2 1
     2    2    4 2
     3    3    4 1
     4    5    2 1
     5    6    5 1
     6    7    5 1
     7    8    7 1
     8    9    7 1
     9   10    7 1
    10   11    3 1
    11   12   11 1
    12   13   11 1
    13   14   11 1
    14   15   14 ar
    15   16   15 1
    16   17   15 ar
    17   18   17 1
    18   19   17 ar
    19   20   19 1
    20   21   19 ar
    21   22   21 1
    22   23   14 ar
    23   24   23 1
    24   25   26 1
    25   26   28 2
    26   27   28 1
    27   29   26 1
    28   30   29 1
    29   31   29 1
    30   32   31 1
    31   33   31 1
    32   34   31 1
    33   35   27 1
    34   36   35 1
    35   37   35 1
    36   38   35 1
    37   39   38 ar
    38   40   39 1
    39   41   39 ar
    40   42   41 1
    41   43   41 ar
    42   44   43 1
    43   45   43 ar
    44   46   45 1
    45   47   38 ar
    46   48   47 1
    47   21   23 ar
    48   45   47 ar
@<TRIPOS>SUBSTRUCTURE
     1 RES1 1
     2 RES2 25

@<TRIPOS>CRYSIN
  22.1220    5.3670   16.7130  90.0000 112.1720  90.0000  14 1

