# MOL2 file generated by ConQuest
# Please check atom types

@<TRIPOS>MOLECULE
KIKCEN
    66    68     2
SMALL
NO_CHARGES
****
Generated from CSD

@<TRIPOS>ATOM
      1 O1         2.9364    2.3026    5.2699 O.2       1 RES1    0.0000
      2 O2        -3.5261    8.2947    2.7612 O.2       1 RES1    0.0000
      3 O3        -2.0761    9.6694    3.5366 O.2       1 RES1    0.0000
      4 N1        -2.4693    8.5389    3.3142 N.pl3     1 RES1    0.0000
      5 C1         1.5474    0.4808    4.7778 C.ar      1 RES1    0.0000
      6 C2         2.5224   -0.4416    5.1531 C.ar      1 RES1    0.0000
      7 H1         3.3596   -0.1342    5.4495 H         1 RES1    0.0000
      8 C3         2.2794   -1.8027    5.0990 C.ar      1 RES1    0.0000
      9 H2         2.9504   -2.4027    5.3677 H         1 RES1    0.0000
     10 C4         1.0579   -2.2971    4.6508 C.ar      1 RES1    0.0000
     11 C5         0.0887   -1.3958    4.2769 C.ar      1 RES1    0.0000
     12 H3        -0.7414   -1.7123    3.9688 H         1 RES1    0.0000
     13 C6         0.3128   -0.0271    4.3470 C.ar      1 RES1    0.0000
     14 H4        -0.3725    0.5667    4.1017 H         1 RES1    0.0000
     15 C7         0.7967   -3.7864    4.5763 C.3       1 RES1    0.0000
     16 H5         0.1515   -3.9657    3.8754 H         1 RES1    0.0000
     17 H6         0.4448   -4.0954    5.4261 H         1 RES1    0.0000
     18 H7         1.6251   -4.2506    4.3821 H         1 RES1    0.0000
     19 C8         1.8476    1.9263    4.8683 C.2       1 RES1    0.0000
     20 C9         0.7993    2.9121    4.4682 C.2       1 RES1    0.0000
     21 H8         0.0328    2.6197    4.0097 H         1 RES1    0.0000
     22 C10        0.9468    4.2009    4.7573 C.2       1 RES1    0.0000
     23 H9         1.7241    4.4435    5.2261 H         1 RES1    0.0000
     24 C11        0.0045    5.2922    4.4129 C.ar      1 RES1    0.0000
     25 C12       -1.2496    5.0615    3.8330 C.ar      1 RES1    0.0000
     26 H10       -1.5374    4.1783    3.6841 H         1 RES1    0.0000
     27 C13       -2.0707    6.1167    3.4767 C.ar      1 RES1    0.0000
     28 H11       -2.9092    5.9644    3.0810 H         1 RES1    0.0000
     29 C14       -1.6201    7.4084    3.7221 C.ar      1 RES1    0.0000
     30 C15       -0.4174    7.6752    4.3149 C.ar      1 RES1    0.0000
     31 H12       -0.1458    8.5600    4.4814 H         1 RES1    0.0000
     32 C16        0.3979    6.5915    4.6683 C.ar      1 RES1    0.0000
     33 H13        1.2254    6.7512    5.0844 H         1 RES1    0.0000
     34 O4        -3.0504    6.0458    6.8805 O.2       2 RES2    0.0000
     35 O5         3.3229   -0.0256    9.4256 O.2       2 RES2    0.0000
     36 O6         1.7607   -1.3671    8.8386 O.2       2 RES2    0.0000
     37 N2         2.2151   -0.2442    8.9703 N.pl3     2 RES2    0.0000
     38 C17       -1.7115    7.8757    7.5373 C.ar      2 RES2    0.0000
     39 C18       -2.6894    8.7816    7.1901 C.ar      2 RES2    0.0000
     40 H14       -3.5102    8.4681    6.8557 H         2 RES2    0.0000
     41 C19       -2.4883   10.1457    7.3215 C.ar      2 RES2    0.0000
     42 H15       -3.1825   10.7396    7.0995 H         2 RES2    0.0000
     43 C20       -1.2808   10.6476    7.7727 C.ar      2 RES2    0.0000
     44 C21       -0.2890    9.7282    8.1231 C.ar      2 RES2    0.0000
     45 H16        0.5352   10.0417    8.4487 H         2 RES2    0.0000
     46 C22       -0.4928    8.3686    8.0005 C.ar      2 RES2    0.0000
     47 H17        0.1951    7.7702    8.2326 H         2 RES2    0.0000
     48 C23       -1.0583   12.1218    7.9231 C.3       2 RES2    0.0000
     49 H18       -0.2098   12.2785    8.3670 H         2 RES2    0.0000
     50 H19       -1.7750   12.5046    8.4531 H         2 RES2    0.0000
     51 H20       -1.0466   12.5393    7.0470 H         2 RES2    0.0000
     52 C24       -1.9753    6.4181    7.3755 C.2       2 RES2    0.0000
     53 C25       -0.9750    5.4233    7.8136 C.2       2 RES2    0.0000
     54 H21       -0.2244    5.7052    8.3056 H         2 RES2    0.0000
     55 C26       -1.1259    4.1361    7.5230 C.2       2 RES2    0.0000
     56 H22       -1.8885    3.9009    7.0265 H         2 RES2    0.0000
     57 C27       -0.2242    3.0493    7.8966 C.ar      2 RES2    0.0000
     58 C28        1.0339    3.2573    8.4896 C.ar      2 RES2    0.0000
     59 H23        1.3327    4.1346    8.6532 H         2 RES2    0.0000
     60 C29        1.8352    2.1871    8.8342 C.ar      2 RES2    0.0000
     61 H24        2.6739    2.3303    9.2343 H         2 RES2    0.0000
     62 C30        1.3869    0.9044    8.5845 C.ar      2 RES2    0.0000
     63 C31        0.1562    0.6617    7.9800 C.ar      2 RES2    0.0000
     64 H25       -0.1364   -0.2155    7.8136 H         2 RES2    0.0000
     65 C32       -0.6138    1.7379    7.6325 C.ar      2 RES2    0.0000
     66 H26       -1.4356    1.5872    7.2017 H         2 RES2    0.0000
@<TRIPOS>BOND
     1    1   19 2
     2    2    4 2
     3    3    4 2
     4    4   29 1
     5    5    6 ar
     6    6    7 1
     7    8    6 ar
     8    9    8 1
     9   10    8 ar
    10   11   10 ar
    11   12   11 1
    12   13    5 ar
    13   14   13 1
    14   15   10 1
    15   16   15 1
    16   17   15 1
    17   18   15 1
    18   19    5 1
    19   20   19 1
    20   21   20 1
    21   22   20 2
    22   23   22 1
    23   24   22 1
    24   25   24 ar
    25   26   25 1
    26   27   25 ar
    27   28   27 1
    28   29   27 ar
    29   30   29 ar
    30   31   30 1
    31   32   24 ar
    32   33   32 1
    33   34   52 2
    34   35   37 2
    35   36   37 2
    36   37   62 1
    37   38   39 ar
    38   39   40 1
    39   41   39 ar
    40   42   41 1
    41   43   41 ar
    42   44   43 ar
    43   45   44 1
    44   46   38 ar
    45   47   46 1
    46   48   43 1
    47   49   48 1
    48   50   48 1
    49   51   48 1
    50   52   38 1
    51   53   52 1
    52   54   53 1
    53   55   53 2
    54   56   55 1
    55   57   55 1
    56   58   57 ar
    57   59   58 1
    58   60   58 ar
    59   61   60 1
    60   62   60 ar
    61   63   62 ar
    62   64   63 1
    63   65   57 ar
    64   66   65 1
    65   11   13 ar
    66   30   32 ar
    67   44   46 ar
    68   63   65 ar
@<TRIPOS>SUBSTRUCTURE
     1 RES1 1
     2 RES2 34

@<TRIPOS>CRYSIN
   5.9730   15.0731   14.6768  90.0000  95.7850  90.0000   7 1

