# MOL2 file generated by ConQuest
# Please check atom types

@<TRIPOS>MOLECULE
KIKCEN01
    66    68     2
SMALL
NO_CHARGES
****
Generated from CSD

@<TRIPOS>ATOM
      1 O1         7.8764    5.1922    9.9946 O.2       1 RES1    0.0000
      2 O2         1.3705   -0.7909    7.5539 O.2       1 RES1    0.0000
      3 O3         2.8419   -2.1728    8.3214 O.2       1 RES1    0.0000
      4 N1         2.4462   -1.0405    8.1026 N.pl3     1 RES1    0.0000
      5 C1         6.7758    5.5696    9.5929 C.2       1 RES1    0.0000
      6 C2         6.4730    7.0207    9.5180 C.ar      1 RES1    0.0000
      7 C3         5.7261    4.5817    9.2127 C.2       1 RES1    0.0000
      8 C4         7.4576    7.9304    9.8982 C.ar      1 RES1    0.0000
      9 C5         3.2945    0.0917    8.4971 C.ar      1 RES1    0.0000
     10 C6         5.8650    3.2991    9.5094 C.2       1 RES1    0.0000
     11 H1         6.6515    3.0570    9.9831 H         1 RES1    0.0000
     12 C7         5.3179    0.9067    9.4302 C.ar      1 RES1    0.0000
     13 H2         6.1549    0.7428    9.8478 H         1 RES1    0.0000
     14 C8         4.5116   -0.1714    9.0803 C.ar      1 RES1    0.0000
     15 C9         2.8452    1.3834    8.2653 C.ar      1 RES1    0.0000
     16 C10        4.9311    2.2089    9.1825 C.ar      1 RES1    0.0000
     17 C11        5.9891    9.8010    9.4158 C.ar      1 RES1    0.0000
     18 C12        3.6635    2.4375    8.6137 C.ar      1 RES1    0.0000
     19 C13        5.0089    8.8792    9.0385 C.ar      1 RES1    0.0000
     20 C14        7.2168    9.2942    9.8478 C.ar      1 RES1    0.0000
     21 H3         7.9008    9.8972   10.1142 H         1 RES1    0.0000
     22 C15        5.2395    7.5229    9.0904 C.ar      1 RES1    0.0000
     23 C16        5.7270   11.2731    9.3452 C.3       1 RES1    0.0000
     24 H4         5.0124   11.4475    8.6972 H         1 RES1    0.0000
     25 H5         6.5428   11.7377    9.0644 H         1 RES1    0.0000
     26 H6         5.4532   11.5979   10.2279 H         1 RES1    0.0000
     27 H7         8.3248    7.6537   10.2236 H         1 RES1    0.0000
     28 H8         4.6056    6.9320    8.8124 H         1 RES1    0.0000
     29 H9         4.8068   -1.0526    9.3020 H         1 RES1    0.0000
     30 H10        4.9218    4.8719    8.7548 H         1 RES1    0.0000
     31 H11        3.3916    3.3532    8.4813 H         1 RES1    0.0000
     32 H12        1.9813    1.5488    7.8477 H         1 RES1    0.0000
     33 H13        4.1129    9.2476    8.7260 H         1 RES1    0.0000
     34 O4         6.6931    8.8815   13.5239 O.2       2 RES2    0.0000
     35 O5         1.8722    1.4778   11.6203 O.2       2 RES2    0.0000
     36 O6         8.2615    7.5455   14.1042 O.2       2 RES2    0.0000
     37 N2         7.1387    7.7575   13.6564 N.pl3     2 RES2    0.0000
     38 C17        4.4275   -0.8601   12.7248 C.ar      2 RES2    0.0000
     39 H14        5.1249   -0.2616   12.9638 H         2 RES2    0.0000
     40 C18        6.3148    6.6132   13.2806 C.ar      2 RES2    0.0000
     41 C19        4.7133    4.4644   12.6081 C.ar      2 RES2    0.0000
     42 C20        3.2106   -0.3549   12.2625 C.ar      2 RES2    0.0000
     43 C21        4.6274   -2.2179   12.8371 C.ar      2 RES2    0.0000
     44 H15        5.4643   -2.5412   13.1495 H         2 RES2    0.0000
     45 C22        3.6293   -3.1216   12.5016 C.ar      2 RES2    0.0000
     46 C23        6.7698    5.3320   13.5383 C.ar      2 RES2    0.0000
     47 H16        7.6162    5.1937   13.9458 H         2 RES2    0.0000
     48 C24        5.9685    4.2584   13.1927 C.ar      2 RES2    0.0000
     49 H17        6.2727    3.3728   13.3540 H         2 RES2    0.0000
     50 C25        3.7954    3.3758   12.2582 C.2       2 RES2    0.0000
     51 C26        4.3018    5.7741   12.3389 C.ar      2 RES2    0.0000
     52 C27        2.4156   -2.6224   12.0494 C.ar      2 RES2    0.0000
     53 C28        5.0901    6.8598   12.6772 C.ar      2 RES2    0.0000
     54 C29        2.2121   -1.2691   11.9184 C.ar      2 RES2    0.0000
     55 C30        3.9470    2.0961   12.5534 C.2       2 RES2    0.0000
     56 C31        2.9308    1.1037   12.1070 C.2       2 RES2    0.0000
     57 C32        3.8530   -4.6058   12.6326 C.3       2 RES2    0.0000
     58 H18        3.9605   -4.9997   11.7413 H         2 RES2    0.0000
     59 H19        3.0826   -5.0148   13.0790 H         2 RES2    0.0000
     60 H20        4.6615   -4.7697   13.1611 H         2 RES2    0.0000
     61 H21        1.3681   -0.8721   11.6059 H         2 RES2    0.0000
     62 H22        4.7232    1.7894   13.0171 H         2 RES2    0.0000
     63 H23        4.8145    7.7891   12.5275 H         2 RES2    0.0000
     64 H24        3.4430    5.8644   11.8651 H         2 RES2    0.0000
     65 H25        2.9918    3.6239   11.6635 H         2 RES2    0.0000
     66 H26        1.7909   -3.2931   11.7931 H         2 RES2    0.0000
@<TRIPOS>BOND
     1    1    5 2
     2    2    4 2
     3    3    4 2
     4    4    9 1
     5    5    6 1
     6    6    8 ar
     7    7    5 1
     8    8   20 ar
     9    9   14 ar
    10   10    7 2
    11   11   10 1
    12   12   13 1
    13   14   12 ar
    14   15    9 ar
    15   16   10 1
    16   17   19 ar
    17   18   15 ar
    18   19   22 ar
    19   20   17 ar
    20   21   20 1
    21   22    6 ar
    22   23   17 1
    23   24   23 1
    24   25   23 1
    25   26   23 1
    26   27    8 1
    27   28   22 1
    28   29   14 1
    29   30    7 1
    30   31   18 1
    31   32   15 1
    32   33   19 1
    33   34   37 2
    34   35   56 2
    35   36   37 2
    36   37   40 1
    37   38   39 1
    38   40   46 ar
    39   41   48 ar
    40   42   38 ar
    41   43   38 ar
    42   44   43 1
    43   45   43 ar
    44   46   47 1
    45   48   46 ar
    46   49   48 1
    47   50   41 1
    48   51   41 ar
    49   52   45 ar
    50   53   40 ar
    51   54   42 ar
    52   55   50 2
    53   56   42 1
    54   57   45 1
    55   58   57 1
    56   59   57 1
    57   60   57 1
    58   61   54 1
    59   62   55 1
    60   63   53 1
    61   64   51 1
    62   65   50 1
    63   66   52 1
    64   12   16 ar
    65   16   18 ar
    66   51   53 ar
    67   52   54 ar
    68   55   56 1
@<TRIPOS>SUBSTRUCTURE
     1 RES1 1
     2 RES2 34

@<TRIPOS>CRYSIN
   5.9692   15.0368   14.4730  90.0000  95.7800  90.0000   7 1

