# MOL2 file generated by ConQuest
# Please check atom types

@<TRIPOS>MOLECULE
KIKFOZ
    54    57     2
SMALL
NO_CHARGES
****
Generated from CSD

@<TRIPOS>ATOM
      1 C1         2.7664    3.9418    2.7492 C.2       1 RES1    0.0000
      2 C2         4.1114    1.9469    5.3221 C.ar      1 RES1    0.0000
      3 C3         3.1515    0.8307    4.8192 C.ar      1 RES1    0.0000
      4 C4         3.3292   -0.1841    5.6486 C.ar      1 RES1    0.0000
      5 C5         4.1695   -0.0596    6.8109 C.ar      1 RES1    0.0000
      6 C6         5.0538    1.1080    7.3007 C.ar      1 RES1    0.0000
      7 C7         5.0246    2.1059    6.4322 C.ar      1 RES1    0.0000
      8 C8         5.0149    4.1363    4.7801 C.3       1 RES1    0.0000
      9 C9         4.3542    6.5997    5.3090 C.ar      1 RES1    0.0000
     10 C10        3.4720    7.6703    5.0609 C.ar      1 RES1    0.0000
     11 C11        3.7143    8.8189    5.9032 C.ar      1 RES1    0.0000
     12 C12        4.6716    9.0840    7.0199 C.ar      1 RES1    0.0000
     13 C13        5.5988    8.0826    7.3007 C.ar      1 RES1    0.0000
     14 C14        5.4038    6.7550    6.3799 C.ar      1 RES1    0.0000
     15 C15        1.9117    3.5656    1.4366 C.ar      1 RES1    0.0000
     16 C16        1.2223    2.3264    0.8881 C.ar      1 RES1    0.0000
     17 C17        0.2196    2.2063   -0.3657 C.ar      1 RES1    0.0000
     18 C18        0.0461    3.2996   -1.0644 C.ar      1 RES1    0.0000
     19 C19        0.7593    4.4741   -0.5028 C.ar      1 RES1    0.0000
     20 C20        1.6690    4.6036    0.7118 C.ar      1 RES1    0.0000
     21 C21        6.0570    3.7882    3.7614 C.ar      1 RES1    0.0000
     22 C22        6.3520    4.7767    3.0692 C.ar      1 RES1    0.0000
     23 C23        7.3295    4.5886    2.3443 C.ar      1 RES1    0.0000
     24 C24        8.0257    3.3624    2.3443 C.ar      1 RES1    0.0000
     25 C25        7.7707    2.4387    3.0234 C.ar      1 RES1    0.0000
     26 C26        6.8217    2.6167    3.7809 C.ar      1 RES1    0.0000
     27 N1         4.1222    5.2986    4.3882 N.pl3     1 RES1    0.0000
     28 N2         3.2101    5.0773    3.3173 N.2       1 RES1    0.0000
     29 N3         3.0741    2.7556    3.3042 N.2       1 RES1    0.0000
     30 N4         3.9570    2.8852    4.3817 N.3       1 RES1    0.0000
     31 N5        -0.8311    2.8757   -2.3247 N.pl3     1 RES1    0.0000
     32 O1        -0.9608    3.7982   -3.0169 O.2       1 RES1    0.0000
     33 O2        -1.4848    1.8224   -2.8602 O.2       1 RES1    0.0000
     34 H1         2.5460    0.8587    4.0095 H         1 RES1    0.0000
     35 H2         2.8425   -1.1264    5.4461 H         1 RES1    0.0000
     36 H3         4.1376   -0.8139    7.4705 H         1 RES1    0.0000
     37 H4         5.6953    1.1159    8.0712 H         1 RES1    0.0000
     38 H5         5.6702    2.8926    6.3865 H         1 RES1    0.0000
     39 H6         5.5359    4.4022    5.6290 H         1 RES1    0.0000
     40 H7         2.7785    7.5858    4.3164 H         1 RES1    0.0000
     41 H8         3.0790    9.5912    5.7073 H         1 RES1    0.0000
     42 H9         4.6918    9.8655    7.6076 H         1 RES1    0.0000
     43 H10        6.3575    8.2350    7.6533 H         1 RES1    0.0000
     44 H11        6.0354    5.9770    6.7913 H         1 RES1    0.0000
     45 H12        1.3280    1.4329    1.3321 H         1 RES1    0.0000
     46 H13       -0.3548    1.3895   -0.3592 H         1 RES1    0.0000
     47 H14       -0.4855    3.4513   -1.9590 Du        2 SUP2    0.0000
     48 H15        0.5594    5.3507   -0.9860 H         1 RES1    0.0000
     49 H16        2.1278    5.4681    0.9273 H         1 RES1    0.0000
     50 H17        5.8565    5.6964    3.1736 H         1 RES1    0.0000
     51 H18        7.6713    5.3447    1.8415 H         1 RES1    0.0000
     52 H19        8.6327    3.1882    1.4889 H         1 RES1    0.0000
     53 H20        8.3624    1.6237    3.1867 H         1 RES1    0.0000
     54 H21        6.6440    1.9942    4.5776 H         1 RES1    0.0000
@<TRIPOS>BOND
     1    1   15 1
     2    2    3 ar
     3    3    4 ar
     4    4    5 ar
     5    5    6 ar
     6    6    7 ar
     7    7    2 ar
     8    8   21 1
     9    9   10 ar
    10   10   11 ar
    11   11   12 ar
    12   12   13 ar
    13   13   14 ar
    14   14    9 ar
    15   15   16 ar
    16   16   17 ar
    17   17   18 ar
    18   18   19 ar
    19   19   20 ar
    20   20   15 ar
    21   21   22 ar
    22   22   23 ar
    23   23   24 ar
    24   24   25 ar
    25   25   26 ar
    26   26   21 ar
    27   27    8 1
    28   28    1 2
    29   29    1 1
    30   30    2 1
    31   31   18 1
    32   32   31 2
    33   33   31 2
    34   34    3 1
    35   35    4 1
    36   36    5 1
    37   37    6 1
    38   38    7 1
    39   39    8 1
    40   40   10 1
    41   41   11 1
    42   42   12 1
    43   43   13 1
    44   44   14 1
    45   45   16 1
    46   46   17 1
    47   48   19 1
    48   49   20 1
    49   50   22 1
    50   51   23 1
    51   52   24 1
    52   53   25 1
    53   54   26 1
    54    8   30 1
    55    9   27 1
    56   27   28 1
    57   29   30 1
@<TRIPOS>SUBSTRUCTURE
     1 RES1 1
     2 SUP2 47

@<TRIPOS>CRYSIN
  12.7770   13.1990    6.5970  84.2800  83.9300  87.3100   2 1

