# MOL2 file generated by ConQuest
# Please check atom types

@<TRIPOS>MOLECULE
KIKFIT
    25    28     1
SMALL
NO_CHARGES
****
Generated from CSD

@<TRIPOS>ATOM
      1 C1        13.7640    3.2634    0.4483 C.2       1 RES1    0.0000
      2 C2        12.5491    2.7096    0.7520 C.2       1 RES1    0.0000
      3 C3        12.5674    1.4950    1.4068 C.2       1 RES1    0.0000
      4 C4        13.7640    0.8819    1.7663 C.2       1 RES1    0.0000
      5 C5        13.7640   -0.4079    2.5240 C.2       1 RES1    0.0000
      6 C6        13.7640   -2.9238    3.2236 C.2       1 RES1    0.0000
      7 C7        11.4241   -2.5683    4.0868 C.2       1 RES1    0.0000
      8 C8        10.3726   -1.6818    4.3408 C.2       1 RES1    0.0000
      9 C9         9.2200   -2.1558    4.9312 C.2       1 RES1    0.0000
     10 C10        9.0916   -3.4822    5.2985 C.2       1 RES1    0.0000
     11 C11       10.1303   -4.3459    5.0644 C.2       1 RES1    0.0000
     12 C12       11.2993   -3.9038    4.4524 C.2       1 RES1    0.0000
     13 N1        13.7640    4.5669   -0.2757 N.2       1 RES1    0.0000
     14 N2        12.5674   -0.8705    2.8734 N.2       1 RES1    0.0000
     15 N3        12.5968   -2.0875    3.4797 N.2       1 RES1    0.0000
     16 C2A       14.9789    2.7096    0.7520 C.2       1 RES1    0.0000
     17 C3A       14.9606    1.4950    1.4068 C.2       1 RES1    0.0000
     18 N2A       14.9606   -0.8705    2.8734 N.2       1 RES1    0.0000
     19 N3A       14.9312   -2.0875    3.4797 N.2       1 RES1    0.0000
     20 C7A       16.1039   -2.5683    4.0868 C.2       1 RES1    0.0000
     21 C8A       17.1554   -1.6818    4.3408 C.2       1 RES1    0.0000
     22 C12A      16.2287   -3.9038    4.4524 C.2       1 RES1    0.0000
     23 C9A       18.3080   -2.1558    4.9312 C.2       1 RES1    0.0000
     24 C11A      17.3977   -4.3459    5.0644 C.2       1 RES1    0.0000
     25 C10A      18.4364   -3.4822    5.2985 C.2       1 RES1    0.0000
@<TRIPOS>BOND
     1    1    2 1
     2    2    3 1
     3    3    4 1
     4    4    5 1
     5    5   14 1
     6    6   15 1
     7    7    8 1
     8    8    9 1
     9    9   10 1
    10   10   11 1
    11   11   12 1
    12   12    7 1
    13   13    1 1
    14   14   15 1
    15   15    7 1
    16   16    1 1
    17   17    4 1
    18   18    5 1
    19   19    6 1
    20   20   19 1
    21   21   20 1
    22   22   20 1
    23   23   21 1
    24   24   22 1
    25   25   23 1
    26   16   17 1
    27   18   19 1
    28   24   25 1
@<TRIPOS>SUBSTRUCTURE
     1 RES1 1

@<TRIPOS>CRYSIN
  18.3520   22.7890    4.0717  90.0000  90.0000  90.0000  62 5

