# MOL2 file generated by ConQuest
# Please check atom types

@<TRIPOS>MOLECULE
KIKGUG
    64    67     1
SMALL
NO_CHARGES
****
Generated from CSD

@<TRIPOS>ATOM
      1 O1         5.5442    1.0174    3.2022 O.3       1 RES1    0.0000
      2 O2         3.8168   -0.1307    2.3240 O.2       1 RES1    0.0000
      3 O3        10.1705   -2.5959   -0.1749 O.2       1 RES1    0.0000
      4 O4         8.6637   -3.6059   -1.2628 O.2       1 RES1    0.0000
      5 O5         2.2982    4.7608    2.0692 O.3       1 RES1    0.0000
      6 O6         1.8857    5.9280    4.0387 O.3       1 RES1    0.0000
      7 N1         9.0078   -2.8171   -0.4302 N.pl3     1 RES1    0.0000
      8 C1         5.6430    2.4028    5.0913 C.3       1 RES1    0.0000
      9 C2         6.0550    1.3318    6.1162 C.3       1 RES1    0.0000
     10 C3         4.9353    1.3912    7.1935 C.3       1 RES1    0.0000
     11 C4         4.2436    2.7494    7.0291 C.3       1 RES1    0.0000
     12 C5         4.9993    3.5118    5.9413 C.3       1 RES1    0.0000
     13 C6         4.1672    4.5235    5.1665 C.3       1 RES1    0.0000
     14 C7         4.9641    5.5896    4.4074 C.3       1 RES1    0.0000
     15 C8         4.0868    6.0335    3.2426 C.3       1 RES1    0.0000
     16 C9         2.8332    5.1555    3.3108 C.3       1 RES1    0.0000
     17 C10        3.2714    3.9178    4.0839 C.3       1 RES1    0.0000
     18 C11        4.0509    2.9392    3.1989 C.3       1 RES1    0.0000
     19 C12        4.6871    1.8582    4.0384 C.3       1 RES1    0.0000
     20 C13        4.9955    0.0825    2.4206 C.2       1 RES1    0.0000
     21 C14        6.0588   -0.6667    1.6773 C.ar      1 RES1    0.0000
     22 C15        7.4105   -0.4505    1.9396 C.ar      1 RES1    0.0000
     23 C16        8.3766   -1.1585    1.2540 C.ar      1 RES1    0.0000
     24 C17        7.9724   -2.0645    0.3096 C.ar      1 RES1    0.0000
     25 C18        6.6415   -2.2906    0.0105 C.ar      1 RES1    0.0000
     26 C19        5.6858   -1.5810    0.7118 C.ar      1 RES1    0.0000
     27 C20        7.4918    1.5480    6.6111 C.3       1 RES1    0.0000
     28 C21        8.5209    1.1107    5.6020 C.3       1 RES1    0.0000
     29 C22        5.3417    1.1140    8.6259 C.3       1 RES1    0.0000
     30 C23        1.9061    5.8305    1.2155 C.3       1 RES1    0.0000
     31 C24        0.6505    5.2810    4.3095 C.3       1 RES1    0.0000
     32 H1         6.4040    2.7395    4.5736 H         1 RES1    0.0000
     33 H2         6.0546    0.4291    5.6842 H         1 RES1    0.0000
     34 H3         4.2639    0.6436    6.9259 H         1 RES1    0.0000
     35 H4         5.7022    3.9937    6.3855 H         1 RES1    0.0000
     36 H5         3.5990    4.9839    5.8066 H         1 RES1    0.0000
     37 H6         2.4945    3.4656    4.4459 H         1 RES1    0.0000
     38 H7         3.9850    1.2707    4.4424 H         1 RES1    0.0000
     39 H8         7.6526    0.1650    2.6095 H         1 RES1    0.0000
     40 H9         9.2894   -1.0232    1.4342 H         1 RES1    0.0000
     41 H10        6.3989   -2.8715   -0.6646 H         1 RES1    0.0000
     42 H11        4.7526   -1.6998    0.5422 H         1 RES1    0.0000
     43 H12        3.3461    2.6570    6.7335 H         1 RES1    0.0000
     44 H13        4.1995    3.2016    7.8879 H         1 RES1    0.0000
     45 H14        5.1607    6.3372    5.0196 H         1 RES1    0.0000
     46 H15        5.7571    5.2149    4.0401 H         1 RES1    0.0000
     47 H16        3.8856    6.9808    3.2706 H         1 RES1    0.0000
     48 H17        4.5093    5.8751    2.3786 H         1 RES1    0.0000
     49 H18        4.7523    3.4326    2.7459 H         1 RES1    0.0000
     50 H19        3.4726    2.5580    2.5010 H         1 RES1    0.0000
     51 H20        7.6126    2.4920    6.8560 H         1 RES1    0.0000
     52 H21        7.5755    1.0232    7.4331 H         1 RES1    0.0000
     53 H22        8.3746    0.0990    5.4218 H         1 RES1    0.0000
     54 H23        8.4813    1.5843    4.7222 H         1 RES1    0.0000
     55 H24        9.3408    1.2212    5.9115 H         1 RES1    0.0000
     56 H25        5.8306    0.2310    8.7099 H         1 RES1    0.0000
     57 H26        4.5578    1.1057    9.2696 H         1 RES1    0.0000
     58 H27        5.9406    1.9309    8.8848 H         1 RES1    0.0000
     59 H28        2.6440    6.4527    1.0144 H         1 RES1    0.0000
     60 H29        1.5686    5.4790    0.4897 H         1 RES1    0.0000
     61 H30        1.2690    6.4692    1.7140 H         1 RES1    0.0000
     62 H31        0.7216    4.7529    5.1770 H         1 RES1    0.0000
     63 H32        0.3968    4.7034    3.6029 H         1 RES1    0.0000
     64 H33        0.0585    5.9576    4.4949 H         1 RES1    0.0000
@<TRIPOS>BOND
     1    1   19 1
     2    2   20 2
     3    3    7 2
     4    4    7 2
     5    5   16 1
     6    6   16 1
     7    7   24 1
     8    8    9 1
     9    9   10 1
    10   10   11 1
    11   11   12 1
    12   12    8 1
    13   13   12 1
    14   14   13 1
    15   15   14 1
    16   16   15 1
    17   17   13 1
    18   18   17 1
    19   19    8 1
    20   20    1 1
    21   21   20 1
    22   22   21 ar
    23   23   22 ar
    24   24   23 ar
    25   25   24 ar
    26   26   21 ar
    27   27    9 1
    28   28   27 1
    29   29   10 1
    30   30    5 1
    31   31    6 1
    32   32    8 1
    33   33    9 1
    34   34   10 1
    35   35   12 1
    36   36   13 1
    37   37   17 1
    38   38   19 1
    39   39   22 1
    40   40   23 1
    41   41   25 1
    42   42   26 1
    43   43   11 1
    44   44   11 1
    45   45   14 1
    46   46   14 1
    47   47   15 1
    48   48   15 1
    49   49   18 1
    50   50   18 1
    51   51   27 1
    52   52   27 1
    53   53   28 1
    54   54   28 1
    55   55   28 1
    56   56   29 1
    57   57   29 1
    58   58   29 1
    59   59   30 1
    60   60   30 1
    61   61   30 1
    62   62   31 1
    63   63   31 1
    64   64   31 1
    65   16   17 1
    66   18   19 1
    67   25   26 ar
@<TRIPOS>SUBSTRUCTURE
     1 RES1 1

@<TRIPOS>CRYSIN
   7.9270   16.5030   17.5120  90.0000  92.8900  90.0000  14 1

