# MOL2 file generated by ConQuest
# Please check atom types

@<TRIPOS>MOLECULE
KIKKIZ
    33    35     1
SMALL
NO_CHARGES
****
Generated from CSD

@<TRIPOS>ATOM
      1 O1         3.8949    2.0719    3.7120 O.3       1 RES1    0.0000
      2 O2         2.3816    0.1666    1.7533 O.2       1 RES1    0.0000
      3 O3         8.2058    7.1947    1.9996 O.2       1 RES1    0.0000
      4 O4         6.3036    7.7790    1.2623 O.2       1 RES1    0.0000
      5 N1         4.3406    1.0789    0.8492 N.am      1 RES1    0.0000
      6 N2         7.0704    6.9406    1.6727 N.pl3     1 RES1    0.0000
      7 C1         4.6435    2.5564    4.7608 C.ar      1 RES1    0.0000
      8 C2         5.8642    2.0612    5.1413 C.ar      1 RES1    0.0000
      9 C3         6.5108    2.6515    6.2308 C.ar      1 RES1    0.0000
     10 C4         5.9602    3.6932    6.8924 C.ar      1 RES1    0.0000
     11 C5         4.7633    4.1833    6.4913 C.ar      1 RES1    0.0000
     12 C6         4.0881    3.6163    5.4375 C.ar      1 RES1    0.0000
     13 C7         4.4403    1.0518    2.9192 C.3       1 RES1    0.0000
     14 C8         3.4863    0.6644    1.7931 C.2       1 RES1    0.0000
     15 C9         5.4167    1.4738    1.7709 C.3       1 RES1    0.0000
     16 C10        5.8226    2.9177    1.7356 C.ar      1 RES1    0.0000
     17 C11        7.0904    3.2773    2.1754 C.ar      1 RES1    0.0000
     18 C12        7.4924    4.5873    2.1756 C.ar      1 RES1    0.0000
     19 C13        6.6192    5.5472    1.7332 C.ar      1 RES1    0.0000
     20 C14        5.3498    5.2369    1.3217 C.ar      1 RES1    0.0000
     21 C15        4.9611    3.9156    1.3216 C.ar      1 RES1    0.0000
     22 H1         4.3241    0.8800   -0.0263 H         1 RES1    0.0000
     23 H2         6.2529    1.3495    4.6860 H         1 RES1    0.0000
     24 H3         7.3361    2.3220    6.5062 H         1 RES1    0.0000
     25 H4         6.4003    4.0719    7.6191 H         1 RES1    0.0000
     26 H5         4.3935    4.9126    6.9335 H         1 RES1    0.0000
     27 H6         3.2580    3.9486    5.1830 H         1 RES1    0.0000
     28 H7         4.7599    0.2853    3.4393 H         1 RES1    0.0000
     29 H8         6.1895    0.8748    1.7094 H         1 RES1    0.0000
     30 H9         7.6753    2.6192    2.4750 H         1 RES1    0.0000
     31 H10        8.3430    4.8207    2.4704 H         1 RES1    0.0000
     32 H11        4.7634    5.9046    1.0478 H         1 RES1    0.0000
     33 H12        4.1042    3.6915    1.0387 H         1 RES1    0.0000
@<TRIPOS>BOND
     1    1    7 1
     2    2   14 2
     3    3    6 2
     4    4    6 2
     5    5   14 1
     6    6   19 1
     7    7    8 ar
     8    8    9 ar
     9    9   10 ar
    10   10   11 ar
    11   11   12 ar
    12   12    7 ar
    13   13    1 1
    14   14   13 1
    15   15    5 1
    16   16   15 1
    17   17   16 ar
    18   18   17 ar
    19   19   18 ar
    20   20   19 ar
    21   21   16 ar
    22   22    5 1
    23   23    8 1
    24   24    9 1
    25   25   10 1
    26   26   11 1
    27   27   12 1
    28   28   13 1
    29   29   15 1
    30   30   17 1
    31   31   18 1
    32   32   20 1
    33   33   21 1
    34   13   15 1
    35   20   21 ar
@<TRIPOS>SUBSTRUCTURE
     1 RES1 1

@<TRIPOS>CRYSIN
   6.1548    9.8007   11.9296  80.5520  75.1670  82.1880   2 1

