# MOL2 file generated by ConQuest
# Please check atom types

@<TRIPOS>MOLECULE
KIKLIZ
    25    25     1
SMALL
NO_CHARGES
****
Generated from CSD

@<TRIPOS>ATOM
      1 C1        13.9408    2.3072    0.2903 C.ar      1 RES1    0.0000
      2 C2        13.0729    1.2179    0.3060 C.ar      1 RES1    0.0000
      3 C3        13.3637    0.1611    1.1739 C.ar      1 RES1    0.0000
      4 C4        14.4779    0.1991    1.9803 C.ar      1 RES1    0.0000
      5 C5        15.3058    1.2866    1.9945 C.ar      1 RES1    0.0000
      6 C6        15.0314    2.3633    1.1612 C.ar      1 RES1    0.0000
      7 C7        13.7227    3.4183   -0.6848 C.2       1 RES1    0.0000
      8 O1        13.8578    3.0275   -1.9278 O.3       1 RES1    0.0000
      9 O2        13.4661    4.5548   -0.3720 O.2       1 RES1    0.0000
     10 O3        12.0106    1.2341   -0.5408 O.3       1 RES1    0.0000
     11 C8        10.8369    1.8585   -0.0203 C.3       1 RES1    0.0000
     12 N1        12.5195   -1.0297    1.2474 N.pl3     1 RES1    0.0000
     13 O4        11.5921   -1.1581    0.5183 O.2       1 RES1    0.0000
     14 O5        12.7717   -1.8476    2.0860 O.2       1 RES1    0.0000
     15 O6        15.7658    3.4853    1.0914 O.3       1 RES1    0.0000
     16 C9        16.8593    3.6373    2.0028 C.3       1 RES1    0.0000
     17 H1        14.6738   -0.5610    2.5353 H         1 RES1    0.0000
     18 H2        16.0685    1.3029    2.5728 H         1 RES1    0.0000
     19 H3        10.1485    1.8096   -0.6751 H         1 RES1    0.0000
     20 H4        10.5639    1.3934    0.7576 H         1 RES1    0.0000
     21 H5        11.0239    2.7506    0.1950 H         1 RES1    0.0000
     22 H6        17.2999    4.4697    1.8227 H         1 RES1    0.0000
     23 H7        16.5581    3.6192    2.8804 H         1 RES1    0.0000
     24 H8        17.4928    2.9316    1.8377 H         1 RES1    0.0000
     25 H9        13.7984    3.6373   -2.4978 H         1 RES1    0.0000
@<TRIPOS>BOND
     1    1    2 ar
     2    2    3 ar
     3    3    4 ar
     4    4    5 ar
     5    5    6 ar
     6    6    1 ar
     7    7    1 1
     8    8    7 1
     9    9    7 2
    10   10    2 1
    11   11   10 1
    12   12    3 1
    13   13   12 2
    14   14   12 2
    15   15    6 1
    16   16   15 1
    17   17    4 1
    18   18    5 1
    19   19   11 1
    20   20   11 1
    21   21   11 1
    22   22   16 1
    23   23   16 1
    24   24   16 1
    25   25    8 1
@<TRIPOS>SUBSTRUCTURE
     1 RES1 1

@<TRIPOS>CRYSIN
  14.8370   18.0960    7.5010  90.0000  90.0000  90.0000  56 1

