# MOL2 file generated by ConQuest
# Please check atom types

@<TRIPOS>MOLECULE
KIKNAU01
    52    53     1
SMALL
NO_CHARGES
****
Generated from CSD

@<TRIPOS>ATOM
      1 O1         8.9673    7.2098    4.2288 O.3       1 RES1    0.0000
      2 H1         9.4646    7.6788    4.7784 H         1 RES1    0.0000
      3 C1         7.7196    7.7342    4.3463 C.ar      1 RES1    0.0000
      4 C2         6.6640    7.1821    3.5729 C.ar      1 RES1    0.0000
      5 C3         6.9070    6.0076    2.6000 C.3       1 RES1    0.0000
      6 C4         7.3970    4.7690    3.3853 C.3       1 RES1    0.0000
      7 H2         7.5516    4.0283    2.7638 H         1 RES1    0.0000
      8 H3         6.7177    4.5072    4.0412 H         1 RES1    0.0000
      9 H4         8.2326    4.9861    3.8491 H         1 RES1    0.0000
     10 C5         5.6222    5.6079    1.8529 C.3       1 RES1    0.0000
     11 H5         5.2833    6.3770    1.3495 H         1 RES1    0.0000
     12 H6         4.9455    5.3181    2.4996 H         1 RES1    0.0000
     13 H7         5.8195    4.8754    1.2330 H         1 RES1    0.0000
     14 C6         7.9559    6.4020    1.5358 C.3       1 RES1    0.0000
     15 H8         7.6414    7.1903    1.0433 H         1 RES1    0.0000
     16 H9         8.0852    5.6574    0.9125 H         1 RES1    0.0000
     17 H10        8.8064    6.6104    1.9762 H         1 RES1    0.0000
     18 C7         5.4021    7.7541    3.7494 C.ar      1 RES1    0.0000
     19 H11        4.6814    7.3925    3.2464 H         1 RES1    0.0000
     20 C8         5.1140    8.8310    4.6180 C.ar      1 RES1    0.0000
     21 C9         3.6702    9.3472    4.7712 C.3       1 RES1    0.0000
     22 C10        3.0579    9.6463    3.3911 C.3       1 RES1    0.0000
     23 H12        2.1396    9.9697    3.5046 H         1 RES1    0.0000
     24 H13        3.0512    8.8267    2.8526 H         1 RES1    0.0000
     25 H14        3.5928   10.3307    2.9379 H         1 RES1    0.0000
     26 C11        3.6161   10.6413    5.6010 C.3       1 RES1    0.0000
     27 H15        2.6866   10.9443    5.6752 H         1 RES1    0.0000
     28 H16        4.1505   11.3341    5.1602 H         1 RES1    0.0000
     29 H17        3.9762   10.4702    6.4964 H         1 RES1    0.0000
     30 C12        2.8327    8.2629    5.4833 C.3       1 RES1    0.0000
     31 H18        1.9090    8.5764    5.5816 H         1 RES1    0.0000
     32 H19        3.2134    8.0855    6.3692 H         1 RES1    0.0000
     33 H20        2.8448    7.4406    4.9513 H         1 RES1    0.0000
     34 C13        6.1743    9.3457    5.3399 C.ar      1 RES1    0.0000
     35 H21        6.0247   10.0780    5.9274 H         1 RES1    0.0000
     36 C14        7.4730    8.8086    5.2226 C.ar      1 RES1    0.0000
     37 C15        8.5250    9.4213    6.0179 C.2       1 RES1    0.0000
     38 H22        8.2956   10.1406    6.5949 H         1 RES1    0.0000
     39 N1         9.7620    9.0312    5.9769 N.2       1 RES1    0.0000
     40 C16       10.7011    9.7062    6.8049 C.ar      1 RES1    0.0000
     41 C17       10.3988   10.1269    8.1045 C.ar      1 RES1    0.0000
     42 H23        9.5518    9.9192    8.4834 H         1 RES1    0.0000
     43 C18       11.3269   10.8432    8.8430 C.ar      1 RES1    0.0000
     44 H24       11.1149   11.1537    9.7153 H         1 RES1    0.0000
     45 C19       12.5692   11.0986    8.2863 C.ar      1 RES1    0.0000
     46 C20       12.9169   10.6416    7.0230 C.ar      1 RES1    0.0000
     47 H25       13.7827   10.8071    6.6693 H         1 RES1    0.0000
     48 C21       11.9776    9.9380    6.2883 C.ar      1 RES1    0.0000
     49 H26       12.2035    9.6112    5.4255 H         1 RES1    0.0000
     50 N2        13.5328   11.9119    9.0415 N.pl3     1 RES1    0.0000
     51 O2        14.6204   12.1641    8.5127 O.2       1 RES1    0.0000
     52 O3        13.2131   12.3078   10.1648 O.2       1 RES1    0.0000
@<TRIPOS>BOND
     1    1    2 1
     2    3    1 1
     3    4    3 ar
     4    5    4 1
     5    6    5 1
     6    7    6 1
     7    8    6 1
     8    9    6 1
     9   10    5 1
    10   11   10 1
    11   12   10 1
    12   13   10 1
    13   14    5 1
    14   15   14 1
    15   16   14 1
    16   17   14 1
    17   18    4 ar
    18   19   18 1
    19   20   18 ar
    20   21   20 1
    21   22   21 1
    22   23   22 1
    23   24   22 1
    24   25   22 1
    25   26   21 1
    26   27   26 1
    27   28   26 1
    28   29   26 1
    29   30   21 1
    30   31   30 1
    31   32   30 1
    32   33   30 1
    33   34   20 ar
    34   35   34 1
    35   36    3 ar
    36   37   36 1
    37   38   37 1
    38   39   37 2
    39   40   39 1
    40   41   40 ar
    41   42   41 1
    42   43   41 ar
    43   44   43 1
    44   45   43 ar
    45   46   45 ar
    46   47   46 1
    47   48   40 ar
    48   49   48 1
    49   50   45 1
    50   51   50 2
    51   52   50 2
    52   34   36 ar
    53   46   48 ar
@<TRIPOS>SUBSTRUCTURE
     1 RES1 1

@<TRIPOS>CRYSIN
  13.4060   24.0640   12.0060  90.0000  90.0000  90.0000  56 1

