# MOL2 file generated by ConQuest
# Please check atom types

@<TRIPOS>MOLECULE
KIKQUR
    36    37     1
SMALL
NO_CHARGES
****
Generated from CSD

@<TRIPOS>ATOM
      1 O1        -0.1718   -0.0035    9.7432 O.2       1 RES1    0.0000
      2 O2        -0.8553    1.7477   10.7634 O.2       1 RES1    0.0000
      3 O3         2.6130    5.4571    6.1171 O.3       1 RES1    0.0000
      4 H1         3.2140    5.1121    6.5547 H         1 RES1    0.0000
      5 O4         1.4466    7.1736    3.8554 O.2       1 RES1    0.0000
      6 N1        -0.3227    1.2129    9.8256 N.pl3     1 RES1    0.0000
      7 C1         0.6380    4.1624    7.8299 C.ar      1 RES1    0.0000
      8 H2         0.6116    5.0900    7.8964 H         1 RES1    0.0000
      9 C2         0.1133    3.3984    8.8551 C.ar      1 RES1    0.0000
     10 H3        -0.2822    3.7946    9.5974 H         1 RES1    0.0000
     11 C3         0.1974    2.0414    8.7399 C.ar      1 RES1    0.0000
     12 C4         0.7638    1.4401    7.6523 C.ar      1 RES1    0.0000
     13 H4         0.8238    0.5133    7.6056 H         1 RES1    0.0000
     14 C5         1.2445    2.2187    6.6281 C.ar      1 RES1    0.0000
     15 H5         1.6032    1.8121    5.8719 H         1 RES1    0.0000
     16 C6         1.2024    3.5799    6.7056 C.ar      1 RES1    0.0000
     17 C7         1.7671    4.4388    5.5861 C.3       1 RES1    0.0000
     18 H6         2.2829    3.8750    4.9728 H         1 RES1    0.0000
     19 C8         0.6550    5.1544    4.8051 C.3       1 RES1    0.0000
     20 H7         0.1899    5.7556    5.4234 H         1 RES1    0.0000
     21 C9         1.2896    6.0029    3.7095 C.2       1 RES1    0.0000
     22 C10        1.6994    5.2708    2.4691 C.3       1 RES1    0.0000
     23 H8         2.4884    4.7395    2.6596 H         1 RES1    0.0000
     24 H9         1.9333    5.9150    1.7833 H         1 RES1    0.0000
     25 C11        0.6144    4.3709    1.9471 C.3       1 RES1    0.0000
     26 H10        0.9485    3.8736    1.1849 H         1 RES1    0.0000
     27 H11       -0.1332    4.9112    1.6474 H         1 RES1    0.0000
     28 C12        0.1364    3.3998    3.0089 C.3       1 RES1    0.0000
     29 H12        0.9095    2.8761    3.3066 H         1 RES1    0.0000
     30 C13       -0.3729    4.2033    4.2077 C.3       1 RES1    0.0000
     31 H13       -1.1477    4.7173    3.9318 H         1 RES1    0.0000
     32 H14       -0.6617    3.5847    4.8974 H         1 RES1    0.0000
     33 C14       -0.9118    2.4272    2.4949 C.3       1 RES1    0.0000
     34 H15       -0.5588    1.9437    1.7436 H         1 RES1    0.0000
     35 H16       -1.6940    2.9135    2.2229 H         1 RES1    0.0000
     36 H17       -1.1456    1.8100    3.1915 H         1 RES1    0.0000
@<TRIPOS>BOND
     1    1    6 2
     2    2    6 2
     3    3    4 1
     4    5   21 2
     5    6   11 1
     6    7    8 1
     7    9    7 ar
     8   10    9 1
     9   11    9 ar
    10   12   11 ar
    11   13   12 1
    12   14   12 ar
    13   15   14 1
    14   16    7 ar
    15   17    3 1
    16   18   17 1
    17   19   17 1
    18   20   19 1
    19   21   19 1
    20   22   21 1
    21   23   22 1
    22   24   22 1
    23   25   22 1
    24   26   25 1
    25   27   25 1
    26   28   25 1
    27   29   28 1
    28   30   19 1
    29   31   30 1
    30   32   30 1
    31   33   28 1
    32   34   33 1
    33   35   33 1
    34   36   33 1
    35   14   16 ar
    36   16   17 1
    37   28   30 1
@<TRIPOS>SUBSTRUCTURE
     1 RES1 1

@<TRIPOS>CRYSIN
   9.9170    6.9270   10.5180  90.0000 109.3500  90.0000   4 1

