# MOL2 file generated by ConQuest
# Please check atom types

@<TRIPOS>MOLECULE
KIKRAY
    52    55     1
SMALL
NO_CHARGES
****
Generated from CSD

@<TRIPOS>ATOM
      1 C1         4.4394    1.3591    5.8214 C.3       1 RES1    0.0000
      2 H1         3.8614    0.5477    5.7421 H         1 RES1    0.0000
      3 C2         5.8233    0.9310    6.2432 C.3       1 RES1    0.0000
      4 H2         5.7954    0.5100    7.1391 H         1 RES1    0.0000
      5 H3         6.4292    1.7130    6.2811 H         1 RES1    0.0000
      6 C3         6.3165   -0.0765    5.1958 C.3       1 RES1    0.0000
      7 H4         5.7797   -0.9050    5.2694 H         1 RES1    0.0000
      8 H5         7.2587   -0.3088    5.3928 H         1 RES1    0.0000
      9 C4         6.2226    0.4554    3.7524 C.3       1 RES1    0.0000
     10 H6         6.9006    1.1653    3.6275 H         1 RES1    0.0000
     11 H7         6.4389   -0.2801    3.1263 H         1 RES1    0.0000
     12 C5         4.8442    1.0188    3.3983 C.3       1 RES1    0.0000
     13 H8         4.8630    1.4401    2.5018 H         1 RES1    0.0000
     14 H9         4.1668    0.2963    3.3940 H         1 RES1    0.0000
     15 C6         4.5103    2.0470    4.4572 C.3       1 RES1    0.0000
     16 H10        5.2459    2.7239    4.4835 H         1 RES1    0.0000
     17 C7         2.8592    3.1137    5.7719 C.2       1 RES1    0.0000
     18 C8         2.7762    3.4296    3.3124 C.2       1 RES1    0.0000
     19 C9         1.1718    4.9221    2.4673 C.ar      1 RES1    0.0000
     20 C10        1.8304    6.0812    2.0867 C.ar      1 RES1    0.0000
     21 H11        2.6732    6.3079    2.4620 H         1 RES1    0.0000
     22 C11        1.2251    6.9032    1.1397 C.ar      1 RES1    0.0000
     23 H12        1.6535    7.6959    0.8371 H         1 RES1    0.0000
     24 C12       -0.0121    6.5371    0.6505 C.ar      1 RES1    0.0000
     25 C13       -0.6483    5.3649    0.9994 C.ar      1 RES1    0.0000
     26 H13       -1.4857    5.1282    0.6188 H         1 RES1    0.0000
     27 C14       -0.0273    4.5443    1.9212 C.ar      1 RES1    0.0000
     28 H14       -0.4296    3.7223    2.1753 H         1 RES1    0.0000
     29 C15        3.4870    2.1644    7.9660 C.2       1 RES1    0.0000
     30 C16        2.3988    3.0387    9.8329 C.ar      1 RES1    0.0000
     31 C17        3.0816    3.5734   10.8997 C.ar      1 RES1    0.0000
     32 H15        3.9165    4.0078   10.7761 H         1 RES1    0.0000
     33 C18        2.5121    3.4596   12.1747 C.ar      1 RES1    0.0000
     34 H16        2.9513    3.8139   12.9381 H         1 RES1    0.0000
     35 C19        1.3003    2.8214   12.2880 C.ar      1 RES1    0.0000
     36 C20        0.6162    2.2827   11.2216 C.ar      1 RES1    0.0000
     37 H17       -0.2145    1.8387   11.3474 H         1 RES1    0.0000
     38 C21        1.1754    2.4063    9.9595 C.ar      1 RES1    0.0000
     39 H18        0.7265    2.0631    9.1949 H         1 RES1    0.0000
     40 N1         3.7220    2.3770    6.6059 N.am      1 RES1    0.0000
     41 N2         3.2125    2.7650    4.4503 N.am      1 RES1    0.0000
     42 N3        -0.6895    7.4435   -0.2963 N.pl3     1 RES1    0.0000
     43 N4         0.7071    2.6889   13.6348 N.pl3     1 RES1    0.0000
     44 O1         2.0025    3.8731    6.1156 O.2       1 RES1    0.0000
     45 O2         3.3264    3.3366    2.2471 O.2       1 RES1    0.0000
     46 O3         1.6553    4.1416    3.5379 O.3       1 RES1    0.0000
     47 O4        -0.0691    8.4210   -0.7027 O.2       1 RES1    0.0000
     48 O5        -1.8492    7.1894   -0.6237 O.2       1 RES1    0.0000
     49 O6         2.9180    3.2403    8.5343 O.3       1 RES1    0.0000
     50 O7         3.7978    1.1623    8.5372 O.2       1 RES1    0.0000
     51 O8         1.2336    3.3211   14.5535 O.2       1 RES1    0.0000
     52 O9        -0.2508    1.9457   13.7809 O.2       1 RES1    0.0000
@<TRIPOS>BOND
     1    1    2 1
     2    3    1 1
     3    4    3 1
     4    5    3 1
     5    6    3 1
     6    7    6 1
     7    8    6 1
     8    9    6 1
     9   10    9 1
    10   11    9 1
    11   12    9 1
    12   13   12 1
    13   14   12 1
    14   15    1 1
    15   16   15 1
    16   17   40 1
    17   18   41 1
    18   19   20 ar
    19   20   21 1
    20   22   20 ar
    21   23   22 1
    22   24   22 ar
    23   25   24 ar
    24   26   25 1
    25   27   19 ar
    26   28   27 1
    27   29   40 1
    28   30   31 ar
    29   31   32 1
    30   33   31 ar
    31   34   33 1
    32   35   33 ar
    33   36   35 ar
    34   37   36 1
    35   38   30 ar
    36   39   38 1
    37   40    1 1
    38   41   15 1
    39   42   24 1
    40   43   35 1
    41   44   17 2
    42   45   18 2
    43   46   18 1
    44   47   42 2
    45   48   42 2
    46   49   29 1
    47   50   29 2
    48   51   43 2
    49   52   43 2
    50   12   15 1
    51   17   41 1
    52   19   46 1
    53   25   27 ar
    54   30   49 1
    55   36   38 ar
@<TRIPOS>SUBSTRUCTURE
     1 RES1 1

@<TRIPOS>CRYSIN
   6.0590   17.9560   18.9820  90.0000  90.0000  90.0000  19 1

