# MOL2 file generated by ConQuest
# Please check atom types

@<TRIPOS>MOLECULE
KILGIY
    96   100     2
SMALL
NO_CHARGES
****
Generated from CSD

@<TRIPOS>ATOM
      1 O1        -0.7290   -0.0853    9.8138 O.3       1 RES1    0.0000
      2 O2         1.2039    0.4670    7.4923 O.3       1 RES1    0.0000
      3 O3        -0.3405    2.1014    7.6793 O.3       1 RES1    0.0000
      4 O4         1.8059    3.2521   11.0835 O.3       1 RES1    0.0000
      5 O5        -0.1383    3.9516   13.3665 O.3       1 RES1    0.0000
      6 O6        -0.5136   -1.9301   11.1159 O.3       1 RES1    0.0000
      7 O7         0.3813   -3.8849   10.4768 O.2       1 RES1    0.0000
      8 N1         0.2219    0.7962   10.5681 N.3       1 RES1    0.0000
      9 C1         1.5137    0.4203    9.9297 C.3       1 RES1    0.0000
     10 H1         2.2734    0.6422   10.5408 H         1 RES1    0.0000
     11 C2         1.6342    1.2313    8.6259 C.3       1 RES1    0.0000
     12 H2         2.5563    1.5964    8.4995 H         1 RES1    0.0000
     13 C3         0.5818    2.3567    8.7414 C.3       1 RES1    0.0000
     14 H3         0.9988    3.2620    8.6595 H         1 RES1    0.0000
     15 C4        -0.0975    2.1661   10.1047 C.3       1 RES1    0.0000
     16 H4        -1.0876    2.2527    9.9934 H         1 RES1    0.0000
     17 C5         0.3801    3.1707   11.1556 C.3       1 RES1    0.0000
     18 H5         0.0046    4.0677   10.9226 H         1 RES1    0.0000
     19 C6         2.3254    4.4486   11.6512 C.3       1 RES1    0.0000
     20 H6         1.8078    5.2152   11.3275 H         1 RES1    0.0000
     21 H7         3.2638    4.5541   11.3891 H         1 RES1    0.0000
     22 H8         2.2624    4.4009   12.6279 H         1 RES1    0.0000
     23 C7        -0.1177    2.7942   12.5379 C.3       1 RES1    0.0000
     24 H9        -1.0289    2.4124   12.4732 H         1 RES1    0.0000
     25 H10        0.4777    2.1093   12.9335 H         1 RES1    0.0000
     26 C8        -0.5586    3.6354   14.6833 C.3       1 RES1    0.0000
     27 H11       -1.4346    3.1969   14.6501 H         1 RES1    0.0000
     28 H12       -0.6253    4.4583   15.2114 H         1 RES1    0.0000
     29 H13        0.0928    3.0325   15.0986 H         1 RES1    0.0000
     30 C9         1.4012   -1.0901    9.7676 C.3       1 RES1    0.0000
     31 H14        1.8758   -1.5652   10.4949 H         1 RES1    0.0000
     32 H15        1.7648   -1.3853    8.8954 H         1 RES1    0.0000
     33 C10       -0.1100   -1.3238    9.8461 C.3       1 RES1    0.0000
     34 H16       -0.4163   -1.8866    9.0783 H         1 RES1    0.0000
     35 C11       -0.2266   -3.2270   11.2800 C.2       1 RES1    0.0000
     36 C12       -0.7744   -3.7381   12.5787 C.3       1 RES1    0.0000
     37 H17       -0.5362   -3.1189   13.3000 H         1 RES1    0.0000
     38 H18       -0.3951   -4.6216   12.7682 H         1 RES1    0.0000
     39 H19       -1.7499   -3.8078   12.5168 H         1 RES1    0.0000
     40 C13        0.3621    1.3139    6.7182 C.3       1 RES1    0.0000
     41 C14       -0.6376    0.4722    5.9670 C.3       1 RES1    0.0000
     42 H20       -0.1665   -0.0988    5.3246 H         1 RES1    0.0000
     43 H21       -1.2620    1.0563    5.4882 H         1 RES1    0.0000
     44 H22       -1.1337   -0.0880    6.5995 H         1 RES1    0.0000
     45 C15        1.2043    2.1954    5.8105 C.3       1 RES1    0.0000
     46 H23        1.8486    2.6991    6.3504 H         1 RES1    0.0000
     47 H24        0.6219    2.8200    5.3299 H         1 RES1    0.0000
     48 H25        1.6853    1.6353    5.1660 H         1 RES1    0.0000
     49 O8         2.6241    7.4605    3.9328 O.3       2 RES2    0.0000
     50 O9         4.1885    6.7338    6.5582 O.3       2 RES2    0.0000
     51 O10        2.5084    5.2829    6.1623 O.3       2 RES2    0.0000
     52 O11        4.9439    3.9113    2.9894 O.3       2 RES2    0.0000
     53 O12        3.0812    3.1914    0.6531 O.3       2 RES2    0.0000
     54 O13        3.3793    9.3474    2.7870 O.3       2 RES2    0.0000
     55 O14        1.6305   10.6256    3.4005 O.2       2 RES2    0.0000
     56 N2         3.5839    6.4604    3.3635 N.3       2 RES2    0.0000
     57 C16        4.8002    6.7186    4.1821 C.3       2 RES2    0.0000
     58 H26        5.6148    6.4243    3.6825 H         2 RES2    0.0000
     59 C17        4.6680    5.9142    5.4869 C.3       2 RES2    0.0000
     60 H27        5.5230    5.4547    5.7266 H         2 RES2    0.0000
     61 C18        3.5294    4.9069    5.2412 C.3       2 RES2    0.0000
     62 H28        3.8298    3.9635    5.3824 H         2 RES2    0.0000
     63 C19        3.0544    5.1464    3.8014 C.3       2 RES2    0.0000
     64 H29        2.0549    5.1771    3.7890 H         2 RES2    0.0000
     65 C20        3.5306    4.0690    2.8336 C.3       2 RES2    0.0000
     66 H30        3.0933    3.2072    3.0910 H         2 RES2    0.0000
     67 C21        5.4440    2.6902    2.4502 C.3       2 RES2    0.0000
     68 H31        5.4094    2.7268    1.4715 H         2 RES2    0.0000
     69 H32        4.8955    1.9433    2.7689 H         2 RES2    0.0000
     70 H33        6.3715    2.5610    2.7395 H         2 RES2    0.0000
     71 C22        3.1231    4.3944    1.4104 C.3       2 RES2    0.0000
     72 H34        2.2323    4.8264    1.4057 H         2 RES2    0.0000
     73 H35        3.7749    5.0222    1.0088 H         2 RES2    0.0000
     74 C23        2.7969    3.4280   -0.7095 C.3       2 RES2    0.0000
     75 H36        2.7370    2.5723   -1.1838 H         2 RES2    0.0000
     76 H37        3.5122    3.9700   -1.1029 H         2 RES2    0.0000
     77 H38        1.9446    3.9051   -0.7875 H         2 RES2    0.0000
     78 C24        4.8165    8.2352    4.3536 C.3       2 RES2    0.0000
     79 H39        5.4434    8.6601    3.7161 H         2 RES2    0.0000
     80 H40        5.0718    8.4877    5.2761 H         2 RES2    0.0000
     81 C25        3.3707    8.6325    4.0532 C.3       2 RES2    0.0000
     82 H41        3.0046    9.2107    4.7824 H         2 RES2    0.0000
     83 C26        2.4430   10.2920    2.5874 C.2       2 RES2    0.0000
     84 C27        2.5602   10.8581    1.2036 C.3       2 RES2    0.0000
     85 H42        3.5066   10.9396    0.9631 H         2 RES2    0.0000
     86 H43        2.1386   11.7424    1.1755 H         2 RES2    0.0000
     87 H44        2.1117   10.2622    0.5677 H         2 RES2    0.0000
     88 C28        3.1423    6.0240    7.2073 C.3       2 RES2    0.0000
     89 C29        2.1518    7.0188    7.7549 C.3       2 RES2    0.0000
     90 H45        2.5749    7.5427    8.4670 H         2 RES2    0.0000
     91 H46        1.3761    6.5419    8.1172 H         2 RES2    0.0000
     92 H47        1.8604    7.6188    7.0370 H         2 RES2    0.0000
     93 C30        3.7080    5.0917    8.2550 C.3       2 RES2    0.0000
     94 H48        4.3158    4.4518    7.8291 H         2 RES2    0.0000
     95 H49        2.9760    4.6068    8.6903 H         2 RES2    0.0000
     96 H50        4.1987    5.6123    8.9248 H         2 RES2    0.0000
@<TRIPOS>BOND
     1    1    8 1
     2    2   11 1
     3    3   13 1
     4    4   17 1
     5    5   23 1
     6    6   33 1
     7    7   35 2
     8    8    9 1
     9    9   10 1
    10   11    9 1
    11   12   11 1
    12   13   11 1
    13   14   13 1
    14   15    8 1
    15   16   15 1
    16   17   15 1
    17   18   17 1
    18   19    4 1
    19   20   19 1
    20   21   19 1
    21   22   19 1
    22   23   17 1
    23   24   23 1
    24   25   23 1
    25   26    5 1
    26   27   26 1
    27   28   26 1
    28   29   26 1
    29   30    9 1
    30   31   30 1
    31   32   30 1
    32   33    1 1
    33   34   33 1
    34   35    6 1
    35   36   35 1
    36   37   36 1
    37   38   36 1
    38   39   36 1
    39   40    2 1
    40   41   40 1
    41   42   41 1
    42   43   41 1
    43   44   41 1
    44   45   40 1
    45   46   45 1
    46   47   45 1
    47   48   45 1
    48   49   56 1
    49   50   59 1
    50   51   61 1
    51   52   65 1
    52   53   71 1
    53   54   81 1
    54   55   83 2
    55   56   57 1
    56   57   58 1
    57   59   57 1
    58   60   59 1
    59   61   59 1
    60   62   61 1
    61   63   56 1
    62   64   63 1
    63   65   63 1
    64   66   65 1
    65   67   52 1
    66   68   67 1
    67   69   67 1
    68   70   67 1
    69   71   65 1
    70   72   71 1
    71   73   71 1
    72   74   53 1
    73   75   74 1
    74   76   74 1
    75   77   74 1
    76   78   57 1
    77   79   78 1
    78   80   78 1
    79   81   49 1
    80   82   81 1
    81   83   54 1
    82   84   83 1
    83   85   84 1
    84   86   84 1
    85   87   84 1
    86   88   50 1
    87   89   88 1
    88   90   89 1
    89   91   89 1
    90   92   89 1
    91   93   88 1
    92   94   93 1
    93   95   93 1
    94   96   93 1
    95    3   40 1
    96   13   15 1
    97   30   33 1
    98   51   88 1
    99   61   63 1
   100   78   81 1
@<TRIPOS>SUBSTRUCTURE
     1 RES1 1
     2 RES2 49

@<TRIPOS>CRYSIN
   5.4548   11.0113   14.6664 106.9930  92.8510  91.6490   1 1

