# MOL2 file generated by ConQuest
# Please check atom types

@<TRIPOS>MOLECULE
KILGEU
   176    94     3
SMALL
USER_CHARGES
****
Generated from CSD

@<TRIPOS>ATOM
      1 N1         5.0246    4.9584   15.8188 Du        3 SUP3    0.0000
      2 C1         5.8658    3.9780   15.8275 Du        3 SUP3    0.0000
      3 H1         5.6923    3.1384   16.2382 Du        3 SUP3    0.0000
      4 C2         7.1145    4.3082   15.1257 Du        3 SUP3    0.0000
      5 H2         7.8818    4.4342   15.7548 Du        3 SUP3    0.0000
      6 C3         6.7571    5.6084   14.3760 Du        3 SUP3    0.0000
      7 H3         7.5146    6.2566   14.3529 Du        3 SUP3    0.0000
      8 C4         5.5338    6.1677   15.1083 Du        3 SUP3    0.0000
      9 H4         4.8585    6.4720   14.4390 Du        3 SUP3    0.0000
     10 C5         5.8317    7.3079   16.0782 Du        3 SUP3    0.0000
     11 H5         6.0887    8.1359   15.5774 Du        3 SUP3    0.0000
     12 O1         3.8057    4.9558   16.2155 Du        3 SUP3    0.0000
     13 O2         7.4124    3.3779   14.0839 Du        3 SUP3    0.0000
     14 O3         6.3963    5.1565   13.0901 Du        3 SUP3    0.0000
     15 O4         6.8958    6.9119   16.9630 Du        3 SUP3    0.0000
     16 O5         4.9816    6.7570   18.1705 Du        3 SUP3    0.0000
     17 C6         4.6910    7.6086   17.0546 Du        3 SUP3    0.0000
     18 H6         4.6943    8.5606   17.3249 Du        3 SUP3    0.0000
     19 H7         3.8139    7.3872   16.6555 Du        3 SUP3    0.0000
     20 C7         7.2168    4.0183   12.8285 Du        3 SUP3    0.0000
     21 C8         6.4601    3.0674   11.9654 Du        3 SUP3    0.0000
     22 H8         6.3033    3.4760   11.0863 Du        3 SUP3    0.0000
     23 H9         6.9786    2.2428   11.8506 Du        3 SUP3    0.0000
     24 H10        5.5987    2.8547   12.3819 Du        3 SUP3    0.0000
     25 C9         8.5613    4.4136   12.2488 Du        3 SUP3    0.0000
     26 H11        8.4343    4.8539   11.3929 Du        3 SUP3    0.0000
     27 H12        9.0120    5.0261   12.8753 Du        3 SUP3    0.0000
     28 H13        9.1135    3.6102   12.1364 Du        3 SUP3    0.0000
     29 C10        6.4002    6.8332   18.2991 Du        3 SUP3    0.0000
     30 C11        6.8295    8.0212   19.1404 Du        3 SUP3    0.0000
     31 H14        6.6150    8.8537   18.6483 Du        3 SUP3    0.0000
     32 H15        6.3011    8.0246   19.9777 Du        3 SUP3    0.0000
     33 C12        8.3005    8.0307   19.4934 Du        3 SUP3    0.0000
     34 H16        8.4853    8.7954   20.0962 Du        3 SUP3    0.0000
     35 H17        8.8332    8.1553   18.6698 Du        3 SUP3    0.0000
     36 C13        8.7155    6.7375   20.1778 Du        3 SUP3    0.0000
     37 H18        9.6931    6.7352   20.3305 Du        3 SUP3    0.0000
     38 H19        8.2620    6.6562   21.0534 Du        3 SUP3    0.0000
     39 C14        8.3253    5.5675   19.2820 Du        3 SUP3    0.0000
     40 H20        8.8353    5.6240   18.4345 Du        3 SUP3    0.0000
     41 H21        8.5778    4.7194   19.7296 Du        3 SUP3    0.0000
     42 C15        6.8418    5.5458   18.9747 Du        3 SUP3    0.0000
     43 H22        6.3359    5.4274   19.8159 Du        3 SUP3    0.0000
     44 H23        6.6413    4.7807   18.3829 Du        3 SUP3    0.0000
     45 N2         5.0353    5.0784   15.4723 N.pl3     1 RES1    1.0000
     46 C16        5.9356    4.1575   15.5943 C.2       1 RES1    0.0000
     47 H24        5.7868    3.3290   16.0381 H         1 RES1    0.0000
     48 C17        7.2194    4.5340   14.9688 C.3       1 RES1    0.0000
     49 H25        7.9538    4.6744   15.6334 H         1 RES1    0.0000
     50 C18        6.8522    5.8173   14.1951 C.3       1 RES1    0.0000
     51 H26        7.5894    6.4913   14.2029 H         1 RES1    0.0000
     52 C19        5.5837    6.3331   14.8794 C.3       1 RES1    0.0000
     53 H27        4.9517    6.6943   14.1960 H         1 RES1    0.0000
     54 C20        5.9021    7.4071   15.9147 C.3       1 RES1    0.0000
     55 H28        6.0542    8.2812   15.4523 H         1 RES1    0.0000
     56 O6         3.8180    5.0587   15.8711 O.2       1 RES1   -1.0000
     57 O7         7.5562    3.5834   13.9553 O.3       1 RES1    0.0000
     58 O8         6.5647    5.3521   12.8961 O.3       1 RES1    0.0000
     59 O9         7.1006    7.0180   16.6034 O.3       1 RES1    0.0000
     60 O10        5.4257    6.8162   18.1138 O.3       1 RES1    0.0000
     61 C21        4.8928    7.5975   17.0437 C.3       1 RES1    0.0000
     62 H29        4.8249    8.5519   17.3001 H         1 RES1    0.0000
     63 H30        3.9978    7.2714   16.7764 H         1 RES1    0.0000
     64 C22        7.3523    4.1848   12.6825 C.3       1 RES1    0.0000
     65 C23        6.5705    3.2278   11.8412 C.3       1 RES1    0.0000
     66 H31        6.4186    3.6223   10.9572 H         1 RES1    0.0000
     67 H32        7.0739    2.3927   11.7445 H         1 RES1    0.0000
     68 H33        5.7100    3.0440   12.2704 H         1 RES1    0.0000
     69 C24        8.7098    4.5294   12.0984 C.3       1 RES1    0.0000
     70 H34        8.5900    4.9468   11.2198 H         1 RES1    0.0000
     71 H35        9.1698    5.1565   12.6966 H         1 RES1    0.0000
     72 H36        9.2436    3.7152   12.0052 H         1 RES1    0.0000
     73 C25        6.8427    6.9594   18.0048 C.3       1 RES1    0.0000
     74 C26        7.3247    8.2284   18.6892 C.3       1 RES1    0.0000
     75 H37        8.2885    8.3569   18.5022 H         1 RES1    0.0000
     76 H38        6.8355    9.0067   18.3206 H         1 RES1    0.0000
     77 C27        7.1062    8.1598   20.1887 C.3       1 RES1    0.0000
     78 H39        6.1361    8.1090   20.3794 H         1 RES1    0.0000
     79 H40        7.4594    8.9820   20.6122 H         1 RES1    0.0000
     80 C28        7.8020    6.9428   20.7837 C.3       1 RES1    0.0000
     81 H41        8.7827    7.0295   20.6595 H         1 RES1    0.0000
     82 H42        7.6208    6.8985   21.7556 H         1 RES1    0.0000
     83 C29        7.3185    5.6661   20.1168 C.3       1 RES1    0.0000
     84 H43        7.8269    4.8950   20.4728 H         1 RES1    0.0000
     85 H44        6.3619    5.5271   20.3297 H         1 RES1    0.0000
     86 C30        7.4945    5.7326   18.6086 C.3       1 RES1    0.0000
     87 H45        8.4613    5.7412   18.3943 H         1 RES1    0.0000
     88 H46        7.1005    4.9220   18.1991 H         1 RES1    0.0000
     89 N3         3.2437   -1.7978    6.2072 N.pl3     2 RES2    1.0000
     90 C31        2.7593   -0.6161    6.0895 C.2       2 RES2    0.0000
     91 H47        1.9389   -0.4176    5.6571 H         2 RES2    0.0000
     92 C32        3.6508    0.4168    6.7194 C.3       2 RES2    0.0000
     93 H48        4.0834    1.0068    6.0386 H         2 RES2    0.0000
     94 C33        4.6708   -0.4216    7.4779 C.3       2 RES2    0.0000
     95 H49        5.5849   -0.0250    7.4739 H         2 RES2    0.0000
     96 C34        4.6130   -1.8112    6.8197 C.3       2 RES2    0.0000
     97 H50        4.6780   -2.5279    7.5146 H         2 RES2    0.0000
     98 O11        2.7046   -2.9253    5.8411 O.2       2 RES2   -1.0000
     99 O12        4.1065   -0.5164    8.7747 O.3       2 RES2    0.0000
    100 C35        3.3135    0.6730    9.0122 C.3       2 RES2    0.0000
    101 O13        2.9561    1.1568    7.7045 O.3       2 RES2    0.0000
    102 C36        2.0798    0.2413    9.7184 C.3       2 RES2    0.0000
    103 H51        2.3102   -0.0930   10.6107 H         2 RES2    0.0000
    104 H52        1.4662    1.0014    9.8037 H         2 RES2    0.0000
    105 H53        1.6412   -0.4734    9.2075 H         2 RES2    0.0000
    106 C37        4.1362    1.6834    9.7271 C.3       2 RES2    0.0000
    107 H54        4.3774    1.3463   10.6160 H         2 RES2    0.0000
    108 H55        4.9574    1.8596    9.2156 H         2 RES2    0.0000
    109 H56        3.6300    2.5171    9.8212 H         2 RES2    0.0000
    110 C38        5.7044   -1.9848    5.7757 C.3       2 RES2    0.0000
    111 H57        6.5584   -2.2366    6.2304 H         2 RES2    0.0000
    112 C39        5.4133   -2.9818    4.6663 C.3       2 RES2    0.0000
    113 H58        6.2349   -3.4727    4.4074 H         2 RES2    0.0000
    114 H59        4.7238   -3.6334    4.9455 H         2 RES2    0.0000
    115 O14        4.9447   -2.1632    3.5896 O.3       2 RES2    0.0000
    116 C40        5.6465   -0.9277    3.6986 C.3       2 RES2    0.0000
    117 O15        5.8848   -0.7416    5.0869 O.3       2 RES2    0.0000
    118 C41        4.7599    0.2154    3.1603 C.3       2 RES2    0.0000
    119 H60        3.8871    0.2048    3.6290 H         2 RES2    0.0000
    120 H61        5.1949    1.0842    3.3345 H         2 RES2    0.0000
    121 C42        4.5354    0.0440    1.6608 C.3       2 RES2    0.0000
    122 H62        3.9378    0.7601    1.3287 H         2 RES2    0.0000
    123 H63        4.0995   -0.8279    1.4838 H         2 RES2    0.0000
    124 C43        5.9022    0.1105    0.9110 C.3       2 RES2    0.0000
    125 H64        5.7621    0.0369   -0.0663 H         2 RES2    0.0000
    126 H65        6.3571    0.9678    1.1015 H         2 RES2    0.0000
    127 C44        6.7547   -1.0777    1.4210 C.3       2 RES2    0.0000
    128 H66        6.2904   -1.9289    1.2280 H         2 RES2    0.0000
    129 H67        7.6265   -1.0864    0.9521 H         2 RES2    0.0000
    130 C45        6.9861   -0.9462    2.9423 C.3       2 RES2    0.0000
    131 H68        7.5346   -1.7065    3.2607 H         2 RES2    0.0000
    132 H69        7.4832   -0.1100    3.1312 H         2 RES2    0.0000
    133 N4         3.0794   -1.7770    5.7539 Du        3 SUP3    0.0000
    134 C46        2.6137   -0.5923    5.6798 Du        3 SUP3    0.0000
    135 H70        1.8230   -0.3509    5.2102 Du        3 SUP3    0.0000
    136 C47        3.4816    0.3722    6.4317 Du        3 SUP3    0.0000
    137 H71        3.9327    1.0231    5.8239 Du        3 SUP3    0.0000
    138 C48        4.4830   -0.5218    7.1509 Du        3 SUP3    0.0000
    139 H72        5.4030   -0.1254    7.1670 Du        3 SUP3    0.0000
    140 C49        4.4364   -1.8640    6.4121 Du        3 SUP3    0.0000
    141 H73        4.4403   -2.6161    7.0734 Du        3 SUP3    0.0000
    142 O16        2.5860   -2.8705    5.2439 Du        3 SUP3    0.0000
    143 O17        3.9241   -0.6447    8.4477 Du        3 SUP3    0.0000
    144 C50        3.2384    0.5999    8.7354 Du        3 SUP3    0.0000
    145 O18        2.7387    1.0157    7.4452 Du        3 SUP3    0.0000
    146 C51        2.0809    0.2717    9.6116 Du        3 SUP3    0.0000
    147 H74        2.4130   -0.0100   10.4918 Du        3 SUP3    0.0000
    148 H75        1.5183    1.0673    9.7172 Du        3 SUP3    0.0000
    149 H76        1.5611   -0.4502    9.2106 Du        3 SUP3    0.0000
    150 C52        4.1832    1.6314    9.2476 Du        3 SUP3    0.0000
    151 H77        4.5237    1.3572   10.1239 Du        3 SUP3    0.0000
    152 H78        4.9295    1.7315    8.6219 Du        3 SUP3    0.0000
    153 H79        3.7137    2.4896    9.3348 Du        3 SUP3    0.0000
    154 C53        5.5719   -2.0405    5.4226 Du        3 SUP3    0.0000
    155 H80        6.4283   -2.1370    5.9309 Du        3 SUP3    0.0000
    156 C54        5.4407   -3.2148    4.4680 Du        3 SUP3    0.0000
    157 H81        6.3242   -3.5796    4.2146 Du        3 SUP3    0.0000
    158 H82        4.8879   -3.9393    4.8590 Du        3 SUP3    0.0000
    159 O19        4.7855   -2.6055    3.3499 Du        3 SUP3    0.0000
    160 C55        5.3774   -1.3243    3.2431 Du        3 SUP3    0.0000
    161 O20        5.6649   -0.8848    4.5791 Du        3 SUP3    0.0000
    162 C56        4.3559   -0.3756    2.5958 Du        3 SUP3    0.0000
    163 H83        4.0689   -0.7537    1.7299 Du        3 SUP3    0.0000
    164 H84        3.5640   -0.3082    3.1806 Du        3 SUP3    0.0000
    165 C57        4.9128    1.0209    2.3604 Du        3 SUP3    0.0000
    166 H85        5.1778    1.4229    3.2255 Du        3 SUP3    0.0000
    167 H86        4.2136    1.5913    1.9558 Du        3 SUP3    0.0000
    168 C58        6.1500    0.9563    1.4123 Du        3 SUP3    0.0000
    169 H87        5.8916    0.5826    0.5330 Du        3 SUP3    0.0000
    170 H88        6.5229    1.8633    1.2711 Du        3 SUP3    0.0000
    171 C59        7.2011    0.0463    2.0901 Du        3 SUP3    0.0000
    172 H89        7.9927   -0.0285    1.5007 Du        3 SUP3    0.0000
    173 H90        7.4946    0.4692    2.9374 Du        3 SUP3    0.0000
    174 C60        6.6653   -1.3629    2.3931 Du        3 SUP3    0.0000
    175 H91        7.3558   -1.8793    2.8750 Du        3 SUP3    0.0000
    176 H92        6.4748   -1.8284    1.5395 Du        3 SUP3    0.0000
@<TRIPOS>BOND
     1   45   46 2
     2   46   47 1
     3   48   46 1
     4   49   48 1
     5   50   48 1
     6   51   50 1
     7   52   45 1
     8   53   52 1
     9   54   52 1
    10   55   54 1
    11   56   45 1
    12   57   48 1
    13   58   50 1
    14   59   54 1
    15   60   61 1
    16   61   54 1
    17   62   61 1
    18   63   61 1
    19   64   57 1
    20   65   64 1
    21   66   65 1
    22   67   65 1
    23   68   65 1
    24   69   64 1
    25   70   69 1
    26   71   69 1
    27   72   69 1
    28   73   59 1
    29   74   73 1
    30   75   74 1
    31   76   74 1
    32   77   74 1
    33   78   77 1
    34   79   77 1
    35   80   77 1
    36   81   80 1
    37   82   80 1
    38   83   80 1
    39   84   83 1
    40   85   83 1
    41   86   73 1
    42   87   86 1
    43   88   86 1
    44   89   90 2
    45   90   91 1
    46   92   90 1
    47   93   92 1
    48   94   92 1
    49   95   94 1
    50   96   89 1
    51   97   96 1
    52   98   89 1
    53   99   94 1
    54  100   99 1
    55  101   92 1
    56  102  100 1
    57  103  102 1
    58  104  102 1
    59  105  102 1
    60  106  100 1
    61  107  106 1
    62  108  106 1
    63  109  106 1
    64  110   96 1
    65  111  110 1
    66  112  110 1
    67  113  112 1
    68  114  112 1
    69  115  112 1
    70  116  115 1
    71  117  110 1
    72  118  116 1
    73  119  118 1
    74  120  118 1
    75  121  118 1
    76  122  121 1
    77  123  121 1
    78  124  121 1
    79  125  124 1
    80  126  124 1
    81  127  124 1
    82  128  127 1
    83  129  127 1
    84  130  116 1
    85  131  130 1
    86  132  130 1
    87   50   52 1
    88   58   64 1
    89   60   73 1
    90   83   86 1
    91   94   96 1
    92  100  101 1
    93  116  117 1
    94  127  130 1
@<TRIPOS>SUBSTRUCTURE
     1 RES1 45
     2 RES2 89
     3 SUP3 1

@<TRIPOS>CRYSIN
   6.2400    6.2329   21.9409  88.3030  83.4980  64.6730   1 1

