# MOL2 file generated by ConQuest
# Please check atom types

@<TRIPOS>MOLECULE
KILGOE
   192   200     4
SMALL
NO_CHARGES
****
Generated from CSD

@<TRIPOS>ATOM
      1 O1        -5.2234    4.5082    2.5170 O.3       1 RES1    0.0000
      2 O2        -2.6469    7.3913    0.8956 O.3       1 RES1    0.0000
      3 O3        -4.6926    8.0162    0.1728 O.3       1 RES1    0.0000
      4 O4        -7.4781    4.2718    0.4320 O.3       1 RES1    0.0000
      5 O5        -7.7273    6.4368   -1.3041 O.3       1 RES1    0.0000
      6 O6        -4.3498    2.4010    3.0142 O.3       1 RES1    0.0000
      7 O7        -5.9697    2.4885    4.5761 O.2       1 RES1    0.0000
      8 N1        -4.8092    4.6043    1.0786 N.3       1 RES1    0.0000
      9 C1        -3.4311    5.1100    1.2696 C.3       1 RES1    0.0000
     10 H1        -2.8968    5.0037    0.4311 H         1 RES1    0.0000
     11 C2        -3.5575    6.5911    1.6465 C.3       1 RES1    0.0000
     12 H2        -3.4444    6.7308    2.6303 H         1 RES1    0.0000
     13 C3        -4.9600    7.0238    1.1700 C.3       1 RES1    0.0000
     14 H3        -5.5139    7.3869    1.9193 H         1 RES1    0.0000
     15 C4        -5.5804    5.7474    0.5594 C.3       1 RES1    0.0000
     16 H4        -5.4475    5.7839   -0.4311 H         1 RES1    0.0000
     17 C5        -7.0726    5.5758    0.8270 C.3       1 RES1    0.0000
     18 H5        -7.2332    5.6746    1.8092 H         1 RES1    0.0000
     19 C6        -8.1760    3.5623    1.4253 C.3       1 RES1    0.0000
     20 H6        -8.3861    2.6628    1.0976 H         1 RES1    0.0000
     21 H7        -9.0075    4.0341    1.6405 H         1 RES1    0.0000
     22 H8        -7.6207    3.4953    2.2300 H         1 RES1    0.0000
     23 C7        -7.9135    6.6079    0.0944 C.3       1 RES1    0.0000
     24 H9        -8.8687    6.4909    0.3251 H         1 RES1    0.0000
     25 H10       -7.6373    7.5200    0.3627 H         1 RES1    0.0000
     26 C8        -8.7473    7.0646   -2.0586 C.3       1 RES1    0.0000
     27 H11       -8.5904    6.9079   -3.0133 H         1 RES1    0.0000
     28 H12       -8.7407    8.0275   -1.8797 H         1 RES1    0.0000
     29 H13       -9.6175    6.6908   -1.8054 H         1 RES1    0.0000
     30 C9        -2.9001    4.1914    2.3671 C.3       1 RES1    0.0000
     31 H14       -2.4705    3.3851    1.9853 H         1 RES1    0.0000
     32 H15       -2.2508    4.6621    2.9478 H         1 RES1    0.0000
     33 C10       -4.1710    3.8342    3.1313 C.3       1 RES1    0.0000
     34 H16       -4.0932    4.1026    4.0914 H         1 RES1    0.0000
     35 C11       -5.3341    1.8606    3.7699 C.2       1 RES1    0.0000
     36 C12       -5.5280    0.4206    3.4392 C.3       1 RES1    0.0000
     37 H17       -6.0890    0.3420    2.6393 H         1 RES1    0.0000
     38 H18       -5.9662   -0.0309    4.1907 H         1 RES1    0.0000
     39 H19       -4.6576    0.0038    3.2701 H         1 RES1    0.0000
     40 C13       -3.3801    8.5151    0.4114 C.3       1 RES1    0.0000
     41 C14       -3.3840    9.6293    1.4469 C.3       1 RES1    0.0000
     42 H20       -3.8329    9.3178    2.2604 H         1 RES1    0.0000
     43 H21       -3.8603   10.4070    1.0882 H         1 RES1    0.0000
     44 H22       -2.4609    9.8810    1.6592 H         1 RES1    0.0000
     45 C15       -2.7623    8.9430   -0.8989 C.3       1 RES1    0.0000
     46 H23       -1.8258    9.1932   -0.7521 H         1 RES1    0.0000
     47 H24       -3.2533    9.7118   -1.2563 H         1 RES1    0.0000
     48 H25       -2.8054    8.2015   -1.5382 H         1 RES1    0.0000
     49 O8         1.4226    8.2215    4.9070 O.3       2 RES2    0.0000
     50 O9        -0.9101    4.6455    4.8364 O.3       2 RES2    0.0000
     51 O10        0.3788    4.4908    6.7001 O.3       2 RES2    0.0000
     52 O11        4.2538    6.4826    5.2912 O.3       2 RES2    0.0000
     53 O12        4.4336    5.7588    8.0043 O.3       2 RES2    0.0000
     54 O13        1.5717    9.4233    2.9753 O.3       2 RES2    0.0000
     55 O14       -0.0005   10.8626    2.2850 O.2       2 RES2    0.0000
     56 N2         1.5409    6.8810    4.2391 N.3       2 RES2    0.0000
     57 C16        0.1083    6.6355    3.9094 C.3       2 RES2    0.0000
     58 H26        0.0492    5.9998    3.1397 H         2 RES2    0.0000
     59 C17       -0.5446    5.9992    5.1473 C.3       2 RES2    0.0000
     60 H27       -1.3097    6.5364    5.5017 H         2 RES2    0.0000
     61 C18        0.5745    5.8107    6.1742 C.3       2 RES2    0.0000
     62 H28        0.5369    6.5045    6.8933 H         2 RES2    0.0000
     63 C19        1.8575    5.9370    5.3258 C.3       2 RES2    0.0000
     64 H29        2.0328    5.0450    4.9092 H         2 RES2    0.0000
     65 C20        3.1057    6.3275    6.1253 C.3       2 RES2    0.0000
     66 H30        2.9303    7.1905    6.5991 H         2 RES2    0.0000
     67 C21        4.6148    7.8220    5.0494 C.3       2 RES2    0.0000
     68 H31        3.9596    8.2330    4.4470 H         2 RES2    0.0000
     69 H32        5.5024    7.8518    4.6359 H         2 RES2    0.0000
     70 H33        4.6321    8.3137    5.8970 H         2 RES2    0.0000
     71 C22        3.4115    5.2587    7.1507 C.3       2 RES2    0.0000
     72 H34        2.5995    5.0486    7.6771 H         2 RES2    0.0000
     73 H35        3.7163    4.4312    6.7010 H         2 RES2    0.0000
     74 C23        4.6538    4.9127    9.1160 C.3       2 RES2    0.0000
     75 H36        4.9064    4.0197    8.8018 H         2 RES2    0.0000
     76 H37        3.8322    4.8517    9.6473 H         2 RES2    0.0000
     77 H38        5.3738    5.2808    9.6692 H         2 RES2    0.0000
     78 C24       -0.4030    8.0082    3.4738 C.3       2 RES2    0.0000
     79 H39       -0.4686    8.0681    2.4878 H         2 RES2    0.0000
     80 H40       -1.2890    8.2015    3.8700 H         2 RES2    0.0000
     81 C25        0.6592    8.9591    4.0123 C.3       2 RES2    0.0000
     82 H41        0.2314    9.7356    4.4749 H         2 RES2    0.0000
     83 C26        1.1307   10.4375    2.2219 C.2       2 RES2    0.0000
     84 C27        2.2104   10.9675    1.3297 C.3       2 RES2    0.0000
     85 H42        2.9915   11.2090    1.8698 H         2 RES2    0.0000
     86 H43        1.8826   11.7606    0.8563 H         2 RES2    0.0000
     87 H44        2.4630   10.2799    0.6788 H         2 RES2    0.0000
     88 C28       -0.7067    3.8634    6.0024 C.3       2 RES2    0.0000
     89 C29       -1.9427    3.8610    6.8804 C.3       2 RES2    0.0000
     90 H45       -2.1579    4.7801    7.1441 H         2 RES2    0.0000
     91 H46       -1.7737    3.3225    7.6815 H         2 RES2    0.0000
     92 H47       -2.6960    3.4792    6.3831 H         2 RES2    0.0000
     93 C30       -0.2939    2.4739    5.5658 C.3       2 RES2    0.0000
     94 H48       -0.9926    2.0899    4.9956 H         2 RES2    0.0000
     95 H49       -0.1686    1.9071    6.3553 H         2 RES2    0.0000
     96 H50        0.5459    2.5251    5.0636 H         2 RES2    0.0000
     97 O15        9.6683    8.6977    9.5955 O.3       3 RES3    0.0000
     98 O16       12.5210   11.5114    8.1221 O.3       3 RES3    0.0000
     99 O17       10.5145   12.2722    7.3591 O.3       3 RES3    0.0000
    100 O18        7.5198    8.7231    7.2055 O.3       3 RES3    0.0000
    101 O19        7.7407   11.0761    5.6537 O.3       3 RES3    0.0000
    102 O20       10.4320    6.5258    9.9825 O.3       3 RES3    0.0000
    103 O21        8.8836    6.4560   11.6136 O.2       3 RES3    0.0000
    104 N3        10.1849    8.8077    8.1895 N.3       3 RES3    0.0000
    105 C31       11.5752    9.2271    8.4757 C.3       3 RES3    0.0000
    106 H51       12.1558    9.0633    7.6784 H         3 RES3    0.0000
    107 C32       11.5370   10.7285    8.8050 C.3       3 RES3    0.0000
    108 H52       11.6021   10.8705    9.7928 H         3 RES3    0.0000
    109 C33       10.1870   11.2306    8.2810 C.3       3 RES3    0.0000
    110 H53        9.6242   11.5825    9.0292 H         3 RES3    0.0000
    111 C34        9.5228    9.9941    7.6290 C.3       3 RES3    0.0000
    112 H54        9.7428   10.0212    6.6539 H         3 RES3    0.0000
    113 C35        8.0060    9.9455    7.7459 C.3       3 RES3    0.0000
    114 H55        7.7576    9.9885    8.7138 H         3 RES3    0.0000
    115 C36        6.7439    7.9789    8.0923 C.3       3 RES3    0.0000
    116 H56        6.3773    7.1972    7.6284 H         3 RES3    0.0000
    117 H57        6.0087    8.5338    8.4276 H         3 RES3    0.0000
    118 H58        7.2989    7.6830    8.8432 H         3 RES3    0.0000
    119 C37        7.3504   11.1058    7.0254 C.3       3 RES3    0.0000
    120 H59        6.3658   11.0348    7.0976 H         3 RES3    0.0000
    121 H60        7.6319   11.9608    7.4376 H         3 RES3    0.0000
    122 C38        7.0524   12.0146    4.8725 C.3       3 RES3    0.0000
    123 H61        7.3795   11.9727    3.9494 H         3 RES3    0.0000
    124 H62        7.2040   12.9128    5.2326 H         3 RES3    0.0000
    125 H63        6.0939   11.8125    4.8890 H         3 RES3    0.0000
    126 C39       11.9847    8.3136    9.6202 C.3       3 RES3    0.0000
    127 H64       12.5552    8.7902   10.2738 H         3 RES3    0.0000
    128 H65       12.4674    7.5157    9.2879 H         3 RES3    0.0000
    129 C40       10.6415    7.9318   10.2333 C.3       3 RES3    0.0000
    130 H66       10.6412    8.1150   11.2164 H         3 RES3    0.0000
    131 C41        9.4881    5.9053   10.7376 C.2       3 RES3    0.0000
    132 C42        9.3354    4.4816   10.3258 C.3       3 RES3    0.0000
    133 H67        8.9065    4.4406    9.4455 H         3 RES3    0.0000
    134 H68        8.7804    4.0098   10.9816 H         3 RES3    0.0000
    135 H69       10.2177    4.0582   10.2795 H         3 RES3    0.0000
    136 C43       11.8947   12.1645    7.0183 C.3       3 RES3    0.0000
    137 C44       12.4727   13.5626    6.9176 C.3       3 RES3    0.0000
    138 H70       12.3122   14.0436    7.7561 H         3 RES3    0.0000
    139 H71       12.0428   14.0415    6.1786 H         3 RES3    0.0000
    140 H72       13.4372   13.5059    6.7530 H         3 RES3    0.0000
    141 C45       12.0887   11.3743    5.7289 C.3       3 RES3    0.0000
    142 H73       13.0430   11.3368    5.5095 H         3 RES3    0.0000
    143 H74       11.6028   11.8138    5.0001 H         3 RES3    0.0000
    144 H75       11.7449   10.4644    5.8486 H         3 RES3    0.0000
    145 O22       -7.6892   -0.2292   11.2969 O.3       4 RES4    0.0000
    146 C46       -9.9685   -2.3691   11.7605 C.3       4 RES4    0.0000
    147 H76      -10.7457   -1.8733   12.1481 H         4 RES4    0.0000
    148 O23       -9.0711   -3.8548   13.3392 O.3       4 RES4    0.0000
    149 O24       -5.1984   -2.0413   11.7271 O.3       4 RES4    0.0000
    150 O25       -4.9021   -2.7750   14.4637 O.3       4 RES4    0.0000
    151 O26      -10.2912   -3.7218   11.4115 O.3       4 RES4    0.0000
    152 O27       -7.9320    0.7533    9.1782 O.3       4 RES4    0.0000
    153 O28       -6.3473    2.0862   10.0766 O.2       4 RES4    0.0000
    154 N4        -7.8773   -1.6041   10.7519 N.3       4 RES4    0.0000
    155 C47       -9.3647   -1.6655   10.5416 C.3       4 RES4    0.0000
    156 H77       -9.5658   -2.1926    9.7160 H         4 RES4    0.0000
    157 C48       -8.8353   -2.5628   12.7595 C.3       4 RES4    0.0000
    158 H78       -8.8256   -1.8421   13.4526 H         4 RES4    0.0000
    159 C49       -7.5734   -2.5187   11.8714 C.3       4 RES4    0.0000
    160 H79       -7.4436   -3.4327   11.4870 H         4 RES4    0.0000
    161 C50       -6.2960   -2.1519   12.6290 C.3       4 RES4    0.0000
    162 H80       -6.4304   -1.2731   13.0868 H         4 RES4    0.0000
    163 C51       -4.5483   -0.7792   11.7766 C.3       4 RES4    0.0000
    164 H81       -3.8314   -0.7545   11.1089 H         4 RES4    0.0000
    165 H82       -4.1679   -0.6424   12.6694 H         4 RES4    0.0000
    166 H83       -5.1969   -0.0698   11.5858 H         4 RES4    0.0000
    167 C52       -6.0015   -3.2134   13.6744 C.3       4 RES4    0.0000
    168 H84       -6.7960   -3.3532   14.2483 H         4 RES4    0.0000
    169 H85       -5.7806   -4.0716   13.2329 H         4 RES4    0.0000
    170 C53       -4.6992   -3.6179   15.5876 C.3       4 RES4    0.0000
    171 H86       -4.5653   -4.5401   15.2844 H         4 RES4    0.0000
    172 H87       -5.4844   -3.5770   16.1726 H         4 RES4    0.0000
    173 H88       -3.9077   -3.3184   16.0819 H         4 RES4    0.0000
    174 C54       -9.7941   -0.2074   10.3391 C.3       4 RES4    0.0000
    175 H89      -10.1839   -0.0727    9.4390 H         4 RES4    0.0000
    176 H90      -10.4565    0.0670   11.0220 H         4 RES4    0.0000
    177 C55       -8.4995    0.5654   10.4939 C.3       4 RES4    0.0000
    178 H91       -8.6687    1.4483   10.9318 H         4 RES4    0.0000
    179 C56       -6.8384    1.5541    9.1130 C.2       4 RES4    0.0000
    180 C57       -6.3592    1.6913    7.7016 C.3       4 RES4    0.0000
    181 H92       -6.3815    0.8154    7.2626 H         4 RES4    0.0000
    182 H93       -5.4417    2.0347    7.6999 H         4 RES4    0.0000
    183 H94       -6.9421    2.3137    7.2181 H         4 RES4    0.0000
    184 C58      -10.0952   -4.5245   12.5726 C.3       4 RES4    0.0000
    185 C59      -11.3517   -4.6107   13.4184 C.3       4 RES4    0.0000
    186 H95      -11.1484   -5.0730   14.2584 H         4 RES4    0.0000
    187 H96      -12.0403   -5.1078   12.9301 H         4 RES4    0.0000
    188 H97      -11.6766   -3.7071   13.6132 H         4 RES4    0.0000
    189 C60       -9.6144   -5.8805   12.1149 C.3       4 RES4    0.0000
    190 H98       -8.7443   -5.7874   11.6744 H         4 RES4    0.0000
    191 H99      -10.2612   -6.2601   11.4838 H         4 RES4    0.0000
    192 H100      -9.5270   -6.4745   12.8895 H         4 RES4    0.0000
@<TRIPOS>BOND
     1    1    8 1
     2    2   11 1
     3    3   13 1
     4    4   17 1
     5    5   23 1
     6    6   33 1
     7    7   35 2
     8    8    9 1
     9    9   10 1
    10   11    9 1
    11   12   11 1
    12   13   11 1
    13   14   13 1
    14   15    8 1
    15   16   15 1
    16   17   15 1
    17   18   17 1
    18   19    4 1
    19   20   19 1
    20   21   19 1
    21   22   19 1
    22   23   17 1
    23   24   23 1
    24   25   23 1
    25   26    5 1
    26   27   26 1
    27   28   26 1
    28   29   26 1
    29   30    9 1
    30   31   30 1
    31   32   30 1
    32   33    1 1
    33   34   33 1
    34   35    6 1
    35   36   35 1
    36   37   36 1
    37   38   36 1
    38   39   36 1
    39   40    2 1
    40   41   40 1
    41   42   41 1
    42   43   41 1
    43   44   41 1
    44   45   40 1
    45   46   45 1
    46   47   45 1
    47   48   45 1
    48   49   56 1
    49   50   59 1
    50   51   61 1
    51   52   65 1
    52   53   71 1
    53   54   81 1
    54   55   83 2
    55   56   57 1
    56   57   58 1
    57   59   57 1
    58   60   59 1
    59   61   59 1
    60   62   61 1
    61   63   56 1
    62   64   63 1
    63   65   63 1
    64   66   65 1
    65   67   52 1
    66   68   67 1
    67   69   67 1
    68   70   67 1
    69   71   65 1
    70   72   71 1
    71   73   71 1
    72   74   53 1
    73   75   74 1
    74   76   74 1
    75   77   74 1
    76   78   57 1
    77   79   78 1
    78   80   78 1
    79   81   49 1
    80   82   81 1
    81   83   54 1
    82   84   83 1
    83   85   84 1
    84   86   84 1
    85   87   84 1
    86   88   50 1
    87   89   88 1
    88   90   89 1
    89   91   89 1
    90   92   89 1
    91   93   88 1
    92   94   93 1
    93   95   93 1
    94   96   93 1
    95   97  104 1
    96   98  107 1
    97   99  109 1
    98  100  113 1
    99  101  119 1
   100  102  129 1
   101  103  131 2
   102  104  105 1
   103  105  106 1
   104  107  105 1
   105  108  107 1
   106  109  107 1
   107  110  109 1
   108  111  104 1
   109  112  111 1
   110  113  111 1
   111  114  113 1
   112  115  100 1
   113  116  115 1
   114  117  115 1
   115  118  115 1
   116  119  113 1
   117  120  119 1
   118  121  119 1
   119  122  101 1
   120  123  122 1
   121  124  122 1
   122  125  122 1
   123  126  105 1
   124  127  126 1
   125  128  126 1
   126  129   97 1
   127  130  129 1
   128  131  102 1
   129  132  131 1
   130  133  132 1
   131  134  132 1
   132  135  132 1
   133  136   98 1
   134  137  136 1
   135  138  137 1
   136  139  137 1
   137  140  137 1
   138  141  136 1
   139  142  141 1
   140  143  141 1
   141  144  141 1
   142  145  154 1
   143  146  147 1
   144  148  157 1
   145  149  161 1
   146  150  167 1
   147  151  146 1
   148  152  177 1
   149  153  179 2
   150  154  155 1
   151  155  146 1
   152  156  155 1
   153  157  146 1
   154  158  157 1
   155  159  154 1
   156  160  159 1
   157  161  159 1
   158  162  161 1
   159  163  149 1
   160  164  163 1
   161  165  163 1
   162  166  163 1
   163  167  161 1
   164  168  167 1
   165  169  167 1
   166  170  150 1
   167  171  170 1
   168  172  170 1
   169  173  170 1
   170  174  155 1
   171  175  174 1
   172  176  174 1
   173  177  145 1
   174  178  177 1
   175  179  152 1
   176  180  179 1
   177  181  180 1
   178  182  180 1
   179  183  180 1
   180  184  148 1
   181  185  184 1
   182  186  185 1
   183  187  185 1
   184  188  185 1
   185  189  184 1
   186  190  189 1
   187  191  189 1
   188  192  189 1
   189    3   40 1
   190   13   15 1
   191   30   33 1
   192   51   88 1
   193   61   63 1
   194   78   81 1
   195   99  136 1
   196  109  111 1
   197  126  129 1
   198  151  184 1
   199  157  159 1
   200  174  177 1
@<TRIPOS>SUBSTRUCTURE
     1 RES1 1
     2 RES2 49
     3 RES3 97
     4 RES4 145

@<TRIPOS>CRYSIN
   9.1274   13.8040   14.5548 103.5470 102.9400 101.6270   1 1

