# MOL2 file generated by ConQuest
# Please check atom types

@<TRIPOS>MOLECULE
KILTAA
    48    53     1
SMALL
NO_CHARGES
****
Generated from CSD

@<TRIPOS>ATOM
      1 C1         0.1931    9.4688    8.6995 C.ar      1 RES1    0.0000
      2 C2         0.9275    8.4574    8.0992 C.ar      1 RES1    0.0000
      3 C3         2.0864    8.7362    7.4199 C.ar      1 RES1    0.0000
      4 C4         2.5547   10.0281    7.3248 C.ar      1 RES1    0.0000
      5 C5         3.1927   13.1992    7.5111 C.ar      1 RES1    0.0000
      6 C6         3.2635   14.5439    7.7924 C.ar      1 RES1    0.0000
      7 C7         2.2961   15.1593    8.5682 C.ar      1 RES1    0.0000
      8 C8         1.2209   14.4449    9.0626 C.ar      1 RES1    0.0000
      9 C9         0.0528   12.0723    9.1095 C.3       1 RES1    0.0000
     10 C10        0.6424   10.7689    8.5950 C.ar      1 RES1    0.0000
     11 C11        1.8321   11.0477    7.9130 C.ar      1 RES1    0.0000
     12 C12        2.1183   12.4683    8.0068 C.ar      1 RES1    0.0000
     13 C13        1.1274   13.0969    8.7611 C.ar      1 RES1    0.0000
     14 C14       -2.4276   14.1825   10.0983 C.ar      1 RES1    0.0000
     15 C15       -2.8798   15.4942   10.2497 C.ar      1 RES1    0.0000
     16 C16       -2.8082   16.3967    9.2207 C.ar      1 RES1    0.0000
     17 C17       -2.3235   16.0189    7.9827 C.ar      1 RES1    0.0000
     18 C18       -1.1312   14.5290    5.3459 C.ar      1 RES1    0.0000
     19 C19       -0.6485   13.6711    4.3799 C.ar      1 RES1    0.0000
     20 C20       -0.4125   12.3446    4.6746 C.ar      1 RES1    0.0000
     21 C21       -0.6171   11.8496    5.9502 C.ar      1 RES1    0.0000
     22 C22       -1.3096   12.4881    8.4154 C.3       1 RES1    0.0000
     23 C23       -1.9036   13.8163    8.8750 C.ar      1 RES1    0.0000
     24 C24       -1.8732   14.7171    7.8125 C.ar      1 RES1    0.0000
     25 C25       -1.3538   14.0439    6.6214 C.ar      1 RES1    0.0000
     26 C26       -1.0676   12.7174    6.9296 C.ar      1 RES1    0.0000
     27 N1        -0.1249   11.9898   10.6422 N.pl3     1 RES1    0.0000
     28 N2        -2.3550   11.3777    8.6177 N.pl3     1 RES1    0.0000
     29 O1        -0.0040   12.9897   11.2934 O.2       1 RES1    0.0000
     30 O2        -0.3517   10.9421   11.1299 O.2       1 RES1    0.0000
     31 O3        -2.6211   10.6353    7.7683 O.2       1 RES1    0.0000
     32 O4        -2.7871   11.2886    9.7325 O.2       1 RES1    0.0000
     33 H1        -0.6061    9.2691    9.1939 H         1 RES1    0.0000
     34 H2         0.6027    7.5549    8.1341 H         1 RES1    0.0000
     35 H3         2.5904    8.0202    7.0260 H         1 RES1    0.0000
     36 H4         3.3640   10.2277    6.8492 H         1 RES1    0.0000
     37 H5         3.8748   12.7735    6.9872 H         1 RES1    0.0000
     38 H6         3.9811   15.0718    7.4360 H         1 RES1    0.0000
     39 H7         2.3841   16.0898    8.7839 H         1 RES1    0.0000
     40 H8         0.5441   14.8771    9.5878 H         1 RES1    0.0000
     41 H9        -2.4902   13.5457   10.8151 H         1 RES1    0.0000
     42 H10       -3.2364   15.7763   11.0951 H         1 RES1    0.0000
     43 H11       -3.1037   17.2992    9.3573 H         1 RES1    0.0000
     44 H12       -2.2984   16.6409    7.2525 H         1 RES1    0.0000
     45 H13       -1.3033   15.4530    5.1463 H         1 RES1    0.0000
     46 H14       -0.4845   13.9978    3.4929 H         1 RES1    0.0000
     47 H15       -0.0988   11.7539    3.9873 H         1 RES1    0.0000
     48 H16       -0.4501   10.9273    6.1565 H         1 RES1    0.0000
@<TRIPOS>BOND
     1    1    2 ar
     2    2    3 ar
     3    3    4 ar
     4    4   11 ar
     5    5    6 ar
     6    6    7 ar
     7    7    8 ar
     8    8   13 ar
     9    9   10 1
    10   10    1 ar
    11   11   10 ar
    12   12    5 ar
    13   13    9 1
    14   14   15 ar
    15   15   16 ar
    16   16   17 ar
    17   17   24 ar
    18   18   19 ar
    19   19   20 ar
    20   20   21 ar
    21   21   26 ar
    22   22    9 1
    23   23   14 ar
    24   24   23 ar
    25   25   18 ar
    26   26   22 1
    27   27    9 1
    28   28   22 1
    29   29   27 2
    30   30   27 2
    31   31   28 2
    32   32   28 2
    33   33    1 1
    34   34    2 1
    35   35    3 1
    36   36    4 1
    37   37    5 1
    38   38    6 1
    39   39    7 1
    40   40    8 1
    41   41   14 1
    42   42   15 1
    43   43   16 1
    44   44   17 1
    45   45   18 1
    46   46   19 1
    47   47   20 1
    48   48   21 1
    49   11   12 1
    50   12   13 ar
    51   22   23 1
    52   24   25 1
    53   25   26 ar
@<TRIPOS>SUBSTRUCTURE
     1 RES1 1

@<TRIPOS>CRYSIN
   8.9900   16.4990   13.4450  90.0000  94.7800  90.0000 231 1

