# MOL2 file generated by ConQuest
# Please check atom types

@<TRIPOS>MOLECULE
KIMBAM
    16    16     1
SMALL
NO_CHARGES
****
Generated from CSD

@<TRIPOS>ATOM
      1 N1         3.8474    0.5654    1.5648 N.pl3     1 RES1    0.0000
      2 O1         3.1154    0.0792    2.4207 O.2       1 RES1    0.0000
      3 O2         4.9897    0.1862    1.3427 O.2       1 RES1    0.0000
      4 C1         3.3167    1.6673    0.7490 C.ar      1 RES1    0.0000
      5 C2         2.1107    2.2444    1.1268 C.ar      1 RES1    0.0000
      6 C3         4.0502    2.0801   -0.3590 C.ar      1 RES1    0.0000
      7 H1         1.5887    1.8884    1.9984 H         1 RES1    0.0000
      8 H2         4.9772    1.5956   -0.6141 H         1 RES1    0.0000
      9 N1B        1.8154    4.8069   -1.5648 N.pl3     1 RES1    0.0000
     10 O1B        2.5474    5.2931   -2.4207 O.2       1 RES1    0.0000
     11 O2B        0.6731    5.1861   -1.3427 O.2       1 RES1    0.0000
     12 C1B        2.3461    3.7050   -0.7490 C.ar      1 RES1    0.0000
     13 C2B        3.5521    3.1279   -1.1268 C.ar      1 RES1    0.0000
     14 C3B        1.6126    3.2922    0.3590 C.ar      1 RES1    0.0000
     15 H1B        4.0741    3.4839   -1.9984 H         1 RES1    0.0000
     16 H2B        0.6856    3.7767    0.6141 H         1 RES1    0.0000
@<TRIPOS>BOND
     1    1    2 2
     2    3    1 2
     3    4    1 1
     4    5    4 ar
     5    6    4 ar
     6    7    5 1
     7    8    6 1
     8    9   10 2
     9   11    9 2
    10   12    9 1
    11   13    6 ar
    12   14    5 ar
    13   15   13 1
    14   16   14 1
    15   12   13 ar
    16   12   14 ar
@<TRIPOS>SUBSTRUCTURE
     1 RES1 1

@<TRIPOS>CRYSIN
   5.6628    5.3723   10.9143  90.0000  92.0210  90.0000 231 1

