# MOL2 file generated by ConQuest
# Please check atom types

@<TRIPOS>MOLECULE
KIMQEF
    30    32     1
SMALL
NO_CHARGES
****
Generated from CSD

@<TRIPOS>ATOM
      1 N1        -1.7174   -1.8599    0.4901 N.ar      1 RES1    0.0000
      2 C1        -1.6753   -2.8278    1.4097 C.ar      1 RES1    0.0000
      3 H1        -1.6822   -3.7135    1.1249 H         1 RES1    0.0000
      4 C2        -1.6233   -2.5705    2.7585 C.ar      1 RES1    0.0000
      5 C3        -1.6126   -1.2620    3.2162 C.ar      1 RES1    0.0000
      6 H2        -1.5721   -1.0759    4.1263 H         1 RES1    0.0000
      7 C4        -1.6623   -0.2549    2.2987 C.ar      1 RES1    0.0000
      8 H3        -1.6625    0.6350    2.5695 H         1 RES1    0.0000
      9 C5        -1.7149   -0.5931    0.9274 C.ar      1 RES1    0.0000
     10 N2        -1.7589    0.4233    0.0169 N.pl3     1 RES1    0.0000
     11 H4        -1.7722    1.2082    0.3675 H         1 RES1    0.0000
     12 C6        -1.7858    0.4234   -1.3793 C.ar      1 RES1    0.0000
     13 C7        -1.7609    1.7335   -1.9662 C.ar      1 RES1    0.0000
     14 N3        -1.7177    2.8052   -1.1213 N.ar      1 RES1    0.0000
     15 C8        -1.6977    4.0068   -1.6667 C.ar      1 RES1    0.0000
     16 H5        -1.6634    4.7430   -1.1004 H         1 RES1    0.0000
     17 C9        -1.7240    4.2401   -3.0514 C.ar      1 RES1    0.0000
     18 H6        -1.7131    5.1086   -3.3835 H         1 RES1    0.0000
     19 C10       -1.7658    3.1804   -3.8994 C.ar      1 RES1    0.0000
     20 H7        -1.7847    3.3176   -4.8192 H         1 RES1    0.0000
     21 C11       -1.7798    1.8679   -3.3762 C.ar      1 RES1    0.0000
     22 C12       -1.8215    0.7084   -4.1812 C.ar      1 RES1    0.0000
     23 H8        -1.8231    0.7870   -5.1079 H         1 RES1    0.0000
     24 C13       -1.8600   -0.5234   -3.6039 C.ar      1 RES1    0.0000
     25 H9        -1.8963   -1.2785   -4.1452 H         1 RES1    0.0000
     26 C14       -1.8453   -0.6814   -2.2004 C.ar      1 RES1    0.0000
     27 H10       -1.8761   -1.5336   -1.8300 H         1 RES1    0.0000
     28 N4        -1.5695   -3.6721    3.7051 N.pl3     1 RES1    0.0000
     29 O1        -1.5476   -3.3927    4.8997 O.2       1 RES1    0.0000
     30 O2        -1.5322   -4.8184    3.2805 O.2       1 RES1    0.0000
@<TRIPOS>BOND
     1    1    2 ar
     2    2    3 1
     3    4    2 ar
     4    5    4 ar
     5    6    5 1
     6    7    5 ar
     7    8    7 1
     8    9    1 ar
     9   10    9 1
    10   11   10 1
    11   12   10 1
    12   13   12 ar
    13   14   13 ar
    14   15   14 ar
    15   16   15 1
    16   17   15 ar
    17   18   17 1
    18   19   17 ar
    19   20   19 1
    20   21   13 ar
    21   22   21 ar
    22   23   22 1
    23   24   22 ar
    24   25   24 1
    25   26   12 ar
    26   27   26 1
    27   28    4 1
    28   29   28 2
    29   30   28 2
    30    7    9 ar
    31   19   21 ar
    32   24   26 ar
@<TRIPOS>SUBSTRUCTURE
     1 RES1 1

@<TRIPOS>CRYSIN
   6.8370    8.2650   11.1660  92.8300  94.6500 101.4500   2 1

