# MOL2 file generated by ConQuest
# Please check atom types

@<TRIPOS>MOLECULE
KINCUF
    37    42     1
SMALL
NO_CHARGES
****
Generated from CSD

@<TRIPOS>ATOM
      1 O1        -0.9168   -5.3223   -1.4840 O.3       1 RES1    0.0000
      2 O2         2.4744   -5.7722    7.0252 O.3       1 RES1    0.0000
      3 O3         4.0497    2.0856   -2.2687 O.2       1 RES1    0.0000
      4 O4         4.7770    3.1129   -0.5198 O.2       1 RES1    0.0000
      5 O5        -0.3048    3.0896    3.5225 O.3       1 RES1    0.0000
      6 N1         4.2703    2.1440   -1.0674 N.pl3     1 RES1    0.0000
      7 C1        -0.4943   -4.5472   -0.4335 C.ar      1 RES1    0.0000
      8 C2         0.8713   -4.5541   -0.2073 C.ar      1 RES1    0.0000
      9 C3         1.3857   -3.8059    0.8432 C.ar      1 RES1    0.0000
     10 C4         2.8005   -3.7118    1.3312 C.3       1 RES1    0.0000
     11 C5         2.8495   -2.4130    2.1685 C.3       1 RES1    0.0000
     12 C6         3.7074   -2.6423    3.4263 C.3       1 RES1    0.0000
     13 C7         2.7772   -3.4106    4.3300 C.ar      1 RES1    0.0000
     14 C8         3.0955   -4.2636    5.3607 C.ar      1 RES1    0.0000
     15 C9         2.0682   -4.8908    6.0531 C.ar      1 RES1    0.0000
     16 C10        0.7514   -4.6319    5.7436 C.ar      1 RES1    0.0000
     17 C11        0.4404   -3.7705    4.6941 C.ar      1 RES1    0.0000
     18 C12        1.4545   -3.1754    3.9739 C.ar      1 RES1    0.0000
     19 C13        1.3325   -2.3102    2.7200 C.3       1 RES1    0.0000
     20 C14        0.5442   -3.0372    1.6398 C.ar      1 RES1    0.0000
     21 C15       -0.8111   -3.0437    1.4156 C.ar      1 RES1    0.0000
     22 C16       -1.3323   -3.8158    0.3740 C.ar      1 RES1    0.0000
     23 C17        3.2477   -1.2118    1.3233 C.ar      1 RES1    0.0000
     24 C18        3.7603   -0.0474    1.8838 C.ar      1 RES1    0.0000
     25 C19        4.0956    1.0536    1.1190 C.ar      1 RES1    0.0000
     26 C20        3.9032    0.9866   -0.2420 C.ar      1 RES1    0.0000
     27 C21        3.3829   -0.1245   -0.8412 C.ar      1 RES1    0.0000
     28 C22        3.0697   -1.2172   -0.0645 C.ar      1 RES1    0.0000
     29 C23        0.8604   -0.8888    2.9988 C.ar      1 RES1    0.0000
     30 C24        0.9576   -0.3066    4.2497 C.ar      1 RES1    0.0000
     31 C25        0.5908    1.0264    4.4709 C.ar      1 RES1    0.0000
     32 C26        0.1185    1.7774    3.4283 C.ar      1 RES1    0.0000
     33 C27        0.0136    1.2204    2.1685 C.ar      1 RES1    0.0000
     34 C28        0.3759   -0.0938    1.9711 C.ar      1 RES1    0.0000
     35 C29       -2.2740   -5.3030   -1.8272 C.3       1 RES1    0.0000
     36 C30        1.4999   -6.5950    7.6333 C.3       1 RES1    0.0000
     37 C31       -0.0198    3.7779    4.6931 C.3       1 RES1    0.0000
@<TRIPOS>BOND
     1    1    7 1
     2    2   15 1
     3    3    6 2
     4    4    6 2
     5    5   32 1
     6    6   26 1
     7    7    8 ar
     8    8    9 ar
     9    9   10 1
    10   10   11 1
    11   11   12 1
    12   12   13 1
    13   13   14 ar
    14   14   15 ar
    15   15   16 ar
    16   16   17 ar
    17   17   18 ar
    18   18   13 ar
    19   19   11 1
    20   20    9 ar
    21   21   20 ar
    22   22    7 ar
    23   23   11 1
    24   24   23 ar
    25   25   24 ar
    26   26   25 ar
    27   27   26 ar
    28   28   23 ar
    29   29   19 1
    30   30   29 ar
    31   31   30 ar
    32   32   31 ar
    33   33   32 ar
    34   34   29 ar
    35   35    1 1
    36   36    2 1
    37   37    5 1
    38   18   19 1
    39   19   20 1
    40   21   22 ar
    41   27   28 ar
    42   33   34 ar
@<TRIPOS>SUBSTRUCTURE
     1 RES1 1

@<TRIPOS>CRYSIN
  10.8450   12.4210   10.5390  94.6500 106.4200 109.2800   2 1

