# MOL2 file generated by ConQuest
# Please check atom types

@<TRIPOS>MOLECULE
KINXAJ
    48    52     1
SMALL
USER_CHARGES
****
Generated from CSD

@<TRIPOS>ATOM
      1 O1         8.0453   11.3840   11.3757 O.2       1 RES1   -1.0000
      2 N1         6.6053    8.9615    9.4112 N.2       1 RES1    0.0000
      3 O2         7.2539    9.3788   10.5456 O.3       1 RES1    0.0000
      4 N2         7.4710   10.8422   10.4344 N.pl3     1 RES1    1.0000
      5 C1         6.9664   11.1911    9.2612 C.2       1 RES1    0.0000
      6 C2         6.9705   12.4761    8.5969 C.2       1 RES1    0.0000
      7 C3         6.5262   12.5369    7.3309 C.2       1 RES1    0.0000
      8 H1         6.5265   13.3854    6.9038 H         1 RES1    0.0000
      9 C4         6.0265   11.3540    6.5388 C.3       1 RES1    0.0000
     10 H2         5.1520   11.6139    6.1290 H         1 RES1    0.0000
     11 C5         6.9531   10.8985    5.4011 C.3       1 RES1    0.0000
     12 H3         6.8921   11.5059    4.6217 H         1 RES1    0.0000
     13 H4         7.8949   10.8479    5.7019 H         1 RES1    0.0000
     14 N3         6.4211    9.5676    5.0843 N.3       1 RES1    0.0000
     15 C6         6.3482    8.9176    6.3949 C.3       1 RES1    0.0000
     16 H5         7.2435    8.6172    6.6921 H         1 RES1    0.0000
     17 H6         5.7385    8.1381    6.3707 H         1 RES1    0.0000
     18 C7         5.8027   10.0127    7.3169 C.3       1 RES1    0.0000
     19 C8         6.4386   10.0218    8.6694 C.2       1 RES1    0.0000
     20 O3         7.4398   13.4945    9.3818 O.3       1 RES1    0.0000
     21 C9         7.4023   14.7936    8.8454 C.ar      1 RES1    0.0000
     22 C10        6.4512   15.6651    9.3528 C.ar      1 RES1    0.0000
     23 H7         5.8322   15.3745   10.0122 H         1 RES1    0.0000
     24 C11        6.4191   16.9736    8.8790 C.ar      1 RES1    0.0000
     25 H8         5.7706   17.5815    9.2144 H         1 RES1    0.0000
     26 C12        7.3299   17.3960    7.9187 C.ar      1 RES1    0.0000
     27 H9         7.3032   18.2889    7.5957 H         1 RES1    0.0000
     28 C13        8.2823   16.5038    7.4318 C.ar      1 RES1    0.0000
     29 H10        8.9067   16.7932    6.7768 H         1 RES1    0.0000
     30 C14        8.3280   15.1889    7.8969 C.ar      1 RES1    0.0000
     31 H11        8.9795   14.5798    7.5699 H         1 RES1    0.0000
     32 C15        7.2754    8.8179    4.1483 C.3       1 RES1    0.0000
     33 H12        8.1722    8.6935    4.5489 H         1 RES1    0.0000
     34 H13        7.3827    9.3375    3.3125 H         1 RES1    0.0000
     35 C16        6.6785    7.4705    3.8277 C.ar      1 RES1    0.0000
     36 C17        5.6678    7.3494    2.8868 C.ar      1 RES1    0.0000
     37 H14        5.3742    8.1124    2.4031 H         1 RES1    0.0000
     38 C18        5.0842    6.1091    2.6519 C.ar      1 RES1    0.0000
     39 H15        4.3897    6.0288    2.0084 H         1 RES1    0.0000
     40 C19        5.5097    4.9874    3.3506 C.ar      1 RES1    0.0000
     41 H16        5.0997    4.1443    3.1963 H         1 RES1    0.0000
     42 C20        6.5246    5.1041    4.2639 C.ar      1 RES1    0.0000
     43 H17        6.8274    4.3383    4.7374 H         1 RES1    0.0000
     44 C21        7.1077    6.3371    4.4968 C.ar      1 RES1    0.0000
     45 H18        7.8152    6.4070    5.1269 H         1 RES1    0.0000
     46 N4         4.2915    9.8691    7.5574 N.pl3     1 RES1    0.0000
     47 O4         3.7808   10.7245    8.2522 O.2       1 RES1    0.0000
     48 O5         3.6867    8.9649    7.0358 O.2       1 RES1    0.0000
@<TRIPOS>BOND
     1    1    4 1
     2    2    3 1
     3    3    4 1
     4    4    5 2
     5    5    6 1
     6    6    7 2
     7    7    8 1
     8    9    7 1
     9   10    9 1
    10   11    9 1
    11   12   11 1
    12   13   11 1
    13   14   11 1
    14   15   14 1
    15   16   15 1
    16   17   15 1
    17   18    9 1
    18   19    2 2
    19   20    6 1
    20   21   20 1
    21   22   21 ar
    22   23   22 1
    23   24   22 ar
    24   25   24 1
    25   26   24 ar
    26   27   26 1
    27   28   26 ar
    28   29   28 1
    29   30   21 ar
    30   31   30 1
    31   32   14 1
    32   33   32 1
    33   34   32 1
    34   35   32 1
    35   36   35 ar
    36   37   36 1
    37   38   36 ar
    38   39   38 1
    39   40   38 ar
    40   41   40 1
    41   42   40 ar
    42   43   42 1
    43   44   35 ar
    44   45   44 1
    45   46   18 1
    46   47   46 2
    47   48   46 2
    48    5   19 1
    49   15   18 1
    50   18   19 1
    51   28   30 ar
    52   42   44 ar
@<TRIPOS>SUBSTRUCTURE
     1 RES1 1

@<TRIPOS>CRYSIN
   9.2210   21.1725    9.7414  90.0000  92.5660  90.0000  14 1

