# MOL2 file generated by ConQuest
# Please check atom types

@<TRIPOS>MOLECULE
KIPBOC
    46    48     1
SMALL
NO_CHARGES
****
Generated from CSD

@<TRIPOS>ATOM
      1 C1         2.4684    5.0993    1.0476 C.ar      1 RES1    0.0000
      2 C2         2.8514    6.3108    0.4519 C.ar      1 RES1    0.0000
      3 C3         3.9911    5.0993   -1.2825 C.ar      1 RES1    0.0000
      4 C4         1.7176    5.0993    2.3675 C.3       1 RES1    0.0000
      5 N1         3.0368    8.2124    1.9216 N.2       1 RES1    0.0000
      6 C5         3.6196    6.3184   -0.7285 C.ar      1 RES1    0.0000
      7 O1         2.3893    9.4391    2.2322 O.3       1 RES1    0.0000
      8 C6         2.3959    7.6160    1.0084 C.2       1 RES1    0.0000
      9 C7         4.0929    7.6091   -1.3522 C.3       1 RES1    0.0000
     10 C8         1.1723    8.3414    0.5446 C.3       1 RES1    0.0000
     11 C9         1.2971    9.6343    1.3029 C.3       1 RES1    0.0000
     12 C10        2.6729    5.0993    3.5538 C.3       1 RES1    0.0000
     13 C11        5.4572    8.0270   -0.8697 C.3       1 RES1    0.0000
     14 H1         2.2053    5.0993    4.3835 H         1 RES1    0.0000
     15 H2         1.1348    5.8784    2.4347 H         1 RES1    0.0000
     16 H3         4.5422    5.0993   -2.1820 H         1 RES1    0.0000
     17 H4         0.3101    7.8712    0.8093 H         1 RES1    0.0000
     18 H5         4.0977    7.5387   -2.3488 H         1 RES1    0.0000
     19 H6         1.1387    8.4913   -0.4085 H         1 RES1    0.0000
     20 H7         6.0131    7.3184   -1.2382 H         1 RES1    0.0000
     21 H8         3.1933    5.9376    3.6040 H         1 RES1    0.0000
     22 H9         0.5309    9.9109    1.6994 H         1 RES1    0.0000
     23 H10        3.4496    8.4403   -1.1854 H         1 RES1    0.0000
     24 H11        5.7500    8.9441   -1.3105 H         1 RES1    0.0000
     25 H12        1.6408   10.3372    0.7097 H         1 RES1    0.0000
     26 H13        5.5849    8.1506    0.0128 H         1 RES1    0.0000
     27 C2F        2.8514    3.8877    0.4519 C.ar      1 RES1    0.0000
     28 N1F        3.0368    1.9861    1.9216 N.2       1 RES1    0.0000
     29 C5F        3.6196    3.8801   -0.7285 C.ar      1 RES1    0.0000
     30 O1F        2.3893    0.7594    2.2322 O.3       1 RES1    0.0000
     31 C6F        2.3959    2.5825    1.0084 C.2       1 RES1    0.0000
     32 C7F        4.0929    2.5894   -1.3522 C.3       1 RES1    0.0000
     33 C8F        1.1723    1.8571    0.5446 C.3       1 RES1    0.0000
     34 C9F        1.2971    0.5642    1.3029 C.3       1 RES1    0.0000
     35 C11F       5.4572    2.1715   -0.8697 C.3       1 RES1    0.0000
     36 H2F        1.1348    4.3201    2.4347 H         1 RES1    0.0000
     37 H4F        0.3101    2.3273    0.8093 H         1 RES1    0.0000
     38 H5F        4.0977    2.6598   -2.3488 H         1 RES1    0.0000
     39 H6F        1.1387    1.7072   -0.4085 H         1 RES1    0.0000
     40 H7F        6.0131    2.8801   -1.2382 H         1 RES1    0.0000
     41 H8F        3.1933    4.2609    3.6040 H         1 RES1    0.0000
     42 H9F        0.5309    0.2876    1.6994 H         1 RES1    0.0000
     43 H10F       3.4496    1.7582   -1.1854 H         1 RES1    0.0000
     44 H11F       5.7500    1.2544   -1.3105 H         1 RES1    0.0000
     45 H12F       1.6408   -0.1387    0.7097 H         1 RES1    0.0000
     46 H13F       5.5849    2.0479    0.0128 H         1 RES1    0.0000
@<TRIPOS>BOND
     1    1    2 ar
     2    2    6 ar
     3    3    6 ar
     4    4    1 1
     5    5    7 1
     6    6    9 1
     7    7   11 1
     8    8    2 1
     9    9   13 1
    10   10    8 1
    11   11   10 1
    12   12    4 1
    13   13   20 1
    14   14   12 1
    15   15    4 1
    16   16    3 1
    17   17   10 1
    18   18    9 1
    19   19   10 1
    20   21   12 1
    21   22   11 1
    22   23    9 1
    23   24   13 1
    24   25   11 1
    25   26   13 1
    26   27    1 ar
    27   28   30 1
    28   29    3 ar
    29   30   34 1
    30   31   27 1
    31   32   29 1
    32   33   31 1
    33   34   33 1
    34   35   32 1
    35   36    4 1
    36   37   33 1
    37   38   32 1
    38   39   33 1
    39   40   35 1
    40   41   12 1
    41   42   34 1
    42   43   32 1
    43   44   35 1
    44   45   34 1
    45   46   35 1
    46    5    8 2
    47   27   29 ar
    48   28   31 2
@<TRIPOS>SUBSTRUCTURE
     1 RES1 1

@<TRIPOS>CRYSIN
   9.6010   20.3970    8.5100  90.0000  90.0000  90.0000  62 1

