# MOL2 file generated by ConQuest
# Please check atom types

@<TRIPOS>MOLECULE
KIPBUI
    52    54     2
SMALL
NO_CHARGES
****
Generated from CSD

@<TRIPOS>ATOM
      1 O1         2.5063    9.9708    5.0305 O.3       1 RES1    0.0000
      2 N1         2.2127   10.0693    3.6508 N.2       1 RES1    0.0000
      3 C1         2.3848   11.2604    5.6430 C.3       1 RES1    0.0000
      4 H1         3.1917   11.4847    6.1330 H         1 RES1    0.0000
      5 H2         1.6335   11.2785    6.2552 H         1 RES1    0.0000
      6 C2         2.1666   12.2300    4.5030 C.3       1 RES1    0.0000
      7 H3         1.3656   12.7608    4.6359 H         1 RES1    0.0000
      8 H4         2.9273   12.8193    4.3858 H         1 RES1    0.0000
      9 C3         2.0165   11.2925    3.3461 C.2       1 RES1    0.0000
     10 C4         1.7155   11.7271    1.9670 C.ar      1 RES1    0.0000
     11 C5         1.8517   13.0882    1.6783 C.ar      1 RES1    0.0000
     12 H5         2.1161   13.6677    2.3546 H         1 RES1    0.0000
     13 C6         1.6072   13.5925    0.4322 C.ar      1 RES1    0.0000
     14 H6         1.7214   14.5036    0.2783 H         1 RES1    0.0000
     15 C7         1.1942   12.7747   -0.6026 C.ar      1 RES1    0.0000
     16 C8         1.0126   11.4206   -0.3039 C.ar      1 RES1    0.0000
     17 H7         0.7080   10.8578   -0.9798 H         1 RES1    0.0000
     18 C9         1.2608   10.8697    0.9454 C.ar      1 RES1    0.0000
     19 C10        0.9797   13.2985   -1.9947 C.3       1 RES1    0.0000
     20 H8         0.6971   12.5811   -2.5672 H         1 RES1    0.0000
     21 H9         1.8005   13.6691   -2.3283 H         1 RES1    0.0000
     22 H10        0.3046   13.9812   -1.9804 H         1 RES1    0.0000
     23 C11        0.9914    9.4048    1.1506 C.3       1 RES1    0.0000
     24 H11        1.2052    9.1624    2.0556 H         1 RES1    0.0000
     25 H12        1.5332    8.8922    0.5454 H         1 RES1    0.0000
     26 H13        0.0637    9.2223    0.9817 H         1 RES1    0.0000
     27 O2         2.7538   10.7969   -9.6286 O.3       2 RES2    0.0000
     28 N2         2.6923   10.7492   -8.2134 N.2       2 RES2    0.0000
     29 C12        2.6249    9.4675  -10.1464 C.3       2 RES2    0.0000
     30 H14        3.4230    9.2126  -10.6354 H         2 RES2    0.0000
     31 H15        1.8620    9.4062  -10.7426 H         2 RES2    0.0000
     32 C13        2.4338    8.5843   -8.9613 C.3       2 RES2    0.0000
     33 H16        3.1316    7.9128   -8.9051 H         2 RES2    0.0000
     34 H17        1.5691    8.1455   -8.9841 H         2 RES2    0.0000
     35 C14        2.5202    9.5581   -7.8201 C.2       2 RES2    0.0000
     36 C15        2.3994    9.1736   -6.4045 C.ar      2 RES2    0.0000
     37 C16        2.2889    7.8041   -6.1064 C.ar      2 RES2    0.0000
     38 H18        2.3108    7.1898   -6.8044 H         2 RES2    0.0000
     39 C17        2.1497    7.3389   -4.8263 C.ar      2 RES2    0.0000
     40 H19        2.0699    6.4250   -4.6735 H         2 RES2    0.0000
     41 C18        2.1278    8.2165   -3.7590 C.ar      2 RES2    0.0000
     42 C19        2.2354    9.5748   -4.0452 C.ar      2 RES2    0.0000
     43 H20        2.2134   10.1752   -3.3364 H         2 RES2    0.0000
     44 C20        2.3723   10.0791   -5.3233 C.ar      2 RES2    0.0000
     45 C21        1.9616    7.7345   -2.3347 C.3       2 RES2    0.0000
     46 H21        1.9674    8.4868   -1.7396 H         2 RES2    0.0000
     47 H22        2.6835    7.1438   -2.1101 H         2 RES2    0.0000
     48 H23        1.1269    7.2664   -2.2512 H         2 RES2    0.0000
     49 C22        2.4602   11.5781   -5.5217 C.3       2 RES2    0.0000
     50 H24        2.5495   11.7717   -6.4583 H         2 RES2    0.0000
     51 H25        3.2231   11.9180   -5.0497 H         2 RES2    0.0000
     52 H26        1.6636   11.9918   -5.1832 H         2 RES2    0.0000
@<TRIPOS>BOND
     1    1    2 1
     2    2    9 2
     3    3    1 1
     4    4    3 1
     5    5    3 1
     6    6    3 1
     7    7    6 1
     8    8    6 1
     9    9    6 1
    10   10    9 1
    11   11   10 ar
    12   12   11 1
    13   13   11 ar
    14   14   13 1
    15   15   13 ar
    16   16   15 ar
    17   17   16 1
    18   18   10 ar
    19   19   15 1
    20   20   19 1
    21   21   19 1
    22   22   19 1
    23   23   18 1
    24   24   23 1
    25   25   23 1
    26   26   23 1
    27   27   28 1
    28   28   35 2
    29   29   27 1
    30   30   29 1
    31   31   29 1
    32   32   29 1
    33   33   32 1
    34   34   32 1
    35   35   32 1
    36   36   35 1
    37   37   36 ar
    38   38   37 1
    39   39   37 ar
    40   40   39 1
    41   41   39 ar
    42   42   41 ar
    43   43   42 1
    44   44   36 ar
    45   45   41 1
    46   46   45 1
    47   47   45 1
    48   48   45 1
    49   49   44 1
    50   50   49 1
    51   51   49 1
    52   52   49 1
    53   16   18 ar
    54   42   44 ar
@<TRIPOS>SUBSTRUCTURE
     1 RES1 1
     2 RES2 27

@<TRIPOS>CRYSIN
   7.3220   13.9310   18.8070  90.0000  90.0000  90.0000  19 1

