# MOL2 file generated by ConQuest
# Please check atom types

@<TRIPOS>MOLECULE
KIPCAP
    26    27     1
SMALL
NO_CHARGES
****
Generated from CSD

@<TRIPOS>ATOM
      1 O1         0.2824    2.6082    3.3300 O.3       1 RES1    0.0000
      2 N1         1.2794    3.6061    3.1137 N.2       1 RES1    0.0000
      3 C1         0.2401    1.7747    2.1662 C.3       1 RES1    0.0000
      4 H1        -0.4779    2.0468    1.5734 H         1 RES1    0.0000
      5 H2         0.1096    0.8458    2.4120 H         1 RES1    0.0000
      6 C2         1.5789    1.9715    1.5103 C.3       1 RES1    0.0000
      7 H3         1.5010    2.0320    0.5450 H         1 RES1    0.0000
      8 H4         2.1997    1.2632    1.7414 H         1 RES1    0.0000
      9 C3         1.9835    3.2869    2.1198 C.2       1 RES1    0.0000
     10 C4         3.1239    4.1161    1.6681 C.ar      1 RES1    0.0000
     11 C5         2.9216    5.0371    0.6223 C.ar      1 RES1    0.0000
     12 C6         4.0010    5.7892    0.1822 C.ar      1 RES1    0.0000
     13 H5         3.8860    6.3931   -0.5155 H         1 RES1    0.0000
     14 C7         5.2426    5.6530    0.7664 C.ar      1 RES1    0.0000
     15 H6         5.9544    6.1721    0.4693 H         1 RES1    0.0000
     16 C8         5.4310    4.7460    1.7936 C.ar      1 RES1    0.0000
     17 H7         6.2741    4.6562    2.1748 H         1 RES1    0.0000
     18 C9         4.3801    3.9693    2.2639 C.ar      1 RES1    0.0000
     19 C10        1.5674    5.2246    0.0026 C.3       1 RES1    0.0000
     20 H8         0.9427    4.6217    0.4116 H         1 RES1    0.0000
     21 H9         1.6183    5.0431   -0.9386 H         1 RES1    0.0000
     22 H10        1.2755    6.1286    0.1385 H         1 RES1    0.0000
     23 C11        4.5986    3.0031    3.3917 C.3       1 RES1    0.0000
     24 H11        5.5190    3.0318    3.6648 H         1 RES1    0.0000
     25 H12        4.3794    2.1149    3.1006 H         1 RES1    0.0000
     26 H13        4.0381    3.2439    4.1329 H         1 RES1    0.0000
@<TRIPOS>BOND
     1    1    2 1
     2    2    9 2
     3    3    1 1
     4    4    3 1
     5    5    3 1
     6    6    3 1
     7    7    6 1
     8    8    6 1
     9    9    6 1
    10   10    9 1
    11   11   10 ar
    12   12   11 ar
    13   13   12 1
    14   14   12 ar
    15   15   14 1
    16   16   14 ar
    17   17   16 1
    18   18   10 ar
    19   19   11 1
    20   20   19 1
    21   21   19 1
    22   22   19 1
    23   23   18 1
    24   24   23 1
    25   25   23 1
    26   26   23 1
    27   16   18 ar
@<TRIPOS>SUBSTRUCTURE
     1 RES1 1

@<TRIPOS>CRYSIN
   7.7210    9.8690   12.8230  90.0000  90.0000  90.0000  19 1

