# MOL2 file generated by ConQuest
# Please check atom types

@<TRIPOS>MOLECULE
KIPMEB01
   104    53     2
SMALL
NO_CHARGES
****
Generated from CSD

@<TRIPOS>ATOM
      1 C1        -1.9905    5.0195    4.2881 C.ar      1 RES1    0.0000
      2 C2        -1.6027    3.6665    4.1491 C.ar      1 RES1    0.0000
      3 C3        -0.5895    3.3011    3.2323 C.ar      1 RES1    0.0000
      4 C4        -0.0128    4.3349    2.4863 C.ar      1 RES1    0.0000
      5 C5        -0.3857    5.6954    2.5843 C.ar      1 RES1    0.0000
      6 C6        -1.3682    6.0143    3.5058 C.ar      1 RES1    0.0000
      7 C7        -3.0200    5.4332    5.2270 C.2       1 RES1    0.0000
      8 C8        -4.6089    5.1118    6.9072 C.ar      1 RES1    0.0000
      9 C9        -5.8493    4.4657    7.0447 C.ar      1 RES1    0.0000
     10 C10       -6.7957    4.9467    7.9456 C.ar      1 RES1    0.0000
     11 C11       -6.5161    6.0488    8.7565 C.ar      1 RES1    0.0000
     12 C12       -5.2691    6.6444    8.6237 C.ar      1 RES1    0.0000
     13 C13       -4.3051    6.2116    7.7149 C.ar      1 RES1    0.0000
     14 C14       -0.1426    1.8297    3.0553 C.3       1 RES1    0.0000
     15 C15        0.4415    1.2962    4.3830 C.3       1 RES1    0.0000
     16 C16       -1.3341    0.9481    2.6222 C.3       1 RES1    0.0000
     17 C17        0.9518    1.6961    1.9868 C.3       1 RES1    0.0000
     18 C18        0.2995    6.7426    1.6928 C.3       1 RES1    0.0000
     19 C19        0.1594    6.3373    0.2150 C.3       1 RES1    0.0000
     20 C20       -0.3145    8.1407    1.8635 C.3       1 RES1    0.0000
     21 C21        1.7910    6.8313    2.0643 C.3       1 RES1    0.0000
     22 N1        -3.6729    4.5958    5.9746 N.2       1 RES1    0.0000
     23 N2        -4.9403    7.7828    9.5088 N.pl3     1 RES1    0.0000
     24 O1        -2.1895    2.7093    4.9172 O.3       1 RES1    0.0000
     25 O2        -5.8162    8.2243   10.2486 O.2       1 RES1    0.0000
     26 O3        -3.7907    8.2248    9.4646 O.2       1 RES1    0.0000
     27 C22       -2.0102    4.5267    4.3166 Du        2 SUP2    0.0000
     28 C23       -1.6105    3.2210    3.9942 Du        2 SUP2    0.0000
     29 C24       -0.5149    2.9989    3.0600 Du        2 SUP2    0.0000
     30 C25        0.0370    4.1909    2.4720 Du        2 SUP2    0.0000
     31 C26       -0.4333    5.5092    2.7439 Du        2 SUP2    0.0000
     32 C27       -1.4634    5.6592    3.7413 Du        2 SUP2    0.0000
     33 C28       -3.0365    4.6719    5.2823 Du        2 SUP2    0.0000
     34 C29       -4.4871    5.8766    6.8282 Du        2 SUP2    0.0000
     35 C30       -5.5298    4.9372    6.7855 Du        2 SUP2    0.0000
     36 C31       -6.5661    5.0134    7.7006 Du        2 SUP2    0.0000
     37 C32       -6.5821    5.9925    8.7249 Du        2 SUP2    0.0000
     38 C33       -5.5069    6.8825    8.7328 Du        2 SUP2    0.0000
     39 C34       -4.4851    6.8531    7.8160 Du        2 SUP2    0.0000
     40 C35        0.0099    1.6021    2.7392 Du        2 SUP2    0.0000
     41 C36        0.5581    0.9374    4.0274 Du        2 SUP2    0.0000
     42 C37       -1.1113    0.6910    2.1717 Du        2 SUP2    0.0000
     43 C38        1.1258    1.6736    1.7086 Du        2 SUP2    0.0000
     44 C39        0.2396    6.6266    1.9331 Du        2 SUP2    0.0000
     45 C40        0.1005    6.3890    0.4236 Du        2 SUP2    0.0000
     46 C41       -0.3845    8.0116    2.2350 Du        2 SUP2    0.0000
     47 C42        1.7542    6.7125    2.2555 Du        2 SUP2    0.0000
     48 N3        -3.4585    5.8192    5.8577 Du        2 SUP2    0.0000
     49 N4        -5.4664    7.9768    9.7523 Du        2 SUP2    0.0000
     50 O4        -2.1800    2.2163    4.5837 Du        2 SUP2    0.0000
     51 O5        -6.4357    8.0265   10.4936 Du        2 SUP2    0.0000
     52 O6        -4.4663    8.7033    9.7997 Du        2 SUP2    0.0000
     53 H1        -2.8426    3.1294    5.4309 H         1 RES1    0.0000
     54 H2         0.6923    4.1051    1.8430 H         1 RES1    0.0000
     55 H3        -1.6617    6.9698    3.6448 H         1 RES1    0.0000
     56 H4        -3.2187    6.4116    5.2760 H         1 RES1    0.0000
     57 H5        -6.0511    3.6854    6.4788 H         1 RES1    0.0000
     58 H6        -7.6501    4.4737    8.0152 H         1 RES1    0.0000
     59 H7        -7.1593    6.3715    9.3950 H         1 RES1    0.0000
     60 H8        -3.4549    6.6276    7.6564 H         1 RES1    0.0000
     61 H9         0.7373    0.3674    4.2550 H         1 RES1    0.0000
     62 H10        1.2233    1.8233    4.6517 H         1 RES1    0.0000
     63 H11       -0.2252    1.3013    5.1211 H         1 RES1    0.0000
     64 H12       -2.0639    0.9291    3.2813 H         1 RES1    0.0000
     65 H13       -0.9962    0.0191    2.5258 H         1 RES1    0.0000
     66 H14       -1.7280    1.2520    1.7608 H         1 RES1    0.0000
     67 H15        1.2014    0.7595    1.8967 H         1 RES1    0.0000
     68 H16        1.7853    2.1868    2.2429 H         1 RES1    0.0000
     69 H17        0.6380    1.9925    1.0922 H         1 RES1    0.0000
     70 H18        0.5498    5.4450    0.0205 H         1 RES1    0.0000
     71 H19       -0.8078    6.2893   -0.0537 H         1 RES1    0.0000
     72 H20        0.6406    6.9888   -0.3699 H         1 RES1    0.0000
     73 H21       -1.3003    8.1651    1.6312 H         1 RES1    0.0000
     74 H22        0.1618    8.7749    1.2534 H         1 RES1    0.0000
     75 H23       -0.1982    8.4953    2.7834 H         1 RES1    0.0000
     76 H24        1.9111    7.1305    2.9968 H         1 RES1    0.0000
     77 H25        2.2525    5.9497    1.9852 H         1 RES1    0.0000
     78 H26        2.2756    7.4611    1.4731 H         1 RES1    0.0000
     79 H27       -3.0727    6.5722    5.6158 Du        2 SUP2    0.0000
     80 H28        0.7564    4.0981    1.8604 Du        2 SUP2    0.0000
     81 H29       -1.7681    6.5226    3.9957 Du        2 SUP2    0.0000
     82 H30       -3.4765    3.8757    5.5542 Du        2 SUP2    0.0000
     83 H31       -5.5246    4.2507    6.1280 Du        2 SUP2    0.0000
     84 H32       -7.2811    4.3923    7.6422 Du        2 SUP2    0.0000
     85 H33       -7.2806    6.0384    9.3650 Du        2 SUP2    0.0000
     86 H34       -3.7845    7.4933    7.8571 Du        2 SUP2    0.0000
     87 H35        1.3588    1.4196    4.3292 Du        2 SUP2    0.0000
     88 H36        0.7933    0.0043    3.8393 Du        2 SUP2    0.0000
     89 H37       -0.1241    0.9685    4.7276 Du        2 SUP2    0.0000
     90 H38       -1.8968    0.7389    2.7550 Du        2 SUP2    0.0000
     91 H39       -0.7900   -0.2351    2.1322 Du        2 SUP2    0.0000
     92 H40       -1.3514    0.9918    1.2708 Du        2 SUP2    0.0000
     93 H41        0.7423    1.8990    0.8330 Du        2 SUP2    0.0000
     94 H42        1.5790    0.8116    1.6580 Du        2 SUP2    0.0000
     95 H43        1.7647    2.3696    1.9710 Du        2 SUP2    0.0000
     96 H44        0.6784    5.6439    0.1549 Du        2 SUP2    0.0000
     97 H45        0.3633    7.1981   -0.0616 Du        2 SUP2    0.0000
     98 H46       -0.8318    6.1702    0.2134 Du        2 SUP2    0.0000
     99 H47       -1.3357    7.9966    2.0074 Du        2 SUP2    0.0000
    100 H48        0.0695    8.6979    1.7007 Du        2 SUP2    0.0000
    101 H49       -0.2778    8.2166    3.1865 Du        2 SUP2    0.0000
    102 H50        1.8815    6.6717    3.2276 Du        2 SUP2    0.0000
    103 H51        2.1155    7.5527    1.9109 Du        2 SUP2    0.0000
    104 H52        2.2189    5.9571    1.8351 Du        2 SUP2    0.0000
@<TRIPOS>BOND
     1    1    2 ar
     2    2    3 ar
     3    3    4 ar
     4    4    5 ar
     5    5    6 ar
     6    6    1 ar
     7    7    1 1
     8    8    9 ar
     9    9   10 ar
    10   10   11 ar
    11   11   12 ar
    12   12   13 ar
    13   13    8 ar
    14   14    3 1
    15   15   14 1
    16   16   14 1
    17   17   14 1
    18   18    5 1
    19   19   18 1
    20   20   18 1
    21   21   18 1
    22   22    7 2
    23   23   12 1
    24   24    2 1
    25   25   23 2
    26   26   23 2
    27   53   24 1
    28   54    4 1
    29   55    6 1
    30   56    7 1
    31   57    9 1
    32   58   10 1
    33   59   11 1
    34   60   13 1
    35   61   15 1
    36   62   15 1
    37   63   15 1
    38   64   16 1
    39   65   16 1
    40   66   16 1
    41   67   17 1
    42   68   17 1
    43   69   17 1
    44   70   19 1
    45   71   19 1
    46   72   19 1
    47   73   20 1
    48   74   20 1
    49   75   20 1
    50   76   21 1
    51   77   21 1
    52   78   21 1
    53    8   22 1
@<TRIPOS>SUBSTRUCTURE
     1 RES1 1
     2 SUP2 27

@<TRIPOS>CRYSIN
   6.1295   10.3683   16.2420 101.9536  92.8584 103.3458   2 1

