# MOL2 file generated by ConQuest
# Please check atom types

@<TRIPOS>MOLECULE
KIPMEB02
    52    53     1
SMALL
NO_CHARGES
****
Generated from CSD

@<TRIPOS>ATOM
      1 N1        -3.6044    4.6058    5.9982 N.2       1 RES1    0.0000
      2 N2        -4.8431    7.7477    9.5693 N.pl3     1 RES1    0.0000
      3 O1        -2.1315    2.7243    4.9431 O.3       1 RES1    0.0000
      4 O2        -5.7083    8.1682   10.3314 O.2       1 RES1    0.0000
      5 O3        -3.6996    8.1986    9.5123 O.2       1 RES1    0.0000
      6 C1        -1.9434    5.0301    4.3030 C.ar      1 RES1    0.0000
      7 C2        -1.5542    3.6790    4.1683 C.ar      1 RES1    0.0000
      8 C3        -0.5463    3.3133    3.2479 C.ar      1 RES1    0.0000
      9 C4         0.0230    4.3432    2.4953 C.ar      1 RES1    0.0000
     10 C5        -0.3525    5.7015    2.5904 C.ar      1 RES1    0.0000
     11 C6        -1.3296    6.0223    3.5140 C.ar      1 RES1    0.0000
     12 C7        -2.9671    5.4435    5.2473 C.2       1 RES1    0.0000
     13 C8        -4.5347    5.1123    6.9393 C.ar      1 RES1    0.0000
     14 C9        -5.7739    4.4669    7.0772 C.ar      1 RES1    0.0000
     15 C10       -6.7143    4.9372    7.9881 C.ar      1 RES1    0.0000
     16 C11       -6.4304    6.0302    8.8072 C.ar      1 RES1    0.0000
     17 C12       -5.1842    6.6252    8.6742 C.ar      1 RES1    0.0000
     18 C13       -4.2263    6.2022    7.7584 C.ar      1 RES1    0.0000
     19 C14       -0.0991    1.8494    3.0847 C.3       1 RES1    0.0000
     20 C15        0.4912    1.3223    4.4092 C.3       1 RES1    0.0000
     21 C16       -1.2870    0.9620    2.6601 C.3       1 RES1    0.0000
     22 C17        0.9883    1.7151    2.0105 C.3       1 RES1    0.0000
     23 C18        0.3281    6.7418    1.6889 C.3       1 RES1    0.0000
     24 C19        0.1770    6.3334    0.2123 C.3       1 RES1    0.0000
     25 C20       -0.2824    8.1387    1.8600 C.3       1 RES1    0.0000
     26 C21        1.8195    6.8284    2.0469 C.3       1 RES1    0.0000
     27 H1        -2.7743    3.1471    5.4532 H         1 RES1    0.0000
     28 H2         0.7253    4.1084    1.8584 H         1 RES1    0.0000
     29 H3        -1.6258    6.9562    3.6598 H         1 RES1    0.0000
     30 H4        -3.1681    6.4224    5.2900 H         1 RES1    0.0000
     31 H5        -5.9662    3.7027    6.5068 H         1 RES1    0.0000
     32 H6        -7.5770    4.4675    8.0483 H         1 RES1    0.0000
     33 H7        -7.0762    6.3658    9.4378 H         1 RES1    0.0000
     34 H8        -3.3689    6.6119    7.6887 H         1 RES1    0.0000
     35 H9         0.7904    0.3940    4.2824 H         1 RES1    0.0000
     36 H10        1.2768    1.8719    4.6753 H         1 RES1    0.0000
     37 H11       -0.1739    1.3302    5.1538 H         1 RES1    0.0000
     38 H12       -2.0128    0.9437    3.3318 H         1 RES1    0.0000
     39 H13       -0.9510    0.0456    2.5603 H         1 RES1    0.0000
     40 H14       -1.6736    1.2741    1.7950 H         1 RES1    0.0000
     41 H15        1.2503    0.7823    1.9202 H         1 RES1    0.0000
     42 H16        1.8102    2.1965    2.2719 H         1 RES1    0.0000
     43 H17        0.6641    2.0160    1.1201 H         1 RES1    0.0000
     44 H18        0.5745    5.4439    0.0222 H         1 RES1    0.0000
     45 H19       -0.7700    6.3025   -0.0396 H         1 RES1    0.0000
     46 H20        0.6573    6.9918   -0.3755 H         1 RES1    0.0000
     47 H21       -1.2575    8.1644    1.6366 H         1 RES1    0.0000
     48 H22        0.1825    8.7737    1.2342 H         1 RES1    0.0000
     49 H23       -0.1620    8.4904    2.7757 H         1 RES1    0.0000
     50 H24        1.9403    7.1412    2.9833 H         1 RES1    0.0000
     51 H25        2.2868    5.9612    1.9598 H         1 RES1    0.0000
     52 H26        2.2942    7.4581    1.4528 H         1 RES1    0.0000
@<TRIPOS>BOND
     1    1   12 2
     2    2    4 2
     3    3    7 1
     4    5    2 2
     5    6    7 ar
     6    7    8 ar
     7    8    9 ar
     8    9   10 ar
     9   10   11 ar
    10   11    6 ar
    11   12    6 1
    12   13    1 1
    13   14   13 ar
    14   15   14 ar
    15   16   15 ar
    16   17    2 1
    17   18   13 ar
    18   19    8 1
    19   20   19 1
    20   21   19 1
    21   22   19 1
    22   23   10 1
    23   24   23 1
    24   25   23 1
    25   26   23 1
    26   27    3 1
    27   28    9 1
    28   29   11 1
    29   30   12 1
    30   31   14 1
    31   32   15 1
    32   33   16 1
    33   34   18 1
    34   35   20 1
    35   36   20 1
    36   37   20 1
    37   38   21 1
    38   39   21 1
    39   40   21 1
    40   41   22 1
    41   42   22 1
    42   43   22 1
    43   44   24 1
    44   45   24 1
    45   46   24 1
    46   47   25 1
    47   48   25 1
    48   49   25 1
    49   50   26 1
    50   51   26 1
    51   52   26 1
    52   16   17 ar
    53   17   18 ar
@<TRIPOS>SUBSTRUCTURE
     1 RES1 1

@<TRIPOS>CRYSIN
   6.0956   10.3034   16.2777 102.1639  92.3604 103.0128   2 1

