# MOL2 file generated by ConQuest
# Please check atom types

@<TRIPOS>MOLECULE
KIPMEB03
   104    53     2
SMALL
NO_CHARGES
****
Generated from CSD

@<TRIPOS>ATOM
      1 O1         0.8790    2.6951    4.9090 O.3       1 RES1    0.0000
      2 H1         0.5335    3.0548    5.5845 H         1 RES1    0.0000
      3 O2        -0.7169    8.2032    9.4574 O.2       1 RES1    0.0000
      4 O3        -2.7534    8.1889   10.2488 O.2       1 RES1    0.0000
      5 N1        -0.5803    4.5900    5.9738 N.2       1 RES1    0.0000
      6 N2        -1.8635    7.7783    9.5015 N.pl3     1 RES1    0.0000
      7 C1         1.0677    5.0006    4.2846 C.ar      1 RES1    0.0000
      8 C2         1.4498    3.6478    4.1332 C.ar      1 RES1    0.0000
      9 C3         2.4888    3.3047    3.2292 C.ar      1 RES1    0.0000
     10 C4         3.0507    4.3332    2.4783 C.ar      1 RES1    0.0000
     11 H2         3.7331    4.1146    1.8536 H         1 RES1    0.0000
     12 C5         2.6548    5.6963    2.5982 C.ar      1 RES1    0.0000
     13 C6         1.6762    5.9860    3.5069 C.ar      1 RES1    0.0000
     14 H3         1.4020    6.8890    3.6141 H         1 RES1    0.0000
     15 C7         0.0462    5.4011    5.2185 C.2       1 RES1    0.0000
     16 H4        -0.1717    6.3240    5.2753 H         1 RES1    0.0000
     17 C8        -1.5377    5.1052    6.9126 C.ar      1 RES1    0.0000
     18 C9        -1.2477    6.1999    7.7175 C.ar      1 RES1    0.0000
     19 H5        -0.4046    6.6321    7.6463 H         1 RES1    0.0000
     20 C10       -2.1904    6.6633    8.6276 C.ar      1 RES1    0.0000
     21 C11       -3.4241    6.0311    8.7328 C.ar      1 RES1    0.0000
     22 H6        -4.0683    6.3479    9.3548 H         1 RES1    0.0000
     23 C12       -3.7145    4.9354    7.9279 C.ar      1 RES1    0.0000
     24 H7        -4.5570    4.5031    7.9997 H         1 RES1    0.0000
     25 C13       -2.7714    4.4729    7.0178 C.ar      1 RES1    0.0000
     26 H8        -2.9698    3.7237    6.4679 H         1 RES1    0.0000
     27 C14        2.9150    1.8351    3.0431 C.3       1 RES1    0.0000
     28 C15        1.7378    0.9573    2.5966 C.3       1 RES1    0.0000
     29 H9         1.0678    0.9205    3.3113 H         1 RES1    0.0000
     30 H10        2.0601    0.0518    2.4042 H         1 RES1    0.0000
     31 H11        1.3342    1.3387    1.7889 H         1 RES1    0.0000
     32 C16        3.5225    1.3040    4.3493 C.3       1 RES1    0.0000
     33 H12        4.1911    1.9388    4.6806 H         1 RES1    0.0000
     34 H13        3.9502    0.4380    4.1821 H         1 RES1    0.0000
     35 H14        2.8155    1.1953    5.0182 H         1 RES1    0.0000
     36 C17        4.0006    1.6806    1.9640 C.3       1 RES1    0.0000
     37 H15        3.6360    1.9458    1.0932 H         1 RES1    0.0000
     38 H16        4.2917    0.7457    1.9246 H         1 RES1    0.0000
     39 H17        4.7654    2.2524    2.1849 H         1 RES1    0.0000
     40 C18        3.3525    6.7339    1.7037 C.3       1 RES1    0.0000
     41 C19        3.2139    6.3268    0.2335 C.3       1 RES1    0.0000
     42 H18        3.5800    5.4257    0.1089 H         1 RES1    0.0000
     43 H19        3.7068    6.9605   -0.3297 H         1 RES1    0.0000
     44 H20        2.2677    6.3319   -0.0189 H         1 RES1    0.0000
     45 C20        4.8373    6.8238    2.0887 C.3       1 RES1    0.0000
     46 H21        4.9171    7.1610    3.0052 H         1 RES1    0.0000
     47 H22        5.2978    7.4330    1.4750 H         1 RES1    0.0000
     48 H23        5.2440    5.9336    2.0303 H         1 RES1    0.0000
     49 C21        2.7247    8.1342    1.8978 C.3       1 RES1    0.0000
     50 H24        1.7608    8.0867    1.7290 H         1 RES1    0.0000
     51 H25        3.1355    8.7654    1.2715 H         1 RES1    0.0000
     52 H26        2.8809    8.4378    2.8159 H         1 RES1    0.0000
     53 O4         0.9376    2.0567    4.3887 Du        2 SUP2    0.0000
     54 O5        -1.5476    8.5201    9.6183 Du        2 SUP2    0.0000
     55 O6        -3.4591    7.8935   10.5853 Du        2 SUP2    0.0000
     56 N3        -0.2542    5.6561    5.8337 Du        2 SUP2    0.0000
     57 H27        0.2960    6.3299    5.7012 Du        2 SUP2    0.0000
     58 N4        -2.5314    7.7885    9.7918 Du        2 SUP2    0.0000
     59 C22        1.3103    4.5079    4.4692 Du        2 SUP2    0.0000
     60 C23        1.5324    3.1843    4.1095 Du        2 SUP2    0.0000
     61 C24        2.3983    2.8845    3.0620 Du        2 SUP2    0.0000
     62 C25        3.0360    3.9088    2.3726 Du        2 SUP2    0.0000
     63 H28        3.6252    3.7034    1.6564 Du        2 SUP2    0.0000
     64 C26        2.8139    5.2325    2.7323 Du        2 SUP2    0.0000
     65 C27        1.9481    5.5322    3.7798 Du        2 SUP2    0.0000
     66 H29        1.7971    6.4374    4.0259 Du        2 SUP2    0.0000
     67 C28        0.0754    4.5354    5.1586 Du        2 SUP2    0.0000
     68 H30       -0.5070    3.7859    5.1444 Du        2 SUP2    0.0000
     69 C29       -1.3209    5.9462    6.7187 Du        2 SUP2    0.0000
     70 C30       -1.3106    6.8214    7.7978 Du        2 SUP2    0.0000
     71 H31       -0.6531    7.5044    7.8514 Du        2 SUP2    0.0000
     72 C31       -2.2673    6.6966    8.8011 Du        2 SUP2    0.0000
     73 C32       -3.2283    5.6980    8.7238 Du        2 SUP2    0.0000
     74 H32       -3.8810    5.6118    9.4085 Du        2 SUP2    0.0000
     75 C33       -3.2380    4.8212    7.6432 Du        2 SUP2    0.0000
     76 H33       -3.8952    4.1392    7.5895 Du        2 SUP2    0.0000
     77 C34       -2.2816    4.9470    6.6399 Du        2 SUP2    0.0000
     78 H34       -2.2886    4.3491    5.9016 Du        2 SUP2    0.0000
     79 C35        3.0486    1.5078    2.8443 Du        2 SUP2    0.0000
     80 C36        1.9464    0.4564    2.6345 Du        2 SUP2    0.0000
     81 H35        1.0923    0.9089    2.4625 Du        2 SUP2    0.0000
     82 H36        1.8633   -0.0958    3.4406 Du        2 SUP2    0.0000
     83 H37        2.1748   -0.1115    1.8710 Du        2 SUP2    0.0000
     84 C37        3.5256    0.6996    4.0606 Du        2 SUP2    0.0000
     85 H38        3.6194   -0.2424    3.8129 Du        2 SUP2    0.0000
     86 H39        2.8735    0.7861    4.7863 Du        2 SUP2    0.0000
     87 H40        4.3944    1.0465    4.3619 Du        2 SUP2    0.0000
     88 C38        4.2831    1.7885    1.9672 Du        2 SUP2    0.0000
     89 H41        4.8066    2.5140    2.3632 Du        2 SUP2    0.0000
     90 H42        3.9919    2.0452    1.0680 Du        2 SUP2    0.0000
     91 H43        4.8340    0.9781    1.9120 Du        2 SUP2    0.0000
     92 C39        3.2702    6.3377    1.7889 Du        2 SUP2    0.0000
     93 C40        3.2452    6.2408    0.2571 Du        2 SUP2    0.0000
     94 H44        3.6277    5.3860   -0.0237 Du        2 SUP2    0.0000
     95 H45        3.7660    6.9768   -0.1262 Du        2 SUP2    0.0000
     96 H46        2.3167    6.3028   -0.0584 Du        2 SUP2    0.0000
     97 C41        4.7910    6.3256    2.0193 Du        2 SUP2    0.0000
     98 H47        5.1872    7.1246    1.6028 Du        2 SUP2    0.0000
     99 H48        5.1763    5.5236    1.6107 Du        2 SUP2    0.0000
    100 H49        4.9771    6.3322    2.9768 Du        2 SUP2    0.0000
    101 C42        2.8526    7.7997    2.0035 Du        2 SUP2    0.0000
    102 H50        1.9794    7.9542    1.5886 Du        2 SUP2    0.0000
    103 H51        3.5175    8.3943    1.6091 Du        2 SUP2    0.0000
    104 H52        2.7861    7.9782    2.9705 Du        2 SUP2    0.0000
@<TRIPOS>BOND
     1    1    2 1
     2    3    6 2
     3    4    6 2
     4    5   15 2
     5    6   20 1
     6    7    8 ar
     7    8    1 1
     8    9    8 ar
     9   10    9 ar
    10   11   10 1
    11   12   10 ar
    12   13    7 ar
    13   14   13 1
    14   15    7 1
    15   16   15 1
    16   17    5 1
    17   18   17 ar
    18   19   18 1
    19   20   18 ar
    20   21   20 ar
    21   22   21 1
    22   23   21 ar
    23   24   23 1
    24   25   17 ar
    25   26   25 1
    26   27    9 1
    27   28   27 1
    28   29   28 1
    29   30   28 1
    30   31   28 1
    31   32   27 1
    32   33   32 1
    33   34   32 1
    34   35   32 1
    35   36   27 1
    36   37   36 1
    37   38   36 1
    38   39   36 1
    39   40   12 1
    40   41   40 1
    41   42   41 1
    42   43   41 1
    43   44   41 1
    44   45   40 1
    45   46   45 1
    46   47   45 1
    47   48   45 1
    48   49   40 1
    49   50   49 1
    50   51   49 1
    51   52   49 1
    52   12   13 ar
    53   23   25 ar
@<TRIPOS>SUBSTRUCTURE
     1 RES1 1
     2 SUP2 53

@<TRIPOS>CRYSIN
   6.1172   10.3417   16.2127 102.0170  92.7970 103.2960   2 1

