# MOL2 file generated by ConQuest
# Please check atom types

@<TRIPOS>MOLECULE
KIPPOR
    42    45     1
SMALL
NO_CHARGES
****
Generated from CSD

@<TRIPOS>ATOM
      1 N1        -1.3301    9.1842    5.0160 N.pl3     1 RES1    0.0000
      2 O1         3.8699    2.4949    2.3002 O.2       1 RES1    0.0000
      3 O2        -1.6708    9.7856    4.0122 O.2       1 RES1    0.0000
      4 O3        -1.6328    9.5332    6.1547 O.2       1 RES1    0.0000
      5 C1         4.7991    2.4909    5.3601 C.ar      1 RES1    0.0000
      6 C2         5.6749    3.5610    5.0091 C.ar      1 RES1    0.0000
      7 H1         5.4783    4.0985    4.2510 H         1 RES1    0.0000
      8 C3         6.7903    3.8216    5.7462 C.ar      1 RES1    0.0000
      9 H2         7.3568    4.5427    5.5007 H         1 RES1    0.0000
     10 C4         7.1155    3.0278    6.8777 C.ar      1 RES1    0.0000
     11 H3         7.9002    3.2164    7.3795 H         1 RES1    0.0000
     12 C5         6.3092    2.0019    7.2442 C.ar      1 RES1    0.0000
     13 H4         6.5371    1.4765    8.0023 H         1 RES1    0.0000
     14 C6         5.1231    1.6964    6.5107 C.ar      1 RES1    0.0000
     15 C7         4.2938    0.6355    6.8697 C.ar      1 RES1    0.0000
     16 H5         4.5277    0.0942    7.6141 H         1 RES1    0.0000
     17 C8         3.1301    0.3521    6.1614 C.ar      1 RES1    0.0000
     18 C9         2.2728   -0.7225    6.5302 C.ar      1 RES1    0.0000
     19 H6         2.5037   -1.2715    7.2701 H         1 RES1    0.0000
     20 C10        1.1292   -0.9769    5.8407 C.ar      1 RES1    0.0000
     21 H7         0.5743   -1.7030    6.0982 H         1 RES1    0.0000
     22 C11        0.7602   -0.1605    4.7363 C.ar      1 RES1    0.0000
     23 H8        -0.0508   -0.3322    4.2731 H         1 RES1    0.0000
     24 C12        1.5605    0.8648    4.3373 C.ar      1 RES1    0.0000
     25 H9         1.3048    1.3963    3.5925 H         1 RES1    0.0000
     26 C13        2.7809    1.1523    5.0232 C.ar      1 RES1    0.0000
     27 C14        3.6433    2.1881    4.6299 C.ar      1 RES1    0.0000
     28 C15        3.3773    2.9220    3.3368 C.2       1 RES1    0.0000
     29 C16        2.5360    4.1173    3.3375 C.2       1 RES1    0.0000
     30 H10        2.4044    4.5872    2.5226 H         1 RES1    0.0000
     31 C17        1.9469    4.5685    4.4476 C.2       1 RES1    0.0000
     32 H11        2.1067    4.0807    5.2472 H         1 RES1    0.0000
     33 C18        1.0798    5.7409    4.5515 C.ar      1 RES1    0.0000
     34 C19        0.6275    6.4485    3.4307 C.ar      1 RES1    0.0000
     35 H12        0.8606    6.1477    2.5605 H         1 RES1    0.0000
     36 C20       -0.1525    7.5760    3.5766 C.ar      1 RES1    0.0000
     37 H13       -0.4476    8.0608    2.8151 H         1 RES1    0.0000
     38 C21       -0.4976    7.9896    4.8543 C.ar      1 RES1    0.0000
     39 C22       -0.0954    7.3074    5.9915 C.ar      1 RES1    0.0000
     40 H14       -0.3544    7.6000    6.8577 H         1 RES1    0.0000
     41 C23        0.6984    6.1818    5.8224 C.ar      1 RES1    0.0000
     42 H15        0.9891    5.6997    6.5874 H         1 RES1    0.0000
@<TRIPOS>BOND
     1    1    3 2
     2    2   28 2
     3    4    1 2
     4    5    6 ar
     5    6    7 1
     6    8    6 ar
     7    9    8 1
     8   10    8 ar
     9   11   10 1
    10   12   10 ar
    11   13   12 1
    12   14    5 ar
    13   15   14 ar
    14   16   15 1
    15   17   15 ar
    16   18   17 ar
    17   19   18 1
    18   20   18 ar
    19   21   20 1
    20   22   20 ar
    21   23   22 1
    22   24   22 ar
    23   25   24 1
    24   26   17 ar
    25   27    5 ar
    26   28   27 1
    27   29   28 1
    28   30   29 1
    29   31   29 2
    30   32   31 1
    31   33   31 1
    32   34   33 ar
    33   35   34 1
    34   36   34 ar
    35   37   36 1
    36   38    1 1
    37   39   38 ar
    38   40   39 1
    39   41   33 ar
    40   42   41 1
    41   12   14 ar
    42   24   26 ar
    43   26   27 ar
    44   36   38 ar
    45   39   41 ar
@<TRIPOS>SUBSTRUCTURE
     1 RES1 1

@<TRIPOS>CRYSIN
  12.9197   12.7282   10.9016  90.0000 105.2120  90.0000  14 1

