# MOL2 file generated by ConQuest
# Please check atom types

@<TRIPOS>MOLECULE
KIQNUW
    27    28     1
SMALL
NO_CHARGES
****
Generated from CSD

@<TRIPOS>ATOM
      1 O1         7.4860    3.6713    1.3954 O.2       1 RES1    0.0000
      2 O2         5.7540    4.4964    0.4081 O.2       1 RES1    0.0000
      3 O3         2.2540    1.6810    4.9254 O.2       1 RES1    0.0000
      4 O4         1.4682    2.9912    3.3994 O.2       1 RES1    0.0000
      5 O5         7.6666    4.5598    4.4478 O.2       1 RES1    0.0000
      6 O6         9.2517    4.6311    5.9318 O.2       1 RES1    0.0000
      7 O7         7.1054   -1.1982    7.5233 O.2       1 RES1    0.0000
      8 O8         8.0754    0.1021    8.9624 O.2       1 RES1    0.0000
      9 N1         5.7961    2.4852    3.3109 N.3       1 RES1    0.0000
     10 N2         4.7436    2.0613    4.0203 N.2       1 RES1    0.0000
     11 N3         6.2855    3.8593    1.2917 N.pl3     1 RES1    0.0000
     12 N4         2.3799    2.4118    3.9611 N.pl3     1 RES1    0.0000
     13 N5         7.3549    1.8587    5.0260 N.3       1 RES1    0.0000
     14 N6         7.1667    0.7023    5.6784 N.2       1 RES1    0.0000
     15 N7         8.3165    4.0850    5.3686 N.pl3     1 RES1    0.0000
     16 N8         7.6121   -0.1379    7.8547 N.pl3     1 RES1    0.0000
     17 C1         5.3963    3.2909    2.2855 C.2       1 RES1    0.0000
     18 C2         4.0342    3.4212    2.3297 C.2       1 RES1    0.0000
     19 C3         3.7119    2.6395    3.4238 C.2       1 RES1    0.0000
     20 C4         7.0971    1.8784    3.5952 C.3       1 RES1    0.0000
     21 C5         7.9786    2.7645    5.8297 C.2       1 RES1    0.0000
     22 C6         8.1929    2.2112    7.0558 C.2       1 RES1    0.0000
     23 C7         7.6579    0.9363    6.8835 C.2       1 RES1    0.0000
     24 H1         7.7349    2.3924    3.1518 H         1 RES1    0.0000
     25 H2         7.0608    0.9648    3.3430 H         1 RES1    0.0000
     26 H3         8.5904    2.5893    7.8284 H         1 RES1    0.0000
     27 H4         3.5693    3.9282    1.8327 H         1 RES1    0.0000
@<TRIPOS>BOND
     1    1   11 2
     2    2   11 2
     3    3   12 2
     4    4   12 2
     5    5   15 2
     6    6   15 2
     7    7   16 2
     8    8   16 2
     9    9   10 1
    10   10   19 2
    11   11   17 1
    12   12   19 1
    13   13   14 1
    14   14   23 2
    15   15   21 1
    16   16   23 1
    17   17    9 1
    18   18   17 2
    19   19   18 1
    20   20    9 1
    21   21   13 1
    22   22   21 2
    23   23   22 1
    24   24   20 1
    25   25   20 1
    26   26   22 1
    27   27   18 1
    28   13   20 1
@<TRIPOS>SUBSTRUCTURE
     1 RES1 1

@<TRIPOS>CRYSIN
   8.6423    9.8451   14.5917  90.0000  90.0000  90.0000  19 1

