# MOL2 file generated by ConQuest
# Please check atom types

@<TRIPOS>MOLECULE
KIQWUE
    43    44     1
SMALL
USER_CHARGES
****
Generated from CSD

@<TRIPOS>ATOM
      1 O1        -2.2789   11.1901    3.2282 O.2       1 RES1   -1.0000
      2 N1        -1.4932   10.7826    2.2925 N.pl3     1 RES1    1.0000
      3 C1        -1.8999   10.8193    0.8443 C.3       1 RES1    0.0000
      4 C2        -2.7095   12.0517    0.5531 C.3       1 RES1    0.0000
      5 H1        -2.8721   12.1336   -0.4534 H         1 RES1    0.0000
      6 H2        -2.2199   12.8487    0.8601 H         1 RES1    0.0000
      7 H3        -3.5590   12.0568    1.0282 H         1 RES1    0.0000
      8 C3        -2.7181    9.5515    0.6162 C.3       1 RES1    0.0000
      9 H4        -3.0019    9.5049   -0.3147 H         1 RES1    0.0000
     10 H5        -2.0968    8.7194    0.7895 H         1 RES1    0.0000
     11 H6        -3.4718    9.5881    1.2042 H         1 RES1    0.0000
     12 C4        -0.4979   10.7578    0.1734 C.3       1 RES1    0.0000
     13 C5         0.1708   12.1198    0.0120 C.3       1 RES1    0.0000
     14 H7        -0.2401   12.6119   -0.6694 H         1 RES1    0.0000
     15 H8         1.1068   11.9480   -0.2374 H         1 RES1    0.0000
     16 H9         0.1279   12.6311    0.8281 H         1 RES1    0.0000
     17 C6        -0.4427    9.9824   -1.1254 C.3       1 RES1    0.0000
     18 H10       -0.9795   10.4297   -1.8043 H         1 RES1    0.0000
     19 H11       -0.7653    9.0330   -1.0082 H         1 RES1    0.0000
     20 H12        0.4700    9.9577   -1.4482 H         1 RES1    0.0000
     21 N2         0.2654   10.0320    1.2370 N.pl3     1 RES1    0.0000
     22 O2         1.3855    9.4753    1.0055 O.2       1 RES1    0.0000
     23 C7        -0.3143   10.1700    2.4516 C.2       1 RES1    0.0000
     24 C8         0.3064    9.7326    3.6848 C.2       1 RES1    0.0000
     25 N3        -0.3735    9.0778    4.6767 N.3       1 RES1    0.0000
     26 N4         0.4514    8.7472    5.6903 N.2       1 RES1    0.0000
     27 C9        -1.7296    8.5461    4.6598 C.3       1 RES1    0.0000
     28 H13       -2.3211    9.2362    4.2633 H         1 RES1    0.0000
     29 H14       -1.9721    8.4138    5.5742 H         1 RES1    0.0000
     30 C10       -1.8229    7.2505    3.8973 C.3       1 RES1    0.0000
     31 H15       -1.5257    7.4107    2.9964 H         1 RES1    0.0000
     32 H16       -1.1909    6.6491    4.3020 H         1 RES1    0.0000
     33 C11       -3.2085    6.6568    3.8883 C.3       1 RES1    0.0000
     34 H17       -3.5190    6.5132    4.8047 H         1 RES1    0.0000
     35 H18       -3.8207    7.2843    3.4432 H         1 RES1    0.0000
     36 C12       -3.2687    5.3209    3.1898 C.3       1 RES1    0.0000
     37 H19       -4.1737    4.9725    3.2552 H         1 RES1    0.0000
     38 H20       -2.9498    5.3756    2.2323 H         1 RES1    0.0000
     39 H21       -2.6000    4.6861    3.6419 H         1 RES1    0.0000
     40 C13        1.6425    9.2157    5.3345 C.2       1 RES1    0.0000
     41 H22        2.4048    9.0938    5.9316 H         1 RES1    0.0000
     42 C14        1.6107    9.8323    4.0934 C.2       1 RES1    0.0000
     43 H23        2.3627   10.2329    3.6232 H         1 RES1    0.0000
@<TRIPOS>BOND
     1    1    2 1
     2    2    3 1
     3    3    4 1
     4    4    5 1
     5    6    4 1
     6    7    4 1
     7    8    3 1
     8    9    8 1
     9   10    8 1
    10   11    8 1
    11   12    3 1
    12   13   12 1
    13   14   13 1
    14   15   13 1
    15   16   13 1
    16   17   12 1
    17   18   17 1
    18   19   17 1
    19   20   17 1
    20   21   12 1
    21   22   21 1
    22   23    2 2
    23   24   23 1
    24   25   24 1
    25   26   25 1
    26   27   25 1
    27   28   27 1
    28   29   27 1
    29   30   27 1
    30   31   30 1
    31   32   30 1
    32   33   30 1
    33   34   33 1
    34   35   33 1
    35   36   33 1
    36   37   36 1
    37   38   36 1
    38   39   36 1
    39   40   26 2
    40   41   40 1
    41   42   24 2
    42   43   42 1
    43   21   23 1
    44   40   42 1
@<TRIPOS>SUBSTRUCTURE
     1 RES1 1

@<TRIPOS>CRYSIN
   7.2487   15.9989   13.6110  90.0000 101.5510  90.0000  14 1

