# MOL2 file generated by ConQuest
# Please check atom types

@<TRIPOS>MOLECULE
KIQXAL
    37    38     1
SMALL
USER_CHARGES
****
Generated from CSD

@<TRIPOS>ATOM
      1 O1         0.5315    1.5476    0.7417 O.2       1 RES1   -1.0000
      2 N1         1.5378    1.3611   -0.0265 N.pl3     1 RES1    1.0000
      3 C1         1.5746    1.8836   -1.4312 C.3       1 RES1    0.0000
      4 N2         3.4844    0.7093   -0.7705 N.pl3     1 RES1    0.0000
      5 O2         4.6848    0.2625   -0.8098 O.2       1 RES1    0.0000
      6 C2         0.2183    1.6992   -2.0790 C.3       1 RES1    0.0000
      7 H1        -0.1446    0.7574   -1.9881 H         1 RES1    0.0000
      8 H2         0.2760    1.9364   -3.0357 H         1 RES1    0.0000
      9 H3        -0.4173    2.3223   -1.7252 H         1 RES1    0.0000
     10 N3         3.1197    0.0876    3.8489 N.2       1 RES1    0.0000
     11 C3         1.9486    3.3577   -1.3315 C.3       1 RES1    0.0000
     12 H4         1.2978    3.8086   -0.7867 H         1 RES1    0.0000
     13 H5         1.9788    3.7585   -2.2568 H         1 RES1    0.0000
     14 H6         2.7865    3.4941   -0.9483 H         1 RES1    0.0000
     15 N4         2.7827    0.8695    2.7972 N.3       1 RES1    0.0000
     16 C4         2.7060    1.0062   -2.0171 C.3       1 RES1    0.0000
     17 C5         3.5734    1.6871   -3.0517 C.3       1 RES1    0.0000
     18 H7         4.2500    1.0790   -3.3667 H         1 RES1    0.0000
     19 H8         4.0313    2.4652   -2.6716 H         1 RES1    0.0000
     20 H9         3.0279    1.9579   -3.7542 H         1 RES1    0.0000
     21 C6         2.2195   -0.3487   -2.5263 C.3       1 RES1    0.0000
     22 H10        3.0077   -0.8860   -2.7027 H         1 RES1    0.0000
     23 H11        1.5905   -0.7860   -1.8596 H         1 RES1    0.0000
     24 H12        1.7201   -0.2358   -3.3979 H         1 RES1    0.0000
     25 C7         2.7055    0.8036    0.3211 C.2       1 RES1    0.0000
     26 C8         3.0332    0.2517    1.6135 C.2       1 RES1    0.0000
     27 C9         3.5481   -0.9846    1.9184 C.2       1 RES1    0.0000
     28 H13        3.7870   -1.6220    1.3299 H         1 RES1    0.0000
     29 C10        3.5713   -1.0368    3.2910 C.2       1 RES1    0.0000
     30 H14        3.8557   -1.7506    3.8399 H         1 RES1    0.0000
     31 C11        2.3631    2.2473    3.0565 C.3       1 RES1    0.0000
     32 H15        3.1227    2.6867    3.4758 H         1 RES1    0.0000
     33 H16        2.2625    2.6438    2.2081 H         1 RES1    0.0000
     34 C12        1.1375    2.3166    3.9038 C.3       1 RES1    0.0000
     35 H17        0.4581    1.9436    3.4524 H         1 RES1    0.0000
     36 H18        1.2759    1.8721    4.7006 H         1 RES1    0.0000
     37 H19        0.9061    3.2869    4.0833 H         1 RES1    0.0000
@<TRIPOS>BOND
     1    1    2 1
     2    2    3 1
     3    3    6 1
     4    4    5 1
     5    6    7 1
     6    8    6 1
     7    9    6 1
     8   10   15 1
     9   11    3 1
    10   12   11 1
    11   13   11 1
    12   14   11 1
    13   15   26 1
    14   16    3 1
    15   17   16 1
    16   18   17 1
    17   19   17 1
    18   20   17 1
    19   21   16 1
    20   22   21 1
    21   23   21 1
    22   24   21 1
    23   25    2 2
    24   26   25 1
    25   27   26 2
    26   28   27 1
    27   29   10 2
    28   30   29 1
    29   31   15 1
    30   32   31 1
    31   33   31 1
    32   34   31 1
    33   35   34 1
    34   36   34 1
    35   37   34 1
    36    4   16 1
    37    4   25 1
    38   27   29 1
@<TRIPOS>SUBSTRUCTURE
     1 RES1 1

@<TRIPOS>CRYSIN
  19.2868    7.1455   19.8610  90.0000 101.3560  90.0000  15 1

