# MOL2 file generated by ConQuest
# Please check atom types

@<TRIPOS>MOLECULE
KIRBEU
    50    41     2
SMALL
USER_CHARGES
****
Generated from CSD

@<TRIPOS>ATOM
      1 N1         0.5159    1.3750    3.6436 N.pl3     1 RES1    1.0000
      2 O1         0.0756    1.7610    4.7791 O.2       1 RES1   -1.0000
      3 C1         0.7069   -0.0807    3.3105 C.3       1 RES1    0.0000
      4 N2         1.3389    1.3939    1.6077 N.pl3     1 RES1    0.0000
      5 O2         1.6969    1.7888    0.4473 O.2       1 RES1    0.0000
      6 C2        -0.6610   -0.6183    2.9081 C.3       1 RES1    0.0000
      7 H1        -0.6023   -1.5483    2.6494 H         1 RES1    0.0000
      8 H2        -0.9848   -0.1626    2.0624 H         1 RES1    0.0000
      9 H3        -1.2917   -0.5002    3.6251 H         1 RES1    0.0000
     10 N3        -0.4277    4.3187    2.9791 N.3       1 RES1    0.0000
     11 C3         1.2292   -0.8276    4.5279 C.3       1 RES1    0.0000
     12 H4         1.4636   -1.6820    4.2438 H         1 RES1    0.0000
     13 H5         2.0248   -0.3554    4.8982 H         1 RES1    0.0000
     14 H6         0.5487   -0.8641    5.2453 H         1 RES1    0.0000
     15 N4        -0.2925    5.6282    2.6887 N.2       1 RES1    0.0000
     16 C4         1.7009    0.0273    2.1243 C.3       1 RES1    0.0000
     17 C5         3.1574    0.1138    2.5726 C.3       1 RES1    0.0000
     18 H7         3.2763    0.7840    3.2899 H         1 RES1    0.0000
     19 H8         3.6741    0.3584    1.7451 H         1 RES1    0.0000
     20 H9         3.4561   -0.7817    2.9310 H         1 RES1    0.0000
     21 C6         1.5403   -1.0027    1.0365 C.3       1 RES1    0.0000
     22 H10        0.6622   -1.0403    0.7040 H         1 RES1    0.0000
     23 H11        1.7068   -1.8592    1.4010 H         1 RES1    0.0000
     24 H12        2.1362   -0.8017    0.3520 H         1 RES1    0.0000
     25 C7         0.7654    2.1564    2.5730 C.2       1 RES1    0.0000
     26 C8         0.5901    3.5813    2.4430 C.2       1 RES1    0.0000
     27 C9         0.8256    5.7159    1.9725 C.2       1 RES1    0.0000
     28 H13        1.1098    6.6105    1.6122 H         1 RES1    0.0000
     29 C10        1.4127    4.4738    1.7765 C.2       1 RES1    0.0000
     30 H14        2.2105    4.2735    1.2860 H         1 RES1    0.0000
     31 C11       -1.7193    3.8518    3.5745 C.3       1 RES1    0.0000
     32 H15       -1.8811    4.3298    4.4143 H         1 RES1    0.0000
     33 H16       -1.6548    2.8949    3.7798 H         1 RES1    0.0000
     34 C12       -2.8549    4.0802    2.6524 C.3       1 RES1    0.0000
     35 H17       -2.8482    5.0011    2.3153 H         1 RES1    0.0000
     36 H18       -3.7080    3.9152    3.1045 H         1 RES1    0.0000
     37 C13       -2.6392    3.0525    1.4734 C.3       1 RES1    0.0000
     38 H19       -3.3595    3.1432    0.8299 H         1 RES1    0.0000
     39 H20       -2.6342    2.1504    1.8284 H         1 RES1    0.0000
     40 H21       -1.7922    3.2340    1.0381 H         1 RES1    0.0000
     41 C14       -1.6562    3.9186    3.5755 Du        2 SUP2    0.0000
     42 H22       -2.0630    4.6893    4.0217 Du        2 SUP2    0.0000
     43 H23       -1.4760    3.2369    4.2567 Du        2 SUP2    0.0000
     44 C15       -2.6350    3.3566    2.5532 Du        2 SUP2    0.0000
     45 H24       -2.4870    2.3883    2.5572 Du        2 SUP2    0.0000
     46 H25       -3.5241    3.4964    2.9429 Du        2 SUP2    0.0000
     47 C16       -2.7620    3.6913    1.2513 Du        2 SUP2    0.0000
     48 H26       -3.4743    3.1684    0.8517 Du        2 SUP2    0.0000
     49 H27       -1.9284    3.5098    0.7883 Du        2 SUP2    0.0000
     50 H28       -2.9729    4.6356    1.1789 Du        2 SUP2    0.0000
@<TRIPOS>BOND
     1    1    2 1
     2    3    1 1
     3    4    5 1
     4    6    3 1
     5    7    6 1
     6    8    6 1
     7    9    6 1
     8   10   15 1
     9   11    3 1
    10   12   11 1
    11   13   11 1
    12   14   11 1
    13   15   27 2
    14   16    3 1
    15   17   16 1
    16   18   17 1
    17   19   17 1
    18   20   17 1
    19   21   16 1
    20   22   21 1
    21   23   21 1
    22   24   21 1
    23   25    1 2
    24   26   10 1
    25   27   28 1
    26   29   26 2
    27   30   29 1
    28   31   10 1
    29   32   31 1
    30   33   31 1
    31   34   31 1
    32   35   34 1
    33   36   34 1
    34   37   34 1
    35   38   37 1
    36   39   37 1
    37   40   37 1
    38    4   16 1
    39    4   25 1
    40   25   26 1
    41   27   29 1
@<TRIPOS>SUBSTRUCTURE
     1 RES1 1
     2 SUP2 41

@<TRIPOS>CRYSIN
   7.9112    9.8735   10.9848 111.4500  93.7510 113.0780   2 1

