# MOL2 file generated by ConQuest
# Please check atom types

@<TRIPOS>MOLECULE
KIRCAP
    35    37     1
SMALL
NO_CHARGES
****
Generated from CSD

@<TRIPOS>ATOM
      1 O1        -0.4270    1.6100    9.5182 O.2       1 RES1    0.0000
      2 O2         1.1268    2.7966    8.6162 O.2       1 RES1    0.0000
      3 O3        -0.9453   -2.8552    8.0705 O.2       1 RES1    0.0000
      4 O4        -0.3331   -3.5184    6.1471 O.2       1 RES1    0.0000
      5 O5         0.0186   -3.2030    2.7920 O.2       1 RES1    0.0000
      6 O6        -1.1035   -1.8433    4.0106 O.2       1 RES1    0.0000
      7 O7         2.4296   -3.1632    6.0485 O.2       1 RES1    0.0000
      8 O8         2.1537   -4.1019    4.1585 O.2       1 RES1    0.0000
      9 O9         4.7710   -0.3690    6.1026 O.2       1 RES1    0.0000
     10 O10        4.0670    1.7254    5.7590 O.3       1 RES1    0.0000
     11 O11        1.5221   -0.1845    3.0608 O.3       1 RES1    0.0000
     12 O12        3.3447   -1.2329    3.9310 O.3       1 RES1    0.0000
     13 N1         0.3909    1.8360    8.6464 N.pl3     1 RES1    0.0000
     14 N2        -0.4201   -2.6739    7.0094 N.pl3     1 RES1    0.0000
     15 N3        -0.0933   -2.4106    3.6861 N.pl3     1 RES1    0.0000
     16 N4         1.9667   -3.2152    4.9317 N.pl3     1 RES1    0.0000
     17 N5         2.0314   -1.4564    3.3599 N.3       1 RES1    0.0000
     18 C1         1.1814   -1.9985    4.4544 C.3       1 RES1    0.0000
     19 C2         0.8577   -1.0289    5.5744 C.ar      1 RES1    0.0000
     20 C3         0.1444   -1.3345    6.7533 C.ar      1 RES1    0.0000
     21 C4        -0.0460   -0.3934    7.7301 C.ar      1 RES1    0.0000
     22 C5         0.4947    0.8550    7.5582 C.ar      1 RES1    0.0000
     23 C6         1.1363    1.2215    6.3953 C.ar      1 RES1    0.0000
     24 C7         1.3000    0.2763    5.4106 C.ar      1 RES1    0.0000
     25 C8         2.0130    0.6282    4.1331 C.3       1 RES1    0.0000
     26 C9         3.4675    0.1812    4.1490 C.3       1 RES1    0.0000
     27 C10        4.1914    0.4364    5.4535 C.2       1 RES1    0.0000
     28 C11        4.6836    2.2042    6.9378 C.3       1 RES1    0.0000
     29 H1        -0.4376   -0.5445    8.4475 H         1 RES1    0.0000
     30 H2         1.4477    2.0806    6.1567 H         1 RES1    0.0000
     31 H3         1.9178    1.5442    3.8817 H         1 RES1    0.0000
     32 H4         4.0144    0.6339    3.4204 H         1 RES1    0.0000
     33 H5         5.6386    2.1213    6.7135 H         1 RES1    0.0000
     34 H6         4.5558    3.2510    7.0157 H         1 RES1    0.0000
     35 H7         4.4551    1.6905    7.8112 H         1 RES1    0.0000
@<TRIPOS>BOND
     1    1   13 2
     2    2   13 2
     3    3   14 2
     4    4   14 2
     5    5   15 2
     6    6   15 2
     7    7   16 2
     8    8   16 2
     9    9   27 2
    10   10   27 1
    11   11   17 1
    12   12   17 1
    13   13   22 1
    14   14   20 1
    15   15   18 1
    16   16   18 1
    17   17   18 1
    18   18   19 1
    19   19   20 ar
    20   20   21 ar
    21   21   22 ar
    22   22   23 ar
    23   23   24 ar
    24   24   19 ar
    25   25   11 1
    26   26   12 1
    27   27   26 1
    28   28   10 1
    29   29   21 1
    30   30   23 1
    31   31   25 1
    32   32   26 1
    33   33   28 1
    34   34   28 1
    35   35   28 1
    36   24   25 1
    37   25   26 1
@<TRIPOS>SUBSTRUCTURE
     1 RES1 1

@<TRIPOS>CRYSIN
  11.4740    8.1274   16.3678  90.0000 103.6020  90.0000  14 1

