# MOL2 file generated by ConQuest
# Please check atom types

@<TRIPOS>MOLECULE
KIRHIC
    33    34     1
SMALL
NO_CHARGES
****
Generated from CSD

@<TRIPOS>ATOM
      1 N1         2.7782    9.9015    2.4035 N.ar      1 RES1    0.0000
      2 N2         2.2850   17.5411    0.4711 N.pl3     1 RES1    0.0000
      3 N3         4.8951   10.5969    3.2270 N.ar      1 RES1    0.0000
      4 O1         3.1698   18.1883   -0.0199 O.2       1 RES1    0.0000
      5 O2         1.1566   17.9645    0.5858 O.2       1 RES1    0.0000
      6 C1         3.9509    9.6743    3.0076 C.ar      1 RES1    0.0000
      7 C2         4.6132   11.8329    2.8347 C.ar      1 RES1    0.0000
      8 C3         3.4396   12.2185    2.2169 C.ar      1 RES1    0.0000
      9 C4         2.5548   11.1616    2.0249 C.ar      1 RES1    0.0000
     10 C5         4.2307    8.2903    3.5077 C.3       1 RES1    0.0000
     11 C6         3.5976    7.1714    2.7154 C.3       1 RES1    0.0000
     12 C7         3.9006    5.8080    3.2974 C.3       1 RES1    0.0000
     13 C8         3.4798    4.6788    2.4547 C.1       1 RES1    0.0000
     14 C9         3.1708    3.7768    1.7894 C.1       1 RES1    0.0000
     15 C10        3.1275   13.6025    1.7940 C.ar      1 RES1    0.0000
     16 C11        4.1542   14.4839    1.4438 C.ar      1 RES1    0.0000
     17 C12        3.8825   15.7784    1.0415 C.ar      1 RES1    0.0000
     18 C13        2.5789   16.1743    0.9475 C.ar      1 RES1    0.0000
     19 C14        1.5381   15.3446    1.2992 C.ar      1 RES1    0.0000
     20 C15        1.8230   14.0604    1.7236 C.ar      1 RES1    0.0000
     21 H1         5.2545   12.4974    3.0512 H         1 RES1    0.0000
     22 H2         1.7515   11.3957    1.6670 H         1 RES1    0.0000
     23 H3         2.8789    3.1329    1.2618 H         1 RES1    0.0000
     24 H4         5.1739    8.1250    3.4259 H         1 RES1    0.0000
     25 H5         3.9559    8.2283    4.3664 H         1 RES1    0.0000
     26 H6         2.5970    7.3676    2.6382 H         1 RES1    0.0000
     27 H7         3.8351    7.1610    1.8047 H         1 RES1    0.0000
     28 H8         4.8820    5.7495    3.3570 H         1 RES1    0.0000
     29 H9         3.4426    5.7150    4.1217 H         1 RES1    0.0000
     30 H10        5.0934   14.1499    1.5523 H         1 RES1    0.0000
     31 H11        4.5800   16.2844    0.6500 H         1 RES1    0.0000
     32 H12        0.6543   15.6303    1.2235 H         1 RES1    0.0000
     33 H13        1.1173   13.4958    1.9959 H         1 RES1    0.0000
@<TRIPOS>BOND
     1    1    6 ar
     2    2    4 2
     3    3    6 ar
     4    5    2 2
     5    6   10 1
     6    7    3 ar
     7    8    7 ar
     8    9    1 ar
     9   10   11 1
    10   11   12 1
    11   12   13 1
    12   13   14 3
    13   14   23 1
    14   15    8 1
    15   16   15 ar
    16   17   16 ar
    17   18    2 1
    18   19   18 ar
    19   20   15 ar
    20   21    7 1
    21   22    9 1
    22   24   10 1
    23   25   10 1
    24   26   11 1
    25   27   11 1
    26   28   12 1
    27   29   12 1
    28   30   16 1
    29   31   17 1
    30   32   19 1
    31   33   20 1
    32    8    9 ar
    33   17   18 ar
    34   19   20 ar
@<TRIPOS>SUBSTRUCTURE
     1 RES1 1

@<TRIPOS>CRYSIN
  10.0660   34.4280    7.6470  90.0000  90.0000  90.0000  61 3

