# MOL2 file generated by ConQuest
# Please check atom types

@<TRIPOS>MOLECULE
KIRHOI
    50    50     2
SMALL
NO_CHARGES
****
Generated from CSD

@<TRIPOS>ATOM
      1 C1         1.8477    3.1491    0.1554 C.ar      1 RES1    0.0000
      2 C2         3.0005    3.9523    1.9033 C.ar      1 RES1    0.0000
      3 C3         2.6874    2.8153    2.5862 C.ar      1 RES1    0.0000
      4 C4         1.8491    1.8673    2.0116 C.ar      1 RES1    0.0000
      5 C5         1.4650    3.3216   -1.3237 C.3       1 RES1    0.0000
      6 C6         2.7375    3.1820   -2.2332 C.3       1 RES1    0.0000
      7 C7         3.4015    1.8241   -2.1710 C.3       1 RES1    0.0000
      8 C8         4.0970    1.5109   -0.9035 C.1       1 RES1    0.0000
      9 C9         4.6384    1.2674    0.1023 C.1       1 RES1    0.0000
     10 C10        0.4446    2.3089   -1.7138 C.1       1 RES1    0.0000
     11 C11        0.9048    4.6682   -1.5463 C.1       1 RES1    0.0000
     12 N1         1.4177    2.0511    0.7611 N.ar      1 RES1    0.0000
     13 N2         3.2446    2.6150    3.9299 N.pl3     1 RES1    0.0000
     14 N3         2.5835    4.1300    0.6468 N.ar      1 RES1    0.0000
     15 N4        -0.3150    1.5314   -2.0507 N.1       1 RES1    0.0000
     16 N5         0.5056    5.7055   -1.7429 N.1       1 RES1    0.0000
     17 O1         3.9011    3.5127    4.4083 O.2       1 RES1    0.0000
     18 O2         3.0910    1.5129    4.4283 O.2       1 RES1    0.0000
     19 C12        7.7279    2.6376    7.6834 C.ar      2 RES2    0.0000
     20 C13        6.6021    1.7502    5.9365 C.ar      2 RES2    0.0000
     21 C14        7.1308    2.7506    5.1453 C.ar      2 RES2    0.0000
     22 C15        8.0029    3.6678    5.6908 C.ar      2 RES2    0.0000
     23 C16        8.0146    2.6540    9.1836 C.3       2 RES2    0.0000
     24 C17        7.1692    3.7551    9.9036 C.3       2 RES2    0.0000
     25 C18        5.6551    3.5435    9.7983 C.3       2 RES2    0.0000
     26 C19        5.0583    3.9893    8.5358 C.1       2 RES2    0.0000
     27 C20        4.5724    4.3754    7.5510 C.1       2 RES2    0.0000
     28 C21        7.7828    1.3363    9.7792 C.1       2 RES2    0.0000
     29 C22        9.4467    2.9878    9.4403 C.1       2 RES2    0.0000
     30 N6         6.9069    1.6916    7.2462 N.ar      2 RES2    0.0000
     31 N7         8.3057    3.6246    6.9844 N.ar      2 RES2    0.0000
     32 N8         6.7758    2.8245    3.7214 N.pl3     2 RES2    0.0000
     33 N9         7.5707    0.3389   10.2906 N.1       2 RES2    0.0000
     34 N10       10.5027    3.2877    9.7020 N.1       2 RES2    0.0000
     35 O3         6.2034    1.8478    3.2400 O.2       2 RES2    0.0000
     36 O4         7.0214    3.8783    3.1387 O.2       2 RES2    0.0000
     37 H1         3.6279    4.6322    2.2763 H         1 RES1    0.0000
     38 H2         1.6516    0.9655    2.4869 H         1 RES1    0.0000
     39 H3         5.1777    1.1914    0.8724 H         1 RES1    0.0000
     40 H4         2.5144    3.3483   -3.1187 H         1 RES1    0.0000
     41 H5         3.4445    3.9030   -1.9655 H         1 RES1    0.0000
     42 H6         2.8070    1.0785   -2.3766 H         1 RES1    0.0000
     43 H7         3.9980    1.6947   -2.9181 H         1 RES1    0.0000
     44 H8         6.0160    0.9552    5.7059 H         2 RES2    0.0000
     45 H9         8.3582    4.3857    5.1744 H         2 RES2    0.0000
     46 H10        4.1602    4.6322    6.7488 H         2 RES2    0.0000
     47 H11        7.4862    3.6976   10.8402 H         2 RES2    0.0000
     48 H12        7.4022    4.6630    9.4764 H         2 RES2    0.0000
     49 H13        5.5198    2.5883    9.9577 H         2 RES2    0.0000
     50 H14        5.1287    3.9954   10.5895 H         2 RES2    0.0000
@<TRIPOS>BOND
     1    1    5 1
     2    2    3 ar
     3    3    4 ar
     4    4   12 ar
     5    5    6 1
     6    6    7 1
     7    7    8 1
     8    8    9 3
     9    9   39 1
    10   10    5 1
    11   11    5 1
    12   12    1 ar
    13   13    3 1
    14   14    1 ar
    15   15   10 3
    16   16   11 3
    17   17   13 2
    18   18   13 2
    19   19   23 1
    20   20   21 ar
    21   21   22 ar
    22   22   31 ar
    23   23   24 1
    24   24   25 1
    25   25   26 1
    26   26   27 3
    27   27   46 1
    28   28   23 1
    29   29   23 1
    30   30   19 ar
    31   31   19 ar
    32   32   21 1
    33   33   28 3
    34   34   29 3
    35   35   32 2
    36   36   32 2
    37   37    2 1
    38   38    4 1
    39   40    6 1
    40   41    6 1
    41   42    7 1
    42   43    7 1
    43   44   20 1
    44   45   22 1
    45   47   24 1
    46   48   24 1
    47   49   25 1
    48   50   25 1
    49    2   14 ar
    50   20   30 ar
@<TRIPOS>SUBSTRUCTURE
     1 RES1 1
     2 RES2 19

@<TRIPOS>CRYSIN
  22.6040   10.2710   10.1460  90.0000  98.7500  90.0000 231 1

