# MOL2 file generated by ConQuest
# Please check atom types

@<TRIPOS>MOLECULE
KIRPIK
    75    76     2
SMALL
NO_CHARGES
****
Generated from CSD

@<TRIPOS>ATOM
      1 C1         0.0541    0.9498    8.6217 C.2       1 RES1    0.0000
      2 C2         1.0745    0.1257    7.8722 C.3       1 RES1    0.0000
      3 C3         2.1718    0.0006    8.9823 C.3       1 RES1    0.0000
      4 C4         1.4279   -0.1678   10.2516 C.3       1 RES1    0.0000
      5 C5         0.3006    0.8220   10.0868 C.3       1 RES1    0.0000
      6 C6        -0.9635    1.6291    8.0638 C.2       1 RES1    0.0000
      7 C7        -1.9558    2.3901    8.8175 C.2       1 RES1    0.0000
      8 O1        -1.7579    2.9687    9.8388 O.2       1 RES1    0.0000
      9 O2        -3.1373    2.3652    8.2117 O.3       1 RES1    0.0000
     10 C8        -4.2284    3.0667    8.9302 C.3       1 RES1    0.0000
     11 C9        -5.5361    2.7102    8.2314 C.3       1 RES1    0.0000
     12 C10       -5.3100    2.3268    8.9654 Du        2 SUP2    0.0000
     13 C11        1.5605    0.7832    6.6001 C.3       1 RES1    0.0000
     14 C12        0.5110   -1.2506    7.5595 C.2       1 RES1    0.0000
     15 C13       -0.6160   -1.7481    7.9567 C.2       1 RES1    0.0000
     16 C14       -1.1020   -3.1579    7.7102 C.3       1 RES1    0.0000
     17 C15       -1.0964   -3.9411    8.9725 C.2       1 RES1    0.0000
     18 C16        0.2441   -4.4380    9.4219 C.3       1 RES1    0.0000
     19 C17       -2.2102   -4.1618    9.6867 C.2       1 RES1    0.0000
     20 C18       -2.2516   -4.9164   10.9433 C.3       1 RES1    0.0000
     21 O3        -1.7526   -4.0761   12.0591 O.3       1 RES1    0.0000
     22 C19       -2.6218   -3.6775   12.9353 C.2       1 RES1    0.0000
     23 O4        -3.7477   -4.0104   13.0029 O.2       1 RES1    0.0000
     24 C20       -1.9651   -2.7994   13.9637 C.ar      1 RES1    0.0000
     25 C21       -0.7003   -2.2667   13.7750 C.ar      1 RES1    0.0000
     26 C22       -0.1929   -1.4157   14.7484 C.ar      1 RES1    0.0000
     27 C23       -0.8526   -1.0772   15.8698 C.ar      1 RES1    0.0000
     28 C24       -2.1061   -1.6433   16.0318 C.ar      1 RES1    0.0000
     29 C25       -2.6791   -2.4765   15.0865 C.ar      1 RES1    0.0000
     30 N1         1.1437   -0.8358   14.5160 N.pl3     1 RES1    0.0000
     31 O5         1.7574   -1.2050   13.5510 O.2       1 RES1    0.0000
     32 O6         1.5592   -0.0434   15.3331 O.2       1 RES1    0.0000
     33 N2        -2.8649   -1.3031   17.2560 N.pl3     1 RES1    0.0000
     34 O7        -2.3168   -0.6645   18.1590 O.2       1 RES1    0.0000
     35 O8        -4.0350   -1.6589   17.3532 O.2       1 RES1    0.0000
     36 O9        -0.9152    0.3384   10.6954 O.3       1 RES1    0.0000
     37 C26       -1.1715    0.7010   11.9506 C.2       1 RES1    0.0000
     38 O10       -0.3944    1.2702   12.6761 O.2       1 RES1    0.0000
     39 C27       -2.5417    0.2843   12.3845 C.ar      1 RES1    0.0000
     40 C28       -3.3594   -0.4755   11.5505 C.ar      1 RES1    0.0000
     41 C29       -4.6089   -0.8273   11.9900 C.ar      1 RES1    0.0000
     42 C30       -5.1028   -0.4338   13.1931 C.ar      1 RES1    0.0000
     43 C31       -4.2766    0.3288   14.0201 C.ar      1 RES1    0.0000
     44 C32       -2.9890    0.6857   13.6200 C.ar      1 RES1    0.0000
     45 N3        -5.4734   -1.6393   11.1180 N.pl3     1 RES1    0.0000
     46 O11       -6.5017   -2.0712   11.5561 O.2       1 RES1    0.0000
     47 O12       -5.0606   -1.8443    9.9727 O.2       1 RES1    0.0000
     48 N4        -4.7654    0.7889   15.3232 N.pl3     1 RES1    0.0000
     49 O13       -3.9763    1.3005   16.0952 O.2       1 RES1    0.0000
     50 O14       -5.9420    0.6273   15.5740 O.2       1 RES1    0.0000
     51 H1         2.7132    0.7927    9.0105 H         1 RES1    0.0000
     52 H2         2.7303   -0.7622    8.8161 H         1 RES1    0.0000
     53 H3         1.0947   -1.0633   10.3460 H         1 RES1    0.0000
     54 H4         1.9758    0.0509   11.0081 H         1 RES1    0.0000
     55 H5         0.5391    1.6531   10.5024 H         1 RES1    0.0000
     56 H6        -1.0420    1.6134    7.1072 H         1 RES1    0.0000
     57 H7         1.9191    1.6489    6.8058 H         1 RES1    0.0000
     58 H8         0.8263    0.8772    5.9887 H         1 RES1    0.0000
     59 H9         2.2421    0.2396    6.2000 H         1 RES1    0.0000
     60 H10        1.0512   -1.8146    7.0030 H         1 RES1    0.0000
     61 H11       -1.1968   -1.1681    8.4554 H         1 RES1    0.0000
     62 H12       -0.5243   -3.5823    7.0720 H         1 RES1    0.0000
     63 H13       -1.9957   -3.1274    7.3608 H         1 RES1    0.0000
     64 H14        0.9114   -4.1830    8.7809 H         1 RES1    0.0000
     65 H15        0.2225   -5.3947    9.4965 H         1 RES1    0.0000
     66 H16        0.4582   -4.0542   10.2756 H         1 RES1    0.0000
     67 H17       -3.0349   -3.8014    9.3528 H         1 RES1    0.0000
     68 H18       -3.1566   -5.1809   11.1251 H         1 RES1    0.0000
     69 H19       -1.7003   -5.6982   10.8630 H         1 RES1    0.0000
     70 H20       -0.1883   -2.4806   12.9917 H         1 RES1    0.0000
     71 H21       -0.4775   -0.4800   16.5206 H         1 RES1    0.0000
     72 H22       -3.5651   -2.8229   15.2147 H         1 RES1    0.0000
     73 H23       -3.0537   -0.7477   10.6813 H         1 RES1    0.0000
     74 H24       -5.9907   -0.6742   13.4664 H         1 RES1    0.0000
     75 H25       -2.4251    1.2037   14.1990 H         1 RES1    0.0000
@<TRIPOS>BOND
     1    1    2 1
     2    2    3 1
     3    3    4 1
     4    4    5 1
     5    5    1 1
     6    6    1 2
     7    7    6 1
     8    8    7 2
     9    9    7 1
    10   10    9 1
    11   11   10 1
    12   13    2 1
    13   14    2 1
    14   15   14 2
    15   16   15 1
    16   17   16 1
    17   18   17 1
    18   19   17 2
    19   20   19 1
    20   21   20 1
    21   22   21 1
    22   23   22 2
    23   24   22 1
    24   25   24 ar
    25   26   25 ar
    26   27   26 ar
    27   28   27 ar
    28   29   24 ar
    29   30   26 1
    30   31   30 2
    31   32   30 2
    32   33   28 1
    33   34   33 2
    34   35   33 2
    35   36    5 1
    36   37   36 1
    37   38   37 2
    38   39   37 1
    39   40   39 ar
    40   41   40 ar
    41   42   41 ar
    42   43   42 ar
    43   44   39 ar
    44   45   41 1
    45   46   45 2
    46   47   45 2
    47   48   43 1
    48   49   48 2
    49   50   48 2
    50   51    3 1
    51   52    3 1
    52   53    4 1
    53   54    4 1
    54   55    5 1
    55   56    6 1
    56   57   13 1
    57   58   13 1
    58   59   13 1
    59   60   14 1
    60   61   15 1
    61   62   16 1
    62   63   16 1
    63   64   18 1
    64   65   18 1
    65   66   18 1
    66   67   19 1
    67   68   20 1
    68   69   20 1
    69   70   25 1
    70   71   27 1
    71   72   29 1
    72   73   40 1
    73   74   42 1
    74   75   44 1
    75   28   29 ar
    76   43   44 ar
@<TRIPOS>SUBSTRUCTURE
     1 RES1 1
     2 SUP2 12

@<TRIPOS>CRYSIN
  10.4000   11.0090   15.3380 100.6900 108.4300  98.9500   2 1

