# MOL2 file generated by ConQuest
# Please check atom types

@<TRIPOS>MOLECULE
KIRZAO
    82    75     2
SMALL
NO_CHARGES
****
Generated from CSD

@<TRIPOS>ATOM
      1 O1        12.3151   21.0336   -6.1212 O.2       1 RES1    0.0000
      2 O2        13.4847   19.3682   -5.3594 O.2       1 RES1    0.0000
      3 N1        12.6175   20.2374   -5.2426 N.pl3     1 RES1    0.0000
      4 C1        11.8971   20.3155   -3.9666 C.ar      1 RES1    0.0000
      5 C2        12.2498   19.4341   -2.9627 C.ar      1 RES1    0.0000
      6 C3        11.5839   19.5138   -1.7486 C.ar      1 RES1    0.0000
      7 C4        10.6274   20.5089   -1.5500 C.ar      1 RES1    0.0000
      8 C5        10.3278   21.4192   -2.5609 C.ar      1 RES1    0.0000
      9 C6        10.9386   21.3003   -3.7980 C.ar      1 RES1    0.0000
     10 O3        13.1861   18.2793   -0.5175 O.2       1 RES1    0.0000
     11 C7        11.9875   18.5720   -0.6519 C.2       1 RES1    0.0000
     12 N2        11.0208   18.1135    0.1288 N.am      1 RES1    0.0000
     13 C8        11.2806   17.1572    1.2113 C.3       1 RES1    0.0000
     14 C9        10.2320   17.2295    2.2809 C.ar      1 RES1    0.0000
     15 C10        9.7732   16.0760    2.8980 C.ar      1 RES1    0.0000
     16 C11        8.8436   16.1181    3.9304 C.ar      1 RES1    0.0000
     17 C12        8.3361   17.3346    4.3503 C.ar      1 RES1    0.0000
     18 C13        8.7687   18.4945    3.7233 C.ar      1 RES1    0.0000
     19 C14        9.6957   18.4396    2.7164 C.ar      1 RES1    0.0000
     20 O4         7.4007   17.5071    5.3277 O.3       1 RES1    0.0000
     21 C15        7.0960   16.4031    6.1619 C.3       1 RES1    0.0000
     22 C16        6.1574   16.8902    7.2295 C.3       1 RES1    0.0000
     23 O5         6.8373   17.8888    7.9911 O.3       1 RES1    0.0000
     24 C17        5.0078   19.4174    8.4754 C.2       1 RES1    0.0000
     25 C18        4.8514   19.8075    7.2266 C.2       1 RES1    0.0000
     26 C19        3.7074   20.6673    6.7977 C.3       1 RES1    0.0000
     27 O6         4.1891   21.6656    5.9188 O.3       1 RES1    0.0000
     28 C20        3.2871   22.2395    4.9944 C.3       1 RES1    0.0000
     29 C21        4.0624   23.0544    4.0093 C.3       1 RES1    0.0000
     30 O7         4.8898   22.1595    3.2518 O.3       1 RES1    0.0000
     31 C22        5.7334   22.7035    2.3395 C.ar      1 RES1    0.0000
     32 C23        5.8178   24.0630    2.0337 C.ar      1 RES1    0.0000
     33 C24        6.7131   24.4994    1.0739 C.ar      1 RES1    0.0000
     34 C25        7.5349   23.6167    0.3794 C.ar      1 RES1    0.0000
     35 C26        7.4544   22.2623    0.7160 C.ar      1 RES1    0.0000
     36 C27        6.5765   21.8154    1.6782 C.ar      1 RES1    0.0000
     37 C28        8.4586   24.1334   -0.6936 C.3       1 RES1    0.0000
     38 N3         9.4117   23.1341   -1.1498 N.am      1 RES1    0.0000
     39 C29        9.3425   22.5339   -2.3503 C.2       1 RES1    0.0000
     40 O8         8.5638   22.8510   -3.2385 O.2       1 RES1    0.0000
     41 C30        5.9712   18.4113    9.0016 C.3       1 RES1    0.0000
     42 H1        12.9291   18.7972   -3.0854 H         1 RES1    0.0000
     43 H2        10.1835   20.5773   -0.7141 H         1 RES1    0.0000
     44 H3        10.7171   21.8819   -4.4931 H         1 RES1    0.0000
     45 H4        12.1560   17.3738    1.6247 H         1 RES1    0.0000
     46 H5        11.3260   16.2363    0.8559 H         1 RES1    0.0000
     47 H6        10.0989   15.2402    2.6053 H         1 RES1    0.0000
     48 H7         8.5696   15.3141    4.3376 H         1 RES1    0.0000
     49 H8         8.4092   19.3113    3.9891 H         1 RES1    0.0000
     50 H9         9.9811   19.2439    2.3149 H         1 RES1    0.0000
     51 H10        7.9189   16.0242    6.5483 H         1 RES1    0.0000
     52 H11        6.6625   15.7093    5.6275 H         1 RES1    0.0000
     53 H12        5.3450   17.2452    6.8217 H         1 RES1    0.0000
     54 H13        5.9123   16.1238    7.7937 H         1 RES1    0.0000
     55 H14        4.4453   19.8351    9.1161 H         1 RES1    0.0000
     56 H15        5.4878   19.5427    6.5774 H         1 RES1    0.0000
     57 H16        3.2711   21.0465    7.5751 H         1 RES1    0.0000
     58 H17        3.0677   20.1243    6.2955 H         1 RES1    0.0000
     59 H18        2.6665   22.8073    5.4618 H         1 RES1    0.0000
     60 H19        2.7999   21.5317    4.5392 H         1 RES1    0.0000
     61 H20        4.6220   23.6909    4.4743 H         1 RES1    0.0000
     62 H21        3.4457   23.5238    3.4014 H         1 RES1    0.0000
     63 H22        5.2761   24.6485    2.4874 H         1 RES1    0.0000
     64 H23        6.7631   25.4357    0.8730 H         1 RES1    0.0000
     65 H24        8.0099   21.6377    0.2836 H         1 RES1    0.0000
     66 H25        6.5393   20.9083    1.9066 H         1 RES1    0.0000
     67 H26        8.9500   24.8991   -0.3366 H         1 RES1    0.0000
     68 H27        7.9300   24.4235   -1.4590 H         1 RES1    0.0000
     69 H28        6.5392   18.8486    9.6696 H         1 RES1    0.0000
     70 H29        5.4943   17.6726    9.4680 H         1 RES1    0.0000
     71 H30       10.0862   22.9390   -0.6287 H         1 RES1    0.0000
     72 H31       10.2070   18.2445   -0.1350 H         1 RES1    0.0000
     73 C31        6.0774   18.9515    8.6838 Du        2 SUP2    0.0000
     74 C32        5.3395   19.9026    7.7527 Du        2 SUP2    0.0000
     75 C33        4.0155   20.0600    7.7955 Du        2 SUP2    0.0000
     76 C34        3.2762   20.9533    6.8063 Du        2 SUP2    0.0000
     77 H32        6.6754   19.4495    9.2613 Du        2 SUP2    0.0000
     78 H33        5.3987   18.5145    9.2408 Du        2 SUP2    0.0000
     79 H34        5.8533   20.3910    7.1411 Du        2 SUP2    0.0000
     80 H35        3.5200   19.5845    8.4190 Du        2 SUP2    0.0000
     81 H36        2.8166   21.6345    7.3222 Du        2 SUP2    0.0000
     82 H37        2.6265   20.4456    6.2921 Du        2 SUP2    0.0000
@<TRIPOS>BOND
     1    1    3 2
     2    2    3 2
     3    3    4 1
     4    4    5 ar
     5    5    6 ar
     6    6    7 ar
     7    7    8 ar
     8    8    9 ar
     9    9    4 ar
    10   10   11 2
    11   11    6 1
    12   12   11 1
    13   13   12 1
    14   14   13 1
    15   15   14 ar
    16   16   15 ar
    17   17   16 ar
    18   18   17 ar
    19   19   14 ar
    20   20   17 1
    21   21   20 1
    22   22   21 1
    23   23   22 1
    24   24   25 2
    25   25   26 1
    26   26   27 1
    27   27   28 1
    28   28   29 1
    29   29   30 1
    30   30   31 1
    31   31   32 ar
    32   32   33 ar
    33   33   34 ar
    34   34   35 ar
    35   35   36 ar
    36   36   31 ar
    37   37   34 1
    38   38   37 1
    39   39    8 1
    40   40   39 2
    41   41   23 1
    42   42    5 1
    43   43    7 1
    44   44    9 1
    45   45   13 1
    46   46   13 1
    47   47   15 1
    48   48   16 1
    49   49   18 1
    50   50   19 1
    51   51   21 1
    52   52   21 1
    53   53   22 1
    54   54   22 1
    55   55   24 1
    56   56   25 1
    57   57   26 1
    58   58   26 1
    59   59   28 1
    60   60   28 1
    61   61   29 1
    62   62   29 1
    63   63   32 1
    64   64   33 1
    65   65   35 1
    66   66   36 1
    67   67   37 1
    68   68   37 1
    69   69   41 1
    70   70   41 1
    71   71   38 1
    72   72   12 1
    73   18   19 ar
    74   24   41 1
    75   38   39 1
@<TRIPOS>SUBSTRUCTURE
     1 RES1 1
     2 SUP2 73

@<TRIPOS>CRYSIN
   4.9564   32.1320   17.0841  90.0000  90.1250  90.0000 231 1

