# MOL2 file generated by ConQuest
# Please check atom types

@<TRIPOS>MOLECULE
KITMIJ
    38    39     1
SMALL
NO_CHARGES
****
Generated from CSD

@<TRIPOS>ATOM
      1 O1         0.0761   -1.1901    5.1755 O.3       1 RES1    0.0000
      2 O2         4.5328   -2.2693   13.8550 O.3       1 RES1    0.0000
      3 N1         0.3589   -2.4132    5.8664 N.2       1 RES1    0.0000
      4 C1         0.8364   -4.7764    7.1689 C.3       1 RES1    0.0000
      5 C2         4.3017   -2.4335    8.7690 C.3       1 RES1    0.0000
      6 C3         5.5254   -3.2138   13.5030 C.3       1 RES1    0.0000
      7 C4         1.4031   -2.3521    6.5966 C.2       1 RES1    0.0000
      8 C5         2.2821   -1.1519    6.8159 C.3       1 RES1    0.0000
      9 C6         2.4099   -0.8543    8.3074 C.3       1 RES1    0.0000
     10 C7         2.8593   -2.0720    9.1542 C.3       1 RES1    0.0000
     11 C8         1.9309   -3.2522    8.8434 C.3       1 RES1    0.0000
     12 C9         1.7894   -3.5989    7.3590 C.3       1 RES1    0.0000
     13 C10        2.7593   -1.7437   10.6437 C.ar      1 RES1    0.0000
     14 C11        3.7402   -2.1650   11.5488 C.ar      1 RES1    0.0000
     15 C12        3.6116   -1.8848   12.9086 C.ar      1 RES1    0.0000
     16 C13        2.5420   -1.1845   13.3893 C.ar      1 RES1    0.0000
     17 C14        1.5648   -0.7762   12.5083 C.ar      1 RES1    0.0000
     18 C15        1.6631   -1.0568   11.1536 C.ar      1 RES1    0.0000
     19 H1         3.2623   -1.3467    6.4065 H         1 RES1    0.0000
     20 H2         1.8476   -0.2973    6.3180 H         1 RES1    0.0000
     21 H3         3.1342   -0.0643    8.4361 H         1 RES1    0.0000
     22 H4         1.4487   -0.5247    8.6714 H         1 RES1    0.0000
     23 H5         0.9485   -3.0148    9.2246 H         1 RES1    0.0000
     24 H6         2.3145   -4.1223    9.3553 H         1 RES1    0.0000
     25 H7         2.7329   -3.9335    6.9536 H         1 RES1    0.0000
     26 H8         0.7534   -5.0040    6.1159 H         1 RES1    0.0000
     27 H9        -0.1370   -4.5202    7.5591 H         1 RES1    0.0000
     28 H10        1.2200   -5.6392    7.6939 H         1 RES1    0.0000
     29 H11        4.6291   -3.2808    9.3523 H         1 RES1    0.0000
     30 H12        4.9484   -1.5916    8.9641 H         1 RES1    0.0000
     31 H13        4.3418   -2.6818    7.7190 H         1 RES1    0.0000
     32 H14        4.6022   -2.7091   11.1938 H         1 RES1    0.0000
     33 H15        2.4649   -0.9547   14.4423 H         1 RES1    0.0000
     34 H16        0.7087   -0.2295   12.8774 H         1 RES1    0.0000
     35 H17        0.8788   -0.7362   10.4838 H         1 RES1    0.0000
     36 H18        6.1603   -3.4034   14.3558 H         1 RES1    0.0000
     37 H19        6.1204   -2.8229   12.6914 H         1 RES1    0.0000
     38 H20        5.0552   -4.1357   13.1932 H         1 RES1    0.0000
@<TRIPOS>BOND
     1    1    3 1
     2    2    6 1
     3    3    7 2
     4    4   12 1
     5    5   10 1
     6    6   36 1
     7    7    8 1
     8    8    9 1
     9    9   10 1
    10   10   11 1
    11   11   12 1
    12   12    7 1
    13   13   10 1
    14   14   13 ar
    15   15    2 1
    16   16   15 ar
    17   17   16 ar
    18   18   13 ar
    19   19    8 1
    20   20    8 1
    21   21    9 1
    22   22    9 1
    23   23   11 1
    24   24   11 1
    25   25   12 1
    26   26    4 1
    27   27    4 1
    28   28    4 1
    29   29    5 1
    30   30    5 1
    31   31    5 1
    32   32   14 1
    33   33   16 1
    34   34   17 1
    35   35   18 1
    36   37    6 1
    37   38    6 1
    38   14   15 ar
    39   17   18 ar
@<TRIPOS>SUBSTRUCTURE
     1 RES1 1

@<TRIPOS>CRYSIN
   6.4370   10.8300   11.3660 113.4700  98.9900 101.6500   2 1

