# MOL2 file generated by ConQuest
# Please check atom types

@<TRIPOS>MOLECULE
KIVFIE
    43    45     1
SMALL
NO_CHARGES
****
Generated from CSD

@<TRIPOS>ATOM
      1 O1        -2.7692    0.9853   -0.7719 O.2       1 RES1    0.0000
      2 O2        -4.2754    2.5285   -0.7883 O.2       1 RES1    0.0000
      3 N1         1.7434    6.0489    5.4687 N.2       1 RES1    0.0000
      4 N2         3.8123    6.6137    4.7580 N.2       1 RES1    0.0000
      5 N3         1.6822    6.8307    4.3516 N.pl3     1 RES1    0.0000
      6 N4        -0.3401    6.4971    3.1360 N.2       1 RES1    0.0000
      7 N5         0.0720    5.2587    2.8101 N.3       1 RES1    0.0000
      8 N6        -3.2043    2.0751   -0.4176 N.pl3     1 RES1    0.0000
      9 N7        -1.4818   12.3078    5.6582 N.3       1 RES1    0.0000
     10 C1         3.0495    5.9560    5.6634 C.2       1 RES1    0.0000
     11 C2         2.9279    7.1633    3.9526 C.2       1 RES1    0.0000
     12 C3         0.4105    7.2757    3.8370 C.2       1 RES1    0.0000
     13 C4        -0.7469    4.4693    2.0270 C.ar      1 RES1    0.0000
     14 C5        -2.0656    4.8705    1.7376 C.ar      1 RES1    0.0000
     15 C6        -2.8520    4.0827    0.9315 C.ar      1 RES1    0.0000
     16 C7        -2.3718    2.8986    0.4415 C.ar      1 RES1    0.0000
     17 C8        -1.0818    2.4627    0.7704 C.ar      1 RES1    0.0000
     18 C9        -0.2831    3.2479    1.5616 C.ar      1 RES1    0.0000
     19 C10       -0.0173    8.6160    4.2382 C.ar      1 RES1    0.0000
     20 C11       -1.2044    9.1524    3.7386 C.ar      1 RES1    0.0000
     21 C12       -1.6757   10.3545    4.1905 C.ar      1 RES1    0.0000
     22 C13       -1.0009   11.0921    5.1622 C.ar      1 RES1    0.0000
     23 C14        0.2427   10.5844    5.5940 C.ar      1 RES1    0.0000
     24 C15        0.6969    9.3828    5.1369 C.ar      1 RES1    0.0000
     25 C16       -1.0020   12.7982    6.9305 C.3       1 RES1    0.0000
     26 C17       -2.8643   12.6573    5.3793 C.3       1 RES1    0.0000
     27 H1         3.4636    5.4112    6.4584 H         1 RES1    0.0000
     28 H2        -2.4405    5.7571    2.1329 H         1 RES1    0.0000
     29 H3        -3.8187    4.3848    0.6861 H         1 RES1    0.0000
     30 H4        -0.7214    1.5309    0.4102 H         1 RES1    0.0000
     31 H5         0.6748    2.9184    1.8122 H         1 RES1    0.0000
     32 H6        -1.7425    8.6249    3.0055 H         1 RES1    0.0000
     33 H7        -2.5683   10.7247    3.7885 H         1 RES1    0.0000
     34 H8         0.8176   11.1299    6.2719 H         1 RES1    0.0000
     35 H9         1.6274    9.0186    5.4740 H         1 RES1    0.0000
     36 H10       -1.4635   13.7083    7.1445 H         1 RES1    0.0000
     37 H11       -1.2327   12.0990    7.6815 H         1 RES1    0.0000
     38 H12        0.0352   12.9219    6.8835 H         1 RES1    0.0000
     39 H13       -3.0872   13.5855    5.8096 H         1 RES1    0.0000
     40 H14       -3.0102   12.6999    4.3404 H         1 RES1    0.0000
     41 H15       -3.5021   11.9256    5.7797 H         1 RES1    0.0000
     42 H16        1.0003    4.8967    3.1397 H         1 RES1    0.0000
     43 H17        3.1511    7.7594    3.1248 H         1 RES1    0.0000
@<TRIPOS>BOND
     1    1    8 2
     2    2    8 2
     3    3    5 1
     4    4   10 1
     5    5   11 1
     6    6    7 1
     7    7   13 1
     8    8   16 1
     9    9   22 1
    10   10    3 2
    11   11    4 2
    12   12    5 1
    13   13   14 ar
    14   14   15 ar
    15   15   16 ar
    16   16   17 ar
    17   17   18 ar
    18   18   13 ar
    19   19   12 1
    20   20   19 ar
    21   21   20 ar
    22   22   21 ar
    23   23   22 ar
    24   24   19 ar
    25   25    9 1
    26   26    9 1
    27   27   10 1
    28   28   14 1
    29   29   15 1
    30   30   17 1
    31   31   18 1
    32   32   20 1
    33   33   21 1
    34   34   23 1
    35   35   24 1
    36   36   25 1
    37   37   25 1
    38   38   25 1
    39   39   26 1
    40   40   26 1
    41   41   26 1
    42   42    7 1
    43   43   11 1
    44    6   12 2
    45   23   24 ar
@<TRIPOS>SUBSTRUCTURE
     1 RES1 1

@<TRIPOS>CRYSIN
  11.3610   10.3270    7.7630  80.4700 104.9500 104.8900   2 1

