# MOL2 file generated by ConQuest
# Please check atom types

@<TRIPOS>MOLECULE
KIVLIM
   152   148     4
SMALL
NO_CHARGES
****
Generated from CSD

@<TRIPOS>ATOM
      1 O1        14.8552    1.2724    2.7008 O.3       1 RES1    0.0000
      2 O2        11.0537   -1.2839    2.0896 O.2       1 RES1    0.0000
      3 O3        15.8512    0.9038    4.6984 O.2       1 RES1    0.0000
      4 O4        19.3655    0.3966    6.4794 O.3       1 RES1    0.0000
      5 N1        11.7114   -0.7239    2.9345 N.pl3     1 RES1    0.0000
      6 N2        18.4861    1.2264    4.6578 N.am      1 RES1    0.0000
      7 O5        20.7766    1.1750    4.8827 O.2       1 RES1    0.0000
      8 N3        17.0376    1.6131    2.8719 N.am      1 RES1    0.0000
      9 C1        13.1692   -0.4411    2.6218 C.3       1 RES1    0.0000
     10 C2        13.5976    0.8758    3.2626 C.3       1 RES1    0.0000
     11 H1        12.9164    1.5727    3.0909 H         1 RES1    0.0000
     12 H2        13.6877    0.7614    4.2417 H         1 RES1    0.0000
     13 O6        19.2766    1.8003    2.5885 O.2       1 RES1    0.0000
     14 O7        11.3507   -0.3909    4.0409 O.2       1 RES1    0.0000
     15 O8        13.3084   -2.6255    3.4121 O.2       1 RES1    0.0000
     16 O9        13.9648   -1.2822    0.5984 O.2       1 RES1    0.0000
     17 N4        13.9379   -1.6358    3.1514 N.pl3     1 RES1    0.0000
     18 O10       12.7069    0.5028    0.5897 O.2       1 RES1    0.0000
     19 C3        18.3601    1.5639    3.3198 C.2       1 RES1    0.0000
     20 N5        13.3050   -0.4186    1.1208 N.pl3     1 RES1    0.0000
     21 O11       21.5965    2.0813    9.7982 O.2       1 RES1    0.0000
     22 O12       20.8923    2.5748    7.7847 O.2       1 RES1    0.0000
     23 C4        15.9231    1.2229    3.5393 C.2       1 RES1    0.0000
     24 N6        21.0148    1.8396    8.7547 N.pl3     1 RES1    0.0000
     25 O13       15.1202   -1.4912    3.3034 O.2       1 RES1    0.0000
     26 C5        20.4546   -0.1077    7.2607 C.3       1 RES1    0.0000
     27 H3        21.3178    0.1344    6.8406 H         1 RES1    0.0000
     28 H4        20.4011   -1.0952    7.3212 H         1 RES1    0.0000
     29 C6        19.6652    0.9631    5.2747 C.2       1 RES1    0.0000
     30 C7        20.3562    0.4975    8.6223 C.3       1 RES1    0.0000
     31 N7        18.9221    0.5702    9.0325 N.pl3     1 RES1    0.0000
     32 O14       18.3027   -0.4669    8.9708 O.2       1 RES1    0.0000
     33 N8        21.0220   -0.4434    9.6733 N.pl3     1 RES1    0.0000
     34 O15       21.8794   -1.1711    9.2647 O.2       1 RES1    0.0000
     35 O16       18.4997    1.7044    9.2614 O.2       1 RES1    0.0000
     36 O17       20.6207   -0.3003   10.7962 O.2       1 RES1    0.0000
     37 H5        17.0254    1.7933    2.2230 H         1 RES1    0.0000
     38 H6        17.8158    1.0934    4.9854 H         1 RES1    0.0000
     39 O18       12.3235    8.1221    5.3818 O.3       2 RES2    0.0000
     40 O19       11.1412    8.9021    3.6228 O.2       2 RES2    0.0000
     41 O20        7.7763    7.9022    1.4520 O.3       2 RES2    0.0000
     42 O21        6.5933    6.9492    3.0937 O.2       2 RES2    0.0000
     43 O22        5.0783    7.3231   -1.5618 O.2       2 RES2    0.0000
     44 O23       13.8121   12.0161    5.9991 O.2       2 RES2    0.0000
     45 O24        7.9977    7.0548    5.4892 O.2       2 RES2    0.0000
     46 O25       14.0277    9.7640    8.1829 O.2       2 RES2    0.0000
     47 N9         8.6932    7.8052    3.4582 N.am      2 RES2    0.0000
     48 O26       15.5182   10.3774    4.1768 O.2       2 RES2    0.0000
     49 N10       10.1659    7.6693    5.2742 N.am      2 RES2    0.0000
     50 C8        14.0741    9.6985    5.8368 C.3       2 RES2    0.0000
     51 N11       13.2431   10.9460    6.0431 N.pl3     2 RES2    0.0000
     52 O27        6.7720    7.3644   -2.9303 O.2       2 RES2    0.0000
     53 O28       14.6810    7.9206    7.2030 O.2       2 RES2    0.0000
     54 N12       15.4396   10.1505    5.3659 N.pl3     2 RES2    0.0000
     55 O29       12.0670   10.7579    6.2461 O.2       2 RES2    0.0000
     56 N13        6.2334    7.5550   -1.8555 N.pl3     2 RES2    0.0000
     57 O30       16.3067   10.2734    6.2177 O.2       2 RES2    0.0000
     58 O31        8.8082    6.7388   -1.1014 O.2       2 RES2    0.0000
     59 C9        13.4945    8.7240    4.8317 C.3       2 RES2    0.0000
     60 H7        13.2666    9.2006    3.9948 H         2 RES2    0.0000
     61 H8        14.1624    8.0244    4.6176 H         2 RES2    0.0000
     62 C10        7.5833    7.4981    2.7297 C.2       2 RES2    0.0000
     63 N14       14.2720    9.0627    7.2164 N.pl3     2 RES2    0.0000
     64 C11       11.1977    8.2907    4.6564 C.2       2 RES2    0.0000
     65 C12        6.6737    7.5926    0.5794 C.3       2 RES2    0.0000
     66 H9         5.8366    8.0004    0.9137 H         2 RES2    0.0000
     67 H10        6.5469    6.6141    0.5083 H         2 RES2    0.0000
     68 N15        8.5112    7.9106   -1.0273 N.pl3     2 RES2    0.0000
     69 C13        7.0532    8.1747   -0.7454 C.3       2 RES2    0.0000
     70 O32        9.2575    8.8593   -1.0824 O.2       2 RES2    0.0000
     71 C14        8.8620    7.4871    4.7798 C.2       2 RES2    0.0000
     72 O33        6.7739   10.2698    0.1945 O.2       2 RES2    0.0000
     73 N16        6.8192    9.6698   -0.8679 N.pl3     2 RES2    0.0000
     74 O34        6.6606   10.1072   -1.9750 O.2       2 RES2    0.0000
     75 H11       10.2952    7.3490    6.0315 H         2 RES2    0.0000
     76 H12        9.2420    8.1368    3.0730 H         2 RES2    0.0000
     77 O35       17.1725    8.2514    2.9102 O.3       3 RES3    0.0000
     78 O36       12.6937   11.0219    0.1773 O.3       3 RES3    0.0000
     79 O37       17.0922   10.6811   -0.4560 O.2       3 RES3    0.0000
     80 O38       13.6436    9.3328    1.3395 O.2       3 RES3    0.0000
     81 O39       12.8222   11.6168    2.9582 O.2       3 RES3    0.0000
     82 N17       16.3073    9.3556    1.2256 N.am      3 RES3    0.0000
     83 O40        8.7947   12.6550    2.0541 O.2       3 RES3    0.0000
     84 N18       14.8706   10.6845   -0.0397 N.am      3 RES3    0.0000
     85 O41       18.5957    9.1364    1.3742 O.2       3 RES3    0.0000
     86 N19       11.6533   11.8957    2.9522 N.pl3     3 RES3    0.0000
     87 C15       10.9367   11.8244    1.6166 C.3       3 RES3    0.0000
     88 O42       11.8352   13.9724    1.4585 O.2       3 RES3    0.0000
     89 N20        9.4621   11.6643    1.9361 N.pl3     3 RES3    0.0000
     90 C16       11.4256   10.6822    0.7290 C.3       3 RES3    0.0000
     91 H13       11.5032    9.8517    1.2635 H         3 RES3    0.0000
     92 H14       10.7743   10.5206    0.0016 H         3 RES3    0.0000
     93 O43       10.4912   13.2727   -0.1094 O.2       3 RES3    0.0000
     94 N21       16.7732    5.8279    4.0148 N.pl3     3 RES3    0.0000
     95 C17       18.2169    6.3194    3.8363 C.3       3 RES3    0.0000
     96 O44       16.4129    4.8923    3.3427 O.2       3 RES3    0.0000
     97 O45       19.7711    6.6033    5.5367 O.2       3 RES3    0.0000
     98 C18       13.7407   10.2615    0.5703 C.2       3 RES3    0.0000
     99 O46       10.9870   12.2157    3.9097 O.2       3 RES3    0.0000
    100 O47       16.1466    6.4493    4.8492 O.2       3 RES3    0.0000
    101 N22       18.7688    5.6121    2.6321 N.pl3     3 RES3    0.0000
    102 C19       16.1803   10.2467    0.1961 C.2       3 RES3    0.0000
    103 O48       18.4848    6.1128    1.5584 O.2       3 RES3    0.0000
    104 O49        9.0958   10.5190    2.0522 O.2       3 RES3    0.0000
    105 N23       18.9724    5.8368    5.0795 N.pl3     3 RES3    0.0000
    106 O50       18.6787    4.7432    5.4856 O.2       3 RES3    0.0000
    107 C20       18.2569    7.8234    3.7317 C.3       3 RES3    0.0000
    108 H15       18.1777    8.2263    4.6323 H         3 RES3    0.0000
    109 H16       19.1168    8.1119    3.3361 H         3 RES3    0.0000
    110 N24       11.1120   13.1701    0.9297 N.pl3     3 RES3    0.0000
    111 O51       19.4488    4.6265    2.8070 O.2       3 RES3    0.0000
    112 C21       17.4978    8.9435    1.7653 C.2       3 RES3    0.0000
    113 H17       14.8382   11.2358   -0.5394 H         3 RES3    0.0000
    114 H18       15.6469    9.1382    1.5855 H         3 RES3    0.0000
    115 O52       19.7113   12.0072    7.8687 O.3       4 RES4    0.0000
    116 O53       15.1338   15.2873    5.9210 O.3       4 RES4    0.0000
    117 O54       14.1071   14.7640    7.8439 O.2       4 RES4    0.0000
    118 O55       18.4630   13.0242    6.2891 O.2       4 RES4    0.0000
    119 N25       17.5575   12.3272    8.2715 N.am      4 RES4    0.0000
    120 O56       15.4726   12.6616    9.0849 O.2       4 RES4    0.0000
    121 O57       12.3908   18.0331    4.7185 O.2       4 RES4    0.0000
    122 C22       20.8696   12.2290    7.0678 C.3       4 RES4    0.0000
    123 H19       21.5394   12.7448    7.5843 H         4 RES4    0.0000
    124 H20       20.6255   12.7547    6.2652 H         4 RES4    0.0000
    125 C23       21.4603   10.8971    6.6477 C.3       4 RES4    0.0000
    126 O58       21.1887    9.6978    4.6598 O.2       4 RES4    0.0000
    127 N26       16.0791   13.7659    7.1765 N.am      4 RES4    0.0000
    128 N27       22.8089   11.1300    6.0098 N.pl3     4 RES4    0.0000
    129 O59       21.4210    8.8006    7.6834 O.2       4 RES4    0.0000
    130 O60       15.5674   15.9820    2.5166 O.2       4 RES4    0.0000
    131 N28       20.6276   10.1308    5.6327 N.pl3     4 RES4    0.0000
    132 N29       21.6848    9.9706    7.8351 N.pl3     4 RES4    0.0000
    133 O61       19.4502   10.0278    5.9182 O.2       4 RES4    0.0000
    134 O62       22.8503   12.0672    5.2476 O.2       4 RES4    0.0000
    135 C24       16.2880   12.9019    8.2249 C.2       4 RES4    0.0000
    136 O63       13.9158   14.7956    3.3144 O.2       4 RES4    0.0000
    137 O64       22.1432   10.5103    8.8271 O.2       4 RES4    0.0000
    138 C25       14.3118   16.8073    4.3175 C.3       4 RES4    0.0000
    139 N30       15.4663   17.8142    4.3053 N.pl3     4 RES4    0.0000
    140 O65       23.7041   10.3602    6.2963 O.2       4 RES4    0.0000
    141 N31       14.6327   15.7499    3.2809 N.pl3     4 RES4    0.0000
    142 O66       15.2290   18.9158    3.8587 O.2       4 RES4    0.0000
    143 N32       13.0668   17.5436    3.8314 N.pl3     4 RES4    0.0000
    144 C26       14.0847   16.2357    5.6882 C.3       4 RES4    0.0000
    145 H21       14.1115   16.9535    6.3699 H         4 RES4    0.0000
    146 H22       13.2007   15.7913    5.7324 H         4 RES4    0.0000
    147 C27       18.5583   12.5018    7.3568 C.2       4 RES4    0.0000
    148 O67       12.8881   17.5731    2.6421 O.2       4 RES4    0.0000
    149 C28       14.9972   14.6104    7.0665 C.2       4 RES4    0.0000
    150 O68       16.4930   17.4297    4.7533 O.2       4 RES4    0.0000
    151 H23       16.5789   13.8358    6.6853 H         4 RES4    0.0000
    152 H24       17.6974   11.8870    8.9574 H         4 RES4    0.0000
@<TRIPOS>BOND
     1    1   10 1
     2    2    5 2
     3    3   23 2
     4    4   26 1
     5    5    9 1
     6    6   19 1
     7    7   29 2
     8    8   19 1
     9    9   10 1
    10   10   11 1
    11   12   10 1
    12   13   19 2
    13   14    5 2
    14   15   17 2
    15   16   20 2
    16   17    9 1
    17   18   20 2
    18   20    9 1
    19   21   24 2
    20   22   24 2
    21   23    1 1
    22   24   30 1
    23   25   17 2
    24   26   27 1
    25   28   26 1
    26   29    4 1
    27   30   26 1
    28   31   30 1
    29   32   31 2
    30   33   30 1
    31   34   33 2
    32   35   31 2
    33   36   33 2
    34   37    8 1
    35   38    6 1
    36   39   59 1
    37   40   64 2
    38   41   62 1
    39   42   62 2
    40   43   56 2
    41   44   51 2
    42   45   71 2
    43   46   63 2
    44   47   62 1
    45   48   54 2
    46   49   64 1
    47   50   51 1
    48   51   55 2
    49   52   56 2
    50   53   63 2
    51   54   50 1
    52   56   69 1
    53   57   54 2
    54   58   68 2
    55   59   50 1
    56   60   59 1
    57   61   59 1
    58   63   50 1
    59   64   39 1
    60   65   41 1
    61   66   65 1
    62   67   65 1
    63   68   69 1
    64   69   65 1
    65   70   68 2
    66   71   47 1
    67   72   73 2
    68   73   69 1
    69   74   73 2
    70   75   49 1
    71   76   47 1
    72   77  107 1
    73   78   90 1
    74   79  102 2
    75   80   98 2
    76   81   86 2
    77   82  102 1
    78   83   89 2
    79   84   98 1
    80   85  112 2
    81   86   87 1
    82   87   89 1
    83   88  110 2
    84   89  104 2
    85   90   87 1
    86   91   90 1
    87   92   90 1
    88   93  110 2
    89   94   95 1
    90   95  101 1
    91   96   94 2
    92   97  105 2
    93   98   78 1
    94   99   86 2
    95  100   94 2
    96  101  103 2
    97  102   84 1
    98  105   95 1
    99  106  105 2
   100  107   95 1
   101  108  107 1
   102  109  107 1
   103  110   87 1
   104  111  101 2
   105  112   77 1
   106  113   84 1
   107  114   82 1
   108  115  122 1
   109  116  144 1
   110  117  149 2
   111  118  147 2
   112  119  135 1
   113  120  135 2
   114  121  143 2
   115  122  123 1
   116  124  122 1
   117  125  122 1
   118  126  131 2
   119  127  135 1
   120  128  125 1
   121  129  132 2
   122  130  141 2
   123  131  125 1
   124  132  125 1
   125  133  131 2
   126  134  128 2
   127  136  141 2
   128  137  132 2
   129  138  139 1
   130  139  142 2
   131  140  128 2
   132  141  138 1
   133  143  138 1
   134  144  138 1
   135  145  144 1
   136  146  144 1
   137  147  115 1
   138  148  143 2
   139  149  116 1
   140  150  139 2
   141  151  127 1
   142  152  119 1
   143    6   29 1
   144    8   23 1
   145   49   71 1
   146   82  112 1
   147  119  147 1
   148  127  149 1
@<TRIPOS>SUBSTRUCTURE
     1 RES1 1
     2 RES2 39
     3 RES3 77
     4 RES4 115

@<TRIPOS>CRYSIN
  14.6462   14.7794   17.7372  70.7380  72.1330  69.6300   2 1

