# MOL2 file generated by ConQuest
# Please check atom types

@<TRIPOS>MOLECULE
KIXTIU
    52    55     1
SMALL
NO_CHARGES
****
Generated from CSD

@<TRIPOS>ATOM
      1 C1        -1.5796    3.8757    3.1770 C.2       1 RES1    0.0000
      2 N1        -0.4885    4.3721    2.5135 N.am      1 RES1    0.0000
      3 C2         0.4029    3.2841    2.9519 C.3       1 RES1    0.0000
      4 H1         1.1761    3.5860    3.4543 H         1 RES1    0.0000
      5 H2         0.6605    2.6758    2.2422 H         1 RES1    0.0000
      6 C3        -0.7509    2.7715    3.8285 C.3       1 RES1    0.0000
      7 O1        -1.1652    1.4460    3.5407 O.3       1 RES1    0.0000
      8 N2        -1.4188    0.7347    4.7960 N.3       1 RES1    0.0000
      9 C4        -1.6089    1.7923    5.8202 C.3       1 RES1    0.0000
     10 H3        -2.5239    2.1403    5.7740 H         1 RES1    0.0000
     11 C5        -0.6249    2.8500    5.3208 C.3       1 RES1    0.0000
     12 H4        -0.8661    3.7307    5.6458 H         1 RES1    0.0000
     13 H5         0.2800    2.6447    5.6055 H         1 RES1    0.0000
     14 O2        -2.7181    4.2704    3.2441 O.2       1 RES1    0.0000
     15 C6        -0.2234    5.5460    1.8233 C.ar      1 RES1    0.0000
     16 C7         1.0449    5.7898    1.3477 C.ar      1 RES1    0.0000
     17 H6         1.7117    5.1502    1.4491 H         1 RES1    0.0000
     18 C8         1.3229    6.9727    0.7275 C.ar      1 RES1    0.0000
     19 H7         2.1905    7.1241    0.4279 H         1 RES1    0.0000
     20 C9         0.3728    7.9567    0.5233 C.ar      1 RES1    0.0000
     21 C10       -0.8865    7.6786    1.0004 C.ar      1 RES1    0.0000
     22 H8        -1.5539    8.3171    0.8900 H         1 RES1    0.0000
     23 C11       -1.2025    6.5081    1.6310 C.ar      1 RES1    0.0000
     24 H9        -2.0703    6.3581    1.9291 H         1 RES1    0.0000
     25 C12        0.6946    9.2559   -0.1297 C.3       1 RES1    0.0000
     26 H10        1.6179    9.2616   -0.3936 H         1 RES1    0.0000
     27 H11        0.5344    9.9732    0.4875 H         1 RES1    0.0000
     28 H12        0.1392    9.3713   -0.9049 H         1 RES1    0.0000
     29 C13       -1.3092    1.3320    7.2112 C.ar      1 RES1    0.0000
     30 C14       -0.1785    0.6496    7.5034 C.ar      1 RES1    0.0000
     31 H13        0.4121    0.4345    6.8176 H         1 RES1    0.0000
     32 C15        0.1162    0.2706    8.7795 C.ar      1 RES1    0.0000
     33 H14        0.9173   -0.1665    8.9554 H         1 RES1    0.0000
     34 C16       -0.7443    0.5226    9.7873 C.ar      1 RES1    0.0000
     35 H15       -0.5444    0.2419   10.6505 H         1 RES1    0.0000
     36 C17       -1.9001    1.1871    9.5399 C.ar      1 RES1    0.0000
     37 H16       -2.4909    1.3611   10.2376 H         1 RES1    0.0000
     38 C18       -2.2087    1.6132    8.2398 C.ar      1 RES1    0.0000
     39 H17       -2.9977    2.0751    8.0669 H         1 RES1    0.0000
     40 C19       -2.5254   -0.1828    4.5187 C.3       1 RES1    0.0000
     41 C20       -2.8640   -0.9142    5.7919 C.3       1 RES1    0.0000
     42 H18       -2.0805   -1.3572    6.1243 H         1 RES1    0.0000
     43 H19       -3.5487   -1.5637    5.6145 H         1 RES1    0.0000
     44 H20       -3.1795   -0.2875    6.4464 H         1 RES1    0.0000
     45 C21       -2.0301   -1.1632    3.4513 C.3       1 RES1    0.0000
     46 H21       -1.8192   -0.6816    2.6477 H         1 RES1    0.0000
     47 H22       -2.7160   -1.8089    3.2664 H         1 RES1    0.0000
     48 H23       -1.2442   -1.6137    3.7703 H         1 RES1    0.0000
     49 C22       -3.7603    0.5331    3.9671 C.3       1 RES1    0.0000
     50 H24       -3.5286    0.9937    3.1576 H         1 RES1    0.0000
     51 H25       -4.0791    1.1657    4.6141 H         1 RES1    0.0000
     52 H26       -4.4482   -0.1108    3.7837 H         1 RES1    0.0000
@<TRIPOS>BOND
     1    1    2 1
     2    2    3 1
     3    3    4 1
     4    5    3 1
     5    6    1 1
     6    7    6 1
     7    8    7 1
     8    9    8 1
     9   10    9 1
    10   11    6 1
    11   12   11 1
    12   13   11 1
    13   14    1 2
    14   15    2 1
    15   16   15 ar
    16   17   16 1
    17   18   16 ar
    18   19   18 1
    19   20   18 ar
    20   21   20 ar
    21   22   21 1
    22   23   15 ar
    23   24   23 1
    24   25   20 1
    25   26   25 1
    26   27   25 1
    27   28   25 1
    28   29    9 1
    29   30   29 ar
    30   31   30 1
    31   32   30 ar
    32   33   32 1
    33   34   32 ar
    34   35   34 1
    35   36   34 ar
    36   37   36 1
    37   38   29 ar
    38   39   38 1
    39   40    8 1
    40   41   40 1
    41   42   41 1
    42   43   41 1
    43   44   41 1
    44   45   40 1
    45   46   45 1
    46   47   45 1
    47   48   45 1
    48   49   40 1
    49   50   49 1
    50   51   49 1
    51   52   49 1
    52    3    6 1
    53    9   11 1
    54   21   23 ar
    55   36   38 ar
@<TRIPOS>SUBSTRUCTURE
     1 RES1 1

@<TRIPOS>CRYSIN
   6.2720   10.6870   15.3270 103.3900  87.7900  95.6200   2 1

