# MOL2 file generated by ConQuest
# Please check atom types

@<TRIPOS>MOLECULE
KIYBUP
    60    60     1
SMALL
NO_CHARGES
****
Generated from CSD

@<TRIPOS>ATOM
      1 C1         2.9335    5.1440   -1.4371 C.ar      1 RES1    0.0000
      2 C2         3.2703    6.3687   -0.7160 C.ar      1 RES1    0.0000
      3 C3         2.4912    6.7438    0.4173 C.ar      1 RES1    0.0000
      4 C4         1.7726    5.6633    1.0276 C.ar      1 RES1    0.0000
      5 C5         2.1514    4.2891    0.7567 C.ar      1 RES1    0.0000
      6 C6         2.5239    4.0197   -0.6066 C.ar      1 RES1    0.0000
      7 N1         3.0259    4.9690   -2.7246 N.3       1 RES1    0.0000
      8 H1         2.9913    4.0972   -2.9515 H         1 RES1    0.0000
      9 C7         3.1921    5.8475   -3.9304 C.3       1 RES1    0.0000
     10 C8         3.0777    7.3189   -3.6159 C.3       1 RES1    0.0000
     11 H2         2.2352    7.5071   -3.1964 H         1 RES1    0.0000
     12 H3         3.7918    7.5653   -3.0225 H         1 RES1    0.0000
     13 H4         3.1491    7.8235   -4.4308 H         1 RES1    0.0000
     14 C9         2.0406    5.4459   -4.8399 C.3       1 RES1    0.0000
     15 H5         1.2055    5.6665   -4.4213 H         1 RES1    0.0000
     16 H6         2.1102    5.9095   -5.6789 H         1 RES1    0.0000
     17 H7         2.0823    4.4974   -4.9927 H         1 RES1    0.0000
     18 C10        4.5141    5.4975   -4.6075 C.3       1 RES1    0.0000
     19 H8         5.2404    5.7607   -4.0367 H         1 RES1    0.0000
     20 H9         4.5536    4.5489   -4.7605 H         1 RES1    0.0000
     21 H10        4.5815    5.9610   -5.4468 H         1 RES1    0.0000
     22 N2         4.5681    6.8314   -0.8695 N.pl3     1 RES1    0.0000
     23 O1         5.3404    6.2970   -1.7071 O.2       1 RES1    0.0000
     24 O2         4.9847    7.7597   -0.1394 O.2       1 RES1    0.0000
     25 N3         2.3572    7.9544    0.9675 N.3       1 RES1    0.0000
     26 H11        2.1115    7.9007    1.8323 H         1 RES1    0.0000
     27 C11        2.4936    9.3773    0.5164 C.3       1 RES1    0.0000
     28 C12        2.6489    9.5397   -0.9856 C.3       1 RES1    0.0000
     29 H12        3.4792    9.1461   -1.2633 H         1 RES1    0.0000
     30 H13        1.9224    9.1050   -1.4397 H         1 RES1    0.0000
     31 H14        2.6487   10.4765   -1.2031 H         1 RES1    0.0000
     32 C13        1.1598   10.0234    0.9302 C.3       1 RES1    0.0000
     33 H15        1.0233    9.9328    1.8770 H         1 RES1    0.0000
     34 H16        1.1727   10.9561    0.6962 H         1 RES1    0.0000
     35 H17        0.4464    9.5846    0.4597 H         1 RES1    0.0000
     36 C14        3.6358   10.0476    1.2862 C.3       1 RES1    0.0000
     37 H18        3.5149    9.9290    2.2320 H         1 RES1    0.0000
     38 H19        4.4642    9.6440    1.0169 H         1 RES1    0.0000
     39 H20        3.6542   10.9869    1.0807 H         1 RES1    0.0000
     40 N4         0.5595    5.8502    1.7140 N.pl3     1 RES1    0.0000
     41 O3         0.2652    6.9828    2.1906 O.2       1 RES1    0.0000
     42 O4        -0.2263    4.8862    1.8263 O.2       1 RES1    0.0000
     43 N5         2.1342    3.3306    1.6573 N.3       1 RES1    0.0000
     44 H21        2.1466    2.5115    1.2811 H         1 RES1    0.0000
     45 C15        2.0923    3.2617    3.1481 C.3       1 RES1    0.0000
     46 C16        3.3236    2.4241    3.4820 C.3       1 RES1    0.0000
     47 H22        4.1092    2.9055    3.2117 H         1 RES1    0.0000
     48 H23        3.3613    2.2547    4.4271 H         1 RES1    0.0000
     49 H24        3.2798    1.5884    3.0085 H         1 RES1    0.0000
     50 C17        2.2082    4.6164    3.8503 C.3       1 RES1    0.0000
     51 H25        3.0087    5.0667    3.5707 H         1 RES1    0.0000
     52 H26        1.4456    5.1594    3.6352 H         1 RES1    0.0000
     53 H27        2.2391    4.4679    4.7992 H         1 RES1    0.0000
     54 C18        0.8224    2.5154    3.5701 C.3       1 RES1    0.0000
     55 H28        0.0527    3.0513    3.3626 H         1 RES1    0.0000
     56 H29        0.7690    1.6800    3.0970 H         1 RES1    0.0000
     57 H30        0.8504    2.3464    4.5156 H         1 RES1    0.0000
     58 N6         2.5882    2.7146   -1.0801 N.pl3     1 RES1    0.0000
     59 O5         2.4304    1.7283   -0.2961 O.2       1 RES1    0.0000
     60 O6         2.7754    2.4671   -2.3000 O.2       1 RES1    0.0000
@<TRIPOS>BOND
     1    1    2 ar
     2    2    3 ar
     3    3    4 ar
     4    4    5 ar
     5    5    6 ar
     6    6    1 ar
     7    7    1 1
     8    8    7 1
     9    9    7 1
    10   10    9 1
    11   11   10 1
    12   12   10 1
    13   13   10 1
    14   14    9 1
    15   15   14 1
    16   16   14 1
    17   17   14 1
    18   18    9 1
    19   19   18 1
    20   20   18 1
    21   21   18 1
    22   22    2 1
    23   23   22 2
    24   24   22 2
    25   25    3 1
    26   26   25 1
    27   27   25 1
    28   28   27 1
    29   29   28 1
    30   30   28 1
    31   31   28 1
    32   32   27 1
    33   33   32 1
    34   34   32 1
    35   35   32 1
    36   36   27 1
    37   37   36 1
    38   38   36 1
    39   39   36 1
    40   40    4 1
    41   41   40 2
    42   42   40 2
    43   43    5 1
    44   44   43 1
    45   45   43 1
    46   46   45 1
    47   47   46 1
    48   48   46 1
    49   49   46 1
    50   50   45 1
    51   51   50 1
    52   52   50 1
    53   53   50 1
    54   54   45 1
    55   55   54 1
    56   56   54 1
    57   57   54 1
    58   58    6 1
    59   59   58 2
    60   60   58 2
@<TRIPOS>SUBSTRUCTURE
     1 RES1 1

@<TRIPOS>CRYSIN
  10.3750   11.2860   18.3300  90.0000  97.6100  90.0000 231 1

