# MOL2 file generated by ConQuest
# Please check atom types

@<TRIPOS>MOLECULE
KIYSOC
    44    47     1
SMALL
NO_CHARGES
****
Generated from CSD

@<TRIPOS>ATOM
      1 O1         4.5823    3.8118   -1.3317 O.3       1 RES1    0.0000
      2 N1         4.9336    3.4146   -0.0192 N.2       1 RES1    0.0000
      3 O2         3.4352    1.1920    1.8583 O.2       1 RES1    0.0000
      4 O3         8.9780   -1.7549    1.2136 O.3       1 RES1    0.0000
      5 C1         5.7555    0.7233    1.9874 C.ar      1 RES1    0.0000
      6 C2         7.9884   -0.8582    1.4659 C.ar      1 RES1    0.0000
      7 C3         8.1424    0.3700    1.9572 C.ar      1 RES1    0.0000
      8 H1         8.9987    0.6827    2.1458 H         1 RES1    0.0000
      9 C4         6.6815   -1.3587    1.2580 C.ar      1 RES1    0.0000
     10 H2         6.5634   -2.2354    0.9725 H         1 RES1    0.0000
     11 C5         7.0520    1.1918    2.1922 C.ar      1 RES1    0.0000
     12 H3         7.1862    2.0626    2.4888 H         1 RES1    0.0000
     13 C6         3.7231    4.8351   -1.2782 C.2       1 RES1    0.0000
     14 C7         4.5629    1.5731    2.1932 C.2       1 RES1    0.0000
     15 C8         4.4327    4.1238    2.2265 C.ar      1 RES1    0.0000
     16 C9         3.2765    5.4336   -2.5262 C.ar      1 RES1    0.0000
     17 C10        2.2466    6.3791   -2.5514 C.ar      1 RES1    0.0000
     18 H4         1.8222    6.6065   -1.7554 H         1 RES1    0.0000
     19 C11        4.2809    4.2169    0.8111 C.2       1 RES1    0.0000
     20 C12        1.8483    6.9764   -3.7055 C.ar      1 RES1    0.0000
     21 H5         1.1540    7.5950   -3.6944 H         1 RES1    0.0000
     22 C13        5.6130   -0.5804    1.4699 C.ar      1 RES1    0.0000
     23 H6         4.7637   -0.9036    1.2722 H         1 RES1    0.0000
     24 C14        3.4889    5.1064    0.0222 C.2       1 RES1    0.0000
     25 H7         2.9109    5.7576    0.3481 H         1 RES1    0.0000
     26 C15       10.3275   -1.3031    1.4124 C.3       1 RES1    0.0000
     27 H8        10.4433   -0.4470    0.9937 H         1 RES1    0.0000
     28 H9        10.9366   -1.9345    1.0240 H         1 RES1    0.0000
     29 H10       10.5028   -1.2264    2.3526 H         1 RES1    0.0000
     30 C16        4.6827    2.9087    2.8813 C.ar      1 RES1    0.0000
     31 C17        4.9100    2.8799    4.2755 C.ar      1 RES1    0.0000
     32 H11        5.1057    2.0762    4.7022 H         1 RES1    0.0000
     33 C18        4.3370    5.2682    2.9882 C.ar      1 RES1    0.0000
     34 H12        4.1312    6.0725    2.5705 H         1 RES1    0.0000
     35 C19        3.4657    5.6995   -4.9444 C.ar      1 RES1    0.0000
     36 H13        3.8639    5.4530   -5.7474 H         1 RES1    0.0000
     37 C20        2.4804    6.6581   -4.9111 C.ar      1 RES1    0.0000
     38 H14        2.2393    7.0983   -5.6929 H         1 RES1    0.0000
     39 C21        3.8592    5.0894   -3.7095 C.ar      1 RES1    0.0000
     40 H15        4.5290    4.4440   -3.7156 H         1 RES1    0.0000
     41 C22        4.5376    5.2538    4.3582 C.ar      1 RES1    0.0000
     42 H16        4.4711    6.0450    4.8425 H         1 RES1    0.0000
     43 C23        4.8388    4.0712    5.0110 C.ar      1 RES1    0.0000
     44 H17        4.9918    4.0673    5.9280 H         1 RES1    0.0000
@<TRIPOS>BOND
     1    1    2 1
     2    2   19 2
     3    3   14 2
     4    4    6 1
     5    5   11 ar
     6    6    7 ar
     7    7    8 1
     8    9    6 ar
     9   10    9 1
    10   11    7 ar
    11   12   11 1
    12   13    1 1
    13   14    5 1
    14   15   19 1
    15   16   13 1
    16   17   16 ar
    17   18   17 1
    18   19   24 1
    19   20   17 ar
    20   21   20 1
    21   22    5 ar
    22   23   22 1
    23   24   13 2
    24   25   24 1
    25   26    4 1
    26   27   26 1
    27   28   26 1
    28   29   26 1
    29   30   14 1
    30   31   30 ar
    31   32   31 1
    32   33   15 ar
    33   34   33 1
    34   35   36 1
    35   37   20 ar
    36   38   37 1
    37   39   16 ar
    38   40   39 1
    39   41   33 ar
    40   42   41 1
    41   43   31 ar
    42   44   43 1
    43    9   22 ar
    44   15   30 ar
    45   35   37 ar
    46   35   39 ar
    47   41   43 ar
@<TRIPOS>SUBSTRUCTURE
     1 RES1 1

@<TRIPOS>CRYSIN
   8.8993   10.4759   11.0032  70.6430  72.0010  73.1480   2 1

