# MOL2 file generated by ConQuest
# Please check atom types

@<TRIPOS>MOLECULE
KIZCUT
    21    20     1
SMALL
NO_CHARGES
****
Generated from CSD

@<TRIPOS>ATOM
      1 O1         2.3295    2.0483    6.2379 O.2       1 RES1    0.0000
      2 O2         2.2142    1.9388    4.0173 O.3       1 RES1    0.0000
      3 O3         5.2191    4.7457    5.2752 O.2       1 RES1    0.0000
      4 O4         4.1440    3.8973    6.9379 O.2       1 RES1    0.0000
      5 O5         3.1735   -0.3643    2.8018 O.2       1 RES1    0.0000
      6 O6         1.6090   -1.6610    1.9089 O.2       1 RES1    0.0000
      7 O7         1.9043    1.1769    0.8796 O.2       1 RES1    0.0000
      8 O8         0.1856    2.2916    2.0103 O.2       1 RES1    0.0000
      9 O9        -0.9835   -0.1902    1.7318 O.2       1 RES1    0.0000
     10 O10       -0.4832   -1.1170    3.7953 O.2       1 RES1    0.0000
     11 N1         3.6649    3.2956    4.8462 N.am      1 RES1    0.0000
     12 N2         4.3869    4.0264    5.7565 N.pl3     1 RES1    0.0000
     13 N3         2.1003   -0.5648    2.4351 N.pl3     1 RES1    0.0000
     14 N4         0.8480    1.3740    1.7767 N.pl3     1 RES1    0.0000
     15 N5        -0.2996   -0.4565    2.7644 N.pl3     1 RES1    0.0000
     16 C1         2.7051    2.3919    5.1712 C.2       1 RES1    0.0000
     17 C2         1.1748    0.9567    4.1578 C.3       1 RES1    0.0000
     18 H1         0.3428    1.3798    4.4579 H         1 RES1    0.0000
     19 H2         1.4339    0.2755    4.8129 H         1 RES1    0.0000
     20 C3         0.9964    0.3527    2.8275 C.3       1 RES1    0.0000
     21 H3         3.8693    3.4696    4.0738 H         1 RES1    0.0000
@<TRIPOS>BOND
     1    1   16 2
     2    2   16 1
     3    3   12 2
     4    4   12 2
     5    5   13 2
     6    6   13 2
     7    7   14 2
     8    8   14 2
     9    9   15 2
    10   10   15 2
    11   11   12 1
    12   13   20 1
    13   14   20 1
    14   15   20 1
    15   16   11 1
    16   17    2 1
    17   18   17 1
    18   19   17 1
    19   20   17 1
    20   21   11 1
@<TRIPOS>SUBSTRUCTURE
     1 RES1 1

@<TRIPOS>CRYSIN
  10.7840   11.5270    8.7517  90.0000 108.2000  90.0000  14 1

