# MOL2 file generated by ConQuest
# Please check atom types

@<TRIPOS>MOLECULE
KIZDAA
    19    18     1
SMALL
NO_CHARGES
****
Generated from CSD

@<TRIPOS>ATOM
      1 O1         9.3064    1.9487    9.8421 O.2       1 RES1    0.0000
      2 O2         4.9650   -0.9292    6.5974 O.2       1 RES1    0.0000
      3 O3         6.8228    1.0390    5.7368 O.2       1 RES1    0.0000
      4 O4         8.9081    0.8985    7.8910 O.3       1 RES1    0.0000
      5 O5         7.1252   -2.8033    7.0867 O.2       1 RES1    0.0000
      6 O6         8.0883   -0.6705    5.3061 O.2       1 RES1    0.0000
      7 N1         5.6145   -0.7105    7.5968 N.pl3     1 RES1    0.0000
      8 C1         7.6464    0.5040    8.4231 C.3       1 RES1    0.0000
      9 H1         7.0397    1.2828    8.5037 H         1 RES1    0.0000
     10 H2         7.7553    0.0894    9.3153 H         1 RES1    0.0000
     11 O7         5.2225   -0.6620    8.7363 O.2       1 RES1    0.0000
     12 N2         7.3562   -0.0085    6.0084 N.pl3     1 RES1    0.0000
     13 N3         7.7565   -1.8749    7.5296 N.pl3     1 RES1    0.0000
     14 O8         8.8500   -1.9051    8.0522 O.2       1 RES1    0.0000
     15 C2         7.1089   -0.4948    7.4279 C.3       1 RES1    0.0000
     16 N4        10.7800    2.0536    8.0985 N.am      1 RES1    0.0000
     17 C3         9.6560    1.6850    8.7141 C.2       1 RES1    0.0000
     18 H3        11.2964    2.6878    8.4941 H         1 RES1    0.0000
     19 H4        10.8581    1.9189    7.2460 H         1 RES1    0.0000
@<TRIPOS>BOND
     1    1   17 2
     2    2    7 2
     3    3   12 2
     4    4    8 1
     5    5   13 2
     6    6   12 2
     7    7   11 2
     8    8    9 1
     9   10    8 1
    10   12   15 1
    11   13   14 2
    12   15    7 1
    13   16   17 1
    14   17    4 1
    15   18   16 1
    16   19   16 1
    17    8   15 1
    18   13   15 1
@<TRIPOS>SUBSTRUCTURE
     1 RES1 1

@<TRIPOS>CRYSIN
  12.8376    6.5716    9.8689  90.0000 103.5660  90.0000  14 1

