# MOL2 file generated by ConQuest
# Please check atom types

@<TRIPOS>MOLECULE
KIZJOU
    25    26     1
SMALL
NO_CHARGES
****
Generated from CSD

@<TRIPOS>ATOM
      1 O1         4.6899    6.6941    4.6068 O.2       1 RES1    0.0000
      2 O2         6.5689    5.1711    3.3625 O.3       1 RES1    0.0000
      3 N1         2.9296    4.7673    7.8850 N.pl3     1 RES1    0.0000
      4 N2         3.5339    3.5554    7.6479 N.2       1 RES1    0.0000
      5 N3         4.2950    3.6980    6.5967 N.2       1 RES1    0.0000
      6 N4         2.8549    6.9590    6.8522 N.3       1 RES1    0.0000
      7 N5         5.7615    4.6877    4.3929 N.am      1 RES1    0.0000
      8 C1         2.0055    4.8618    8.9692 C.ar      1 RES1    0.0000
      9 C2         2.0178    5.9619    9.8223 C.ar      1 RES1    0.0000
     10 C3         1.1140    6.0002   10.8784 C.ar      1 RES1    0.0000
     11 C4         0.2506    4.9587   11.1009 C.ar      1 RES1    0.0000
     12 C5         0.2554    3.8623   10.2538 C.ar      1 RES1    0.0000
     13 C6         1.1220    3.8209    9.1709 C.ar      1 RES1    0.0000
     14 C7         4.1981    4.9766    6.1396 C.2       1 RES1    0.0000
     15 C8         3.3324    5.6780    6.9610 C.2       1 RES1    0.0000
     16 C9         4.9068    5.5137    4.9735 C.2       1 RES1    0.0000
     17 H1         2.6340    6.6725    9.6854 H         1 RES1    0.0000
     18 H2         6.3989    5.9829    3.2293 H         1 RES1    0.0000
     19 H3         1.0944    6.7571   11.4529 H         1 RES1    0.0000
     20 H4         2.2376    7.2479    7.4095 H         1 RES1    0.0000
     21 H5         3.1649    7.4924    6.2239 H         1 RES1    0.0000
     22 H6        -0.3515    4.9890   11.8342 H         1 RES1    0.0000
     23 H7         5.8183    3.8487    4.6520 H         1 RES1    0.0000
     24 H8        -0.3359    3.1369   10.4152 H         1 RES1    0.0000
     25 H9         1.1078    3.0819    8.5744 H         1 RES1    0.0000
@<TRIPOS>BOND
     1    1   16 2
     2    2    7 1
     3    3    4 1
     4    4    5 2
     5    5   14 1
     6    6   15 1
     7    7   16 1
     8    8    3 1
     9    9    8 ar
    10   10    9 ar
    11   11   10 ar
    12   12   11 ar
    13   13    8 ar
    14   14   15 2
    15   15    3 1
    16   16   14 1
    17   17    9 1
    18   18    2 1
    19   19   10 1
    20   20    6 1
    21   21    6 1
    22   22   11 1
    23   23    7 1
    24   24   12 1
    25   25   13 1
    26   12   13 ar
@<TRIPOS>SUBSTRUCTURE
     1 RES1 1

@<TRIPOS>CRYSIN
  12.4965    6.1737   12.2420  90.0000  93.1990  90.0000  14 1

