# MOL2 file generated by ConQuest
# Please check atom types

@<TRIPOS>MOLECULE
KOBQOH
    76    76     2
SMALL
NO_CHARGES
****
Generated from CSD

@<TRIPOS>ATOM
      1 O1        -2.6591   -7.5519   -0.4459 O.2       1 RES1    0.0000
      2 O2        -3.0951   -6.4264   -2.2487 O.2       1 RES1    0.0000
      3 O3         0.1813   -3.3499   -3.9017 O.2       1 RES1    0.0000
      4 O4         1.9676   -2.9396   -2.7410 O.2       1 RES1    0.0000
      5 O5         2.6741   -5.0365    1.5507 O.2       1 RES1    0.0000
      6 O6         2.5172   -8.6041    2.3236 O.3       1 RES1    0.0000
      7 O7         4.1731   -7.3821    3.1537 O.2       1 RES1    0.0000
      8 N1         1.0383   -6.2272    2.5698 N.am      1 RES1    0.0000
      9 N2        -2.4009   -6.6723   -1.2617 N.pl3     1 RES1    0.0000
     10 N3         0.8742   -3.4574   -2.8826 N.pl3     1 RES1    0.0000
     11 C1         1.5184   -5.4729    1.5685 C.2       1 RES1    0.0000
     12 C2         1.8828   -6.7731    3.6531 C.3       1 RES1    0.0000
     13 C3         3.0015   -7.5923    3.0205 C.2       1 RES1    0.0000
     14 C4         2.4135   -5.7582    4.6580 C.3       1 RES1    0.0000
     15 C5         1.3719   -4.9040    5.3346 C.3       1 RES1    0.0000
     16 C6         0.3015   -5.7054    6.0291 C.3       1 RES1    0.0000
     17 C7         2.0991   -3.9933    6.3276 C.3       1 RES1    0.0000
     18 C8         0.6188   -5.2657    0.3805 C.ar      1 RES1    0.0000
     19 C9        -0.5291   -6.0211    0.1522 C.ar      1 RES1    0.0000
     20 C10       -1.2066   -5.8492   -1.0322 C.ar      1 RES1    0.0000
     21 C11       -0.8203   -5.0019   -2.0287 C.ar      1 RES1    0.0000
     22 C12        0.3520   -4.2968   -1.7849 C.ar      1 RES1    0.0000
     23 C13        1.0815   -4.4182   -0.6077 C.ar      1 RES1    0.0000
     24 H1         3.1356   -9.0388    2.0061 H         1 RES1    0.0000
     25 H2         0.1963   -6.4018    2.5817 H         1 RES1    0.0000
     26 H3         1.3241   -7.4006    4.1562 H         1 RES1    0.0000
     27 H4         2.9085   -6.2355    5.3418 H         1 RES1    0.0000
     28 H5         3.0381   -5.1741    4.2013 H         1 RES1    0.0000
     29 H6         0.9445   -4.3423    4.6556 H         1 RES1    0.0000
     30 H7        -0.3290   -5.1097    6.4394 H         1 RES1    0.0000
     31 H8         0.7033   -6.2600    6.7034 H         1 RES1    0.0000
     32 H9        -0.1504   -6.2587    5.3881 H         1 RES1    0.0000
     33 H10        1.4598   -3.4349    6.7759 H         1 RES1    0.0000
     34 H11        2.7287   -3.4441    5.8555 H         1 RES1    0.0000
     35 H12        2.5639   -4.5302    6.9733 H         1 RES1    0.0000
     36 H13       -0.8309   -6.6300    0.7884 H         1 RES1    0.0000
     37 H14       -1.3069   -4.9025   -2.8148 H         1 RES1    0.0000
     38 H15        1.8677   -3.9362   -0.4876 H         1 RES1    0.0000
     39 O8         9.7500   -2.2794   -0.2949 O.2       2 RES2    0.0000
     40 O9        10.3305   -1.2834   -2.1250 O.2       2 RES2    0.0000
     41 O10        7.3856    2.0015   -4.0729 O.2       2 RES2    0.0000
     42 O11        5.6303    2.6577   -2.9801 O.2       2 RES2    0.0000
     43 O12        4.3807    0.6189    1.0988 O.2       2 RES2    0.0000
     44 O13        4.4339   -3.1743    2.6245 O.3       2 RES2    0.0000
     45 O14        2.6043   -1.9455    2.9908 O.2       2 RES2    0.0000
     46 N4         5.7385   -0.7173    2.3046 N.am      2 RES2    0.0000
     47 N5         9.5728   -1.4457   -1.1690 N.pl3     2 RES2    0.0000
     48 N6         6.6431    1.9815   -3.1073 N.pl3     2 RES2    0.0000
     49 C14        5.4539    0.0217    1.2284 C.2       2 RES2    0.0000
     50 C15        4.7620   -0.9444    3.3630 C.3       2 RES2    0.0000
     51 C16        3.8003   -2.0503    3.0038 C.2       2 RES2    0.0000
     52 C17        5.4757   -1.1839    4.6925 C.3       2 RES2    0.0000
     53 C18        6.1110    0.1067    5.2312 C.3       2 RES2    0.0000
     54 C19        5.0859    1.0162    5.8816 C.3       2 RES2    0.0000
     55 C20        7.2146   -0.2116    6.2360 C.3       2 RES2    0.0000
     56 C21        6.4609    0.1220    0.1415 C.ar      2 RES2    0.0000
     57 C22        7.5765   -0.6903   -0.0036 C.ar      2 RES2    0.0000
     58 C23        8.3671   -0.6007   -1.0905 C.ar      2 RES2    0.0000
     59 C24        8.1157    0.2530   -2.1250 C.ar      2 RES2    0.0000
     60 C25        6.9952    1.0518   -2.0014 C.ar      2 RES2    0.0000
     61 C26        6.1711    1.0164   -0.9085 C.ar      2 RES2    0.0000
     62 H16        3.8805   -3.7489    2.4342 H         2 RES2    0.0000
     63 H17        6.5202   -1.0699    2.3760 H         2 RES2    0.0000
     64 H18        4.2376   -0.1221    3.4569 H         2 RES2    0.0000
     65 H19        6.1655   -1.8548    4.5712 H         2 RES2    0.0000
     66 H20        4.8400   -1.5231    5.3418 H         2 RES2    0.0000
     67 H21        6.5131    0.5882    4.4772 H         2 RES2    0.0000
     68 H22        4.3911    1.2170    5.2502 H         2 RES2    0.0000
     69 H23        5.5112    1.8302    6.1599 H         2 RES2    0.0000
     70 H24        4.7069    0.5760    6.6451 H         2 RES2    0.0000
     71 H25        7.8641   -0.7882    5.8257 H         2 RES2    0.0000
     72 H26        6.8350   -0.6519    6.9995 H         2 RES2    0.0000
     73 H27        7.6393    0.6023    6.5143 H         2 RES2    0.0000
     74 H28        7.7818   -1.3075    0.6612 H         2 RES2    0.0000
     75 H29        8.6683    0.2957   -2.8718 H         2 RES2    0.0000
     76 H30        5.4299    1.5754   -0.8598 H         2 RES2    0.0000
@<TRIPOS>BOND
     1    1    9 2
     2    2    9 2
     3    3   10 2
     4    4   10 2
     5    5   11 2
     6    6   13 1
     7    7   13 2
     8    8   11 1
     9    9   20 1
    10   10   22 1
    11   11   18 1
    12   12    8 1
    13   13   12 1
    14   14   12 1
    15   15   14 1
    16   16   15 1
    17   17   15 1
    18   18   19 ar
    19   19   20 ar
    20   20   21 ar
    21   21   22 ar
    22   22   23 ar
    23   23   18 ar
    24   24    6 1
    25   25    8 1
    26   26   12 1
    27   27   14 1
    28   28   14 1
    29   29   15 1
    30   30   16 1
    31   31   16 1
    32   32   16 1
    33   33   17 1
    34   34   17 1
    35   35   17 1
    36   36   19 1
    37   37   21 1
    38   38   23 1
    39   39   47 2
    40   40   47 2
    41   41   48 2
    42   42   48 2
    43   43   49 2
    44   44   51 1
    45   45   51 2
    46   46   49 1
    47   47   58 1
    48   48   60 1
    49   49   56 1
    50   50   46 1
    51   51   50 1
    52   52   50 1
    53   53   52 1
    54   54   53 1
    55   55   53 1
    56   56   57 ar
    57   57   58 ar
    58   58   59 ar
    59   59   60 ar
    60   60   61 ar
    61   61   56 ar
    62   62   44 1
    63   63   46 1
    64   64   50 1
    65   65   52 1
    66   66   52 1
    67   67   53 1
    68   68   54 1
    69   69   54 1
    70   70   54 1
    71   71   55 1
    72   72   55 1
    73   73   55 1
    74   74   57 1
    75   75   59 1
    76   76   61 1
@<TRIPOS>SUBSTRUCTURE
     1 RES1 1
     2 RES2 39

@<TRIPOS>CRYSIN
   5.8046   10.6400   12.9556 109.4280 102.4160  90.2500   1 1

