# MOL2 file generated by ConQuest
# Please check atom types

@<TRIPOS>MOLECULE
KODJAO
    23    23     1
SMALL
NO_CHARGES
****
Generated from CSD

@<TRIPOS>ATOM
      1 C1         0.9017    8.0586    1.7945 C.ar      1 RES1    0.0000
      2 C2         0.0938    8.1790    2.9398 C.ar      1 RES1    0.0000
      3 C3        -0.5611    9.3437    3.2875 C.ar      1 RES1    0.0000
      4 C4        -0.3723   10.4469    2.4758 C.ar      1 RES1    0.0000
      5 C5         0.4051   10.4036    1.3262 C.ar      1 RES1    0.0000
      6 C6         1.0184    9.2067    0.9884 C.ar      1 RES1    0.0000
      7 C7         1.6049    6.8295    1.3977 C.2       1 RES1    0.0000
      8 C8         2.8455    6.8240    0.9112 C.2       1 RES1    0.0000
      9 C9         3.4936    5.5500    0.5439 C.2       1 RES1    0.0000
     10 N1        -0.0475    7.0475    3.8763 N.pl3     1 RES1    0.0000
     11 N2        -0.9956   11.7209    2.8683 N.pl3     1 RES1    0.0000
     12 O1         4.7804    5.6861    0.2720 O.3       1 RES1    0.0000
     13 O2         2.8968    4.4775    0.5173 O.2       1 RES1    0.0000
     14 O3         0.8463    6.1984    3.9043 O.2       1 RES1    0.0000
     15 O4        -1.0360    7.0286    4.6067 O.2       1 RES1    0.0000
     16 O5        -1.4176   11.8192    4.0221 O.2       1 RES1    0.0000
     17 O6        -1.0593   12.6219    2.0286 O.2       1 RES1    0.0000
     18 H1        -1.1255    9.3861    4.0628 H         1 RES1    0.0000
     19 H2         0.5147   11.1834    0.7781 H         1 RES1    0.0000
     20 H3         1.5380    9.1595    0.1822 H         1 RES1    0.0000
     21 H4         1.1485    5.9907    1.4930 H         1 RES1    0.0000
     22 H5         3.3194    7.6518    0.7991 H         1 RES1    0.0000
     23 H6         5.0868    4.9150    0.0028 H         1 RES1    0.0000
@<TRIPOS>BOND
     1    1    2 ar
     2    2    3 ar
     3    3    4 ar
     4    4    5 ar
     5    5    6 ar
     6    6    1 ar
     7    7    1 1
     8    8    7 2
     9    9    8 1
    10   10    2 1
    11   11    4 1
    12   12    9 1
    13   13    9 2
    14   14   10 2
    15   15   10 2
    16   16   11 2
    17   17   11 2
    18   18    3 1
    19   19    5 1
    20   20    6 1
    21   21    7 1
    22   22    8 1
    23   23   12 1
@<TRIPOS>SUBSTRUCTURE
     1 RES1 1

@<TRIPOS>CRYSIN
   8.7600    7.8690   14.0400  90.0000  93.1200  90.0000 231 1

