# MOL2 file generated by ConQuest
# Please check atom types

@<TRIPOS>MOLECULE
KODZEJ
    58    60     2
SMALL
NO_CHARGES
****
Generated from CSD

@<TRIPOS>ATOM
      1 O1         4.1394    5.5297   -1.9485 O.2       1 RES1    0.0000
      2 O2         3.0614    5.3877    0.0345 O.3       1 RES1    0.0000
      3 O3         4.2909    3.7474   -0.5511 O.3       1 RES1    0.0000
      4 O4         3.6136    2.4788   -2.9549 O.2       1 RES1    0.0000
      5 O5         7.0624    3.8250   -0.3276 O.2       1 RES1    0.0000
      6 N1         5.1854    3.2054   -1.4678 N.am      1 RES1    0.0000
      7 C1         3.8431    4.9919   -0.9420 C.2       1 RES1    0.0000
      8 C2         2.5401    6.7441   -0.1461 C.3       1 RES1    0.0000
      9 H1         2.1082    6.8193   -1.0119 H         1 RES1    0.0000
     10 H2         3.2659    7.3853   -0.1112 H         1 RES1    0.0000
     11 C3         1.5624    7.0274    0.9328 C.ar      1 RES1    0.0000
     12 C4         1.6179    8.2323    1.5933 C.ar      1 RES1    0.0000
     13 H3         2.3095    8.8314    1.4297 H         1 RES1    0.0000
     14 C5         0.6130    8.5390    2.5163 C.ar      1 RES1    0.0000
     15 H4         0.6190    9.3685    2.9372 H         1 RES1    0.0000
     16 C6        -0.3568    7.6644    2.8054 C.ar      1 RES1    0.0000
     17 H5        -0.9982    7.8702    3.4471 H         1 RES1    0.0000
     18 C7        -0.4009    6.4801    2.1588 C.ar      1 RES1    0.0000
     19 H6        -1.0909    5.8822    2.3304 H         1 RES1    0.0000
     20 C8         0.5723    6.1577    1.2470 C.ar      1 RES1    0.0000
     21 H7         0.5506    5.3234    0.8356 H         1 RES1    0.0000
     22 C9         4.7506    2.5318   -2.5949 C.2       1 RES1    0.0000
     23 C10        5.9739    1.9026   -3.1739 C.3       1 RES1    0.0000
     24 H8         6.0582    2.1203   -4.1159 H         1 RES1    0.0000
     25 H9         5.9411    0.9384   -3.0786 H         1 RES1    0.0000
     26 C11        7.1389    2.4830   -2.3828 C.3       1 RES1    0.0000
     27 H10        7.7079    1.7720   -2.0476 H         1 RES1    0.0000
     28 H11        7.6715    3.0683   -2.9436 H         1 RES1    0.0000
     29 C12        6.5431    3.2518   -1.2470 C.2       1 RES1    0.0000
     30 O6         6.9555    1.5122    4.7539 O.2       2 RES2    0.0000
     31 O7         8.2751    2.8367    5.9942 O.3       2 RES2    0.0000
     32 O8         6.1724    2.8361    6.3856 O.3       2 RES2    0.0000
     33 O9         4.2540    3.8346    4.6672 O.2       2 RES2    0.0000
     34 O10        5.2121    0.5624    7.6123 O.2       2 RES2    0.0000
     35 N2         4.9552    2.2424    6.1429 N.am      2 RES2    0.0000
     36 C13        7.1640    2.2797    5.6139 C.2       2 RES2    0.0000
     37 C14        9.4702    2.3278    5.2930 C.3       2 RES2    0.0000
     38 H12        9.4272    2.5642    4.3526 H         2 RES2    0.0000
     39 H13        9.5073    1.3606    5.3613 H         2 RES2    0.0000
     40 C15       10.6768    2.9215    5.9046 C.ar      2 RES2    0.0000
     41 C16       11.3787    2.2521    6.8832 C.ar      2 RES2    0.0000
     42 H14       11.0785    1.4268    7.1914 H         2 RES2    0.0000
     43 C17       12.5493    2.8211    7.4185 C.ar      2 RES2    0.0000
     44 H15       13.0101    2.3868    8.1000 H         2 RES2    0.0000
     45 C18       13.0028    3.9976    6.9388 C.ar      2 RES2    0.0000
     46 H16       13.7908    4.3622    7.2724 H         2 RES2    0.0000
     47 C19       12.3085    4.6539    5.9650 C.ar      2 RES2    0.0000
     48 H17       12.6167    5.4713    5.6473 H         2 RES2    0.0000
     49 C20       11.1676    4.1173    5.4567 C.ar      2 RES2    0.0000
     50 H18       10.7092    4.5745    4.7895 H         2 RES2    0.0000
     51 C21        4.0459    2.8205    5.2819 C.2       2 RES2    0.0000
     52 C22        2.8517    1.9212    5.3010 C.3       2 RES2    0.0000
     53 H19        2.7140    1.5182    4.4289 H         2 RES2    0.0000
     54 H20        2.0543    2.4169    5.5440 H         2 RES2    0.0000
     55 C23        3.1596    0.8517    6.3447 C.3       2 RES2    0.0000
     56 H21        2.5307    0.9035    7.0817 H         2 RES2    0.0000
     57 H22        3.1065   -0.0337    5.9523 H         2 RES2    0.0000
     58 C24        4.5482    1.1332    6.8196 C.2       2 RES2    0.0000
@<TRIPOS>BOND
     1    1    7 2
     2    2    7 1
     3    3    6 1
     4    4   22 2
     5    5   29 2
     6    6   22 1
     7    7    3 1
     8    8    2 1
     9    9    8 1
    10   10    8 1
    11   11    8 1
    12   12   11 ar
    13   13   12 1
    14   14   12 ar
    15   15   14 1
    16   16   14 ar
    17   17   16 1
    18   18   16 ar
    19   19   18 1
    20   20   11 ar
    21   21   20 1
    22   22   23 1
    23   23   24 1
    24   25   23 1
    25   26   23 1
    26   27   26 1
    27   28   26 1
    28   29    6 1
    29   30   36 2
    30   31   36 1
    31   32   35 1
    32   33   51 2
    33   34   58 2
    34   35   51 1
    35   36   32 1
    36   37   31 1
    37   38   37 1
    38   39   37 1
    39   40   37 1
    40   41   40 ar
    41   42   41 1
    42   43   41 ar
    43   44   43 1
    44   45   43 ar
    45   46   45 1
    46   47   45 ar
    47   48   47 1
    48   49   40 ar
    49   50   49 1
    50   51   52 1
    51   52   53 1
    52   54   52 1
    53   55   52 1
    54   56   55 1
    55   57   55 1
    56   58   35 1
    57   18   20 ar
    58   26   29 1
    59   47   49 ar
    60   55   58 1
@<TRIPOS>SUBSTRUCTURE
     1 RES1 1
     2 RES2 30

@<TRIPOS>CRYSIN
  12.9348    6.0151   16.5398  90.0000 106.1700  90.0000   4 1

