# MOL2 file generated by ConQuest
# Please check atom types

@<TRIPOS>MOLECULE
KODZUZ
    32    35     1
SMALL
NO_CHARGES
****
Generated from CSD

@<TRIPOS>ATOM
      1 O1        -0.0410   10.6683    9.3310 O.3       1 RES1    0.0000
      2 N1         0.8040   10.4896   10.4566 N.2       1 RES1    0.0000
      3 N2         1.1828    8.8894    8.9136 N.2       1 RES1    0.0000
      4 N3         0.1393    8.9043    6.1873 N.pl3     1 RES1    0.0000
      5 N4         0.0085    7.5589    6.0348 N.2       1 RES1    0.0000
      6 N5         0.8101    7.1780    5.0689 N.2       1 RES1    0.0000
      7 C1         1.4899    9.4239   10.1537 C.2       1 RES1    0.0000
      8 C2         2.4695    8.8434   11.0672 C.ar      1 RES1    0.0000
      9 C3         2.7539    9.4461   12.2840 C.ar      1 RES1    0.0000
     10 H1         2.3285   10.2386   12.5194 H         1 RES1    0.0000
     11 C4         3.6636    8.8733   13.1457 C.ar      1 RES1    0.0000
     12 H2         3.8585    9.2896   13.9535 H         1 RES1    0.0000
     13 C5         4.2847    7.6956   12.8206 C.ar      1 RES1    0.0000
     14 H3         4.8917    7.3105   13.4101 H         1 RES1    0.0000
     15 C6         4.0100    7.0840   11.6223 C.ar      1 RES1    0.0000
     16 H4         4.4330    6.2859   11.4024 H         1 RES1    0.0000
     17 C7         3.1070    7.6512   10.7439 C.ar      1 RES1    0.0000
     18 H5         2.9246    7.2339    9.9330 H         1 RES1    0.0000
     19 C8         0.2565    9.6725    8.4894 C.2       1 RES1    0.0000
     20 C9        -0.5627    9.5948    7.2462 C.3       1 RES1    0.0000
     21 H6        -1.3921    9.1297    7.4372 H         1 RES1    0.0000
     22 H7        -0.7839   10.4917    6.9516 H         1 RES1    0.0000
     23 C10        1.0492    9.3928    5.3011 C.ar      1 RES1    0.0000
     24 C11        1.4680    8.2773    4.5937 C.ar      1 RES1    0.0000
     25 C12        2.4273    8.3960    3.5792 C.ar      1 RES1    0.0000
     26 H8         2.7131    7.6568    3.0921 H         1 RES1    0.0000
     27 C13        2.9242    9.6448    3.3384 C.ar      1 RES1    0.0000
     28 H9         3.5738    9.7547    2.6820 H         1 RES1    0.0000
     29 C14        2.4824   10.7570    4.0510 C.ar      1 RES1    0.0000
     30 H10        2.8395   11.5906    3.8469 H         1 RES1    0.0000
     31 C15        1.5399   10.6638    5.0407 C.ar      1 RES1    0.0000
     32 H11        1.2459   11.4097    5.5100 H         1 RES1    0.0000
@<TRIPOS>BOND
     1    1    2 1
     2    2    7 2
     3    3    7 1
     4    4    5 1
     5    5    6 2
     6    6   24 1
     7    7    8 1
     8    8    9 ar
     9    9   10 1
    10   11    9 ar
    11   12   11 1
    12   13   11 ar
    13   14   13 1
    14   15   13 ar
    15   16   15 1
    16   17    8 ar
    17   18   17 1
    18   19    1 1
    19   20    4 1
    20   21   20 1
    21   22   20 1
    22   23    4 1
    23   24   23 ar
    24   25   24 ar
    25   26   25 1
    26   27   25 ar
    27   28   27 1
    28   29   27 ar
    29   30   29 1
    30   31   23 ar
    31   32   31 1
    32    3   19 2
    33   15   17 ar
    34   19   20 1
    35   29   31 ar
@<TRIPOS>SUBSTRUCTURE
     1 RES1 1

@<TRIPOS>CRYSIN
   4.7009   11.1000   25.2650  90.0000  95.2340  90.0000  14 1

