# MOL2 file generated by ConQuest
# Please check atom types

@<TRIPOS>MOLECULE
KOFHUJ
    18    18     1
SMALL
NO_CHARGES
****
Generated from CSD

@<TRIPOS>ATOM
      1 O1         6.2380    0.9161   12.2537 O.3       1 RES1    0.0000
      2 H1         5.6792    0.3790   11.9876 H         1 RES1    0.0000
      3 N1         7.3134    0.9899   11.3146 N.2       1 RES1    0.0000
      4 C1         7.9600    2.0980   11.4692 C.2       1 RES1    0.0000
      5 N2         7.6814    3.0030   12.4317 N.3       1 RES1    0.0000
      6 H2         7.0411    2.8565   12.9868 H         1 RES1    0.0000
      7 H3         8.1438    3.7256   12.4894 H         1 RES1    0.0000
      8 C2         9.1053    2.3446   10.5629 C.ar      1 RES1    0.0000
      9 C3        10.2809    1.9267    8.5233 C.ar      1 RES1    0.0000
     10 H4        10.3341    1.4694    7.7151 H         1 RES1    0.0000
     11 C4         9.2165    1.7064    9.3545 C.ar      1 RES1    0.0000
     12 H5         8.5525    1.1091    9.0938 H         1 RES1    0.0000
     13 C5        10.1028    3.2268   10.9045 C.ar      1 RES1    0.0000
     14 H6        10.0635    3.6766   11.7171 H         1 RES1    0.0000
     15 C6        11.2523    2.7978    8.8593 C.ar      1 RES1    0.0000
     16 H7        11.9705    2.9504    8.2888 H         1 RES1    0.0000
     17 C7        11.1614    3.4507   10.0515 C.ar      1 RES1    0.0000
     18 H8        11.8252    4.0560   10.2937 H         1 RES1    0.0000
@<TRIPOS>BOND
     1    1    2 1
     2    3    1 1
     3    4    3 2
     4    5    4 1
     5    6    5 1
     6    7    5 1
     7    8    4 1
     8    9   10 1
     9   11    8 ar
    10   12   11 1
    11   13    8 ar
    12   14   13 1
    13   15    9 ar
    14   16   15 1
    15   17   13 ar
    16   18   17 1
    17    9   11 ar
    18   15   17 ar
@<TRIPOS>SUBSTRUCTURE
     1 RES1 1

@<TRIPOS>CRYSIN
  12.5790    5.0530   10.9080  90.0000  90.3800  90.0000  14 1

