# MOL2 file generated by ConQuest
# Please check atom types

@<TRIPOS>MOLECULE
KOFKEV
    23    23     1
SMALL
NO_CHARGES
****
Generated from CSD

@<TRIPOS>ATOM
      1 C1        -0.7852    7.2318    1.2860 C.3       1 RES1    0.0000
      2 C2        -0.2372    7.4659    3.7430 C.3       1 RES1    0.0000
      3 C3         0.0580    8.9365    3.8210 C.3       1 RES1    0.0000
      4 C4        -0.5867    9.7675    2.7446 C.3       1 RES1    0.0000
      5 C5         0.0142    9.6779    1.3740 C.3       1 RES1    0.0000
      6 N1        -0.3812    8.4750    0.6346 N.pl3     1 RES1    0.0000
      7 N2         0.0509    8.3821   -0.6379 N.pl3     1 RES1    0.0000
      8 N3         0.0395    6.8914    2.4151 N.3       1 RES1    0.0000
      9 N4         1.3463    6.5912    2.1502 N.pl3     1 RES1    0.0000
     10 O1        -0.2721    7.4144   -1.3119 O.2       1 RES1    0.0000
     11 O2         0.7219    9.3184   -1.0638 O.2       1 RES1    0.0000
     12 O3         1.6384    6.4579    0.9615 O.2       1 RES1    0.0000
     13 O4         2.0961    6.4411    3.0967 O.2       1 RES1    0.0000
     14 H1        -0.7611    6.4736    0.5365 H         1 RES1    0.0000
     15 H2        -1.6807    7.3360    1.7017 H         1 RES1    0.0000
     16 H3        -1.2213    7.2688    3.8729 H         1 RES1    0.0000
     17 H4         0.1933    6.9552    4.4095 H         1 RES1    0.0000
     18 H5        -0.2181    9.2624    4.8118 H         1 RES1    0.0000
     19 H6         1.0682    9.0944    3.7472 H         1 RES1    0.0000
     20 H7        -0.5032   10.7408    2.9257 H         1 RES1    0.0000
     21 H8        -1.4814    9.6096    2.6658 H         1 RES1    0.0000
     22 H9         1.0636    9.7104    1.3916 H         1 RES1    0.0000
     23 H10       -0.2722   10.3600    0.7629 H         1 RES1    0.0000
@<TRIPOS>BOND
     1    1    6 1
     2    2    3 1
     3    3    4 1
     4    4    5 1
     5    5    6 1
     6    6    7 1
     7    7   10 2
     8    8    1 1
     9    9    8 1
    10   11    7 2
    11   12    9 2
    12   13    9 2
    13   14    1 1
    14   15    1 1
    15   16    2 1
    16   17    2 1
    17   18    3 1
    18   19    3 1
    19   20    4 1
    20   21    4 1
    21   22    5 1
    22   23    5 1
    23    2    8 1
@<TRIPOS>SUBSTRUCTURE
     1 RES1 1

@<TRIPOS>CRYSIN
   8.7380   11.2000    8.3830  90.0000  90.1000  90.0000 231 1

