# MOL2 file generated by ConQuest
# Please check atom types

@<TRIPOS>MOLECULE
KOFKIZ
    46    46     2
SMALL
NO_CHARGES
****
Generated from CSD

@<TRIPOS>ATOM
      1 C1         7.3029    4.4095   10.3369 C.3       1 RES1    0.0000
      2 C2         8.1202    6.6291    9.2870 C.3       1 RES1    0.0000
      3 C3         9.8436    5.0682    8.3255 C.3       1 RES1    0.0000
      4 C4         9.2579    3.7666    8.8666 C.3       1 RES1    0.0000
      5 N1         7.8135    3.8344    9.1246 N.pl3     1 RES1    0.0000
      6 N2         7.4223    5.8835   10.3286 N.pl3     1 RES1    0.0000
      7 N3         9.5125    6.2151    9.1580 N.3       1 RES1    0.0000
      8 N4         6.9645    3.8192    8.0316 N.pl3     1 RES1    0.0000
      9 O1         7.4416    3.4471    6.9769 O.2       1 RES1    0.0000
     10 O2         5.7951    4.1369    8.2263 O.2       1 RES1    0.0000
     11 N5         6.9058    6.6120   11.2949 N.2       1 RES1    0.0000
     12 O3         6.2884    5.9463   12.1346 O.2       1 RES1    0.0000
     13 N6        10.3708    6.6126   10.1470 N.pl3     1 RES1    0.0000
     14 O4        11.4994    6.1352   10.1327 O.2       1 RES1    0.0000
     15 O5         9.9671    7.4400   10.9449 O.2       1 RES1    0.0000
     16 C5         4.0866    3.2829    0.2544 C.3       2 RES2    0.0000
     17 C6         3.4065    5.5063    1.4154 C.3       2 RES2    0.0000
     18 C7         5.6044    5.9748    0.2484 C.3       2 RES2    0.0000
     19 C8         6.0643    4.6948   -0.4348 C.3       2 RES2    0.0000
     20 N7         4.9393    3.8211   -0.7764 N.pl3     2 RES2    0.0000
     21 N8         3.0845    4.2307    0.7215 N.pl3     2 RES2    0.0000
     22 N9         4.8287    5.7066    1.4584 N.3       2 RES2    0.0000
     23 N10        4.4731    3.8034   -2.0533 N.pl3     2 RES2    0.0000
     24 O6         5.1059    4.4310   -2.9014 O.2       2 RES2    0.0000
     25 O7         3.5004    3.1205   -2.3782 O.2       2 RES2    0.0000
     26 N11        1.8295    3.9701    0.4264 N.2       2 RES2    0.0000
     27 O8         1.0262    4.8108    0.8218 O.2       2 RES2    0.0000
     28 N12        5.5067    5.2850    2.5741 N.pl3     2 RES2    0.0000
     29 O9         6.7242    5.3275    2.5203 O.2       2 RES2    0.0000
     30 O10        4.8386    4.9294    3.5464 O.2       2 RES2    0.0000
     31 H1         6.2588    4.1400   10.4397 H         1 RES1    0.0000
     32 H2         7.8588    4.0196   11.1802 H         1 RES1    0.0000
     33 H3         8.0856    7.6777    9.5319 H         1 RES1    0.0000
     34 H4         7.6224    6.4668    8.3493 H         1 RES1    0.0000
     35 H5         9.4502    5.2368    7.3340 H         1 RES1    0.0000
     36 H6        10.9151    4.9706    8.2777 H         1 RES1    0.0000
     37 H7         9.7567    3.5250    9.7947 H         1 RES1    0.0000
     38 H8         9.4411    2.9861    8.1463 H         1 RES1    0.0000
     39 H9         3.5797    2.4155   -0.1433 H         2 RES2    0.0000
     40 H10        4.6991    2.9925    1.0870 H         2 RES2    0.0000
     41 H11        3.0264    5.4714    2.4248 H         2 RES2    0.0000
     42 H12        2.9471    6.3273    0.8839 H         2 RES2    0.0000
     43 H13        4.9901    6.5365   -0.4420 H         2 RES2    0.0000
     44 H14        6.4750    6.5619    0.5136 H         2 RES2    0.0000
     45 H15        6.7301    4.1654    0.2269 H         2 RES2    0.0000
     46 H16        6.5882    4.9515   -1.3378 H         2 RES2    0.0000
@<TRIPOS>BOND
     1    1    5 1
     2    2    6 1
     3    3    4 1
     4    4    5 1
     5    5    8 1
     6    6    1 1
     7    7    2 1
     8    8    9 2
     9   10    8 2
    10   11    6 1
    11   12   11 2
    12   13    7 1
    13   14   13 2
    14   15   13 2
    15   16   20 1
    16   17   21 1
    17   18   19 1
    18   19   20 1
    19   20   23 1
    20   21   16 1
    21   22   17 1
    22   23   24 2
    23   25   23 2
    24   26   21 1
    25   27   26 2
    26   28   22 1
    27   29   28 2
    28   30   28 2
    29   31    1 1
    30   32    1 1
    31   33    2 1
    32   34    2 1
    33   35    3 1
    34   36    3 1
    35   37    4 1
    36   38    4 1
    37   39   16 1
    38   40   16 1
    39   41   17 1
    40   42   17 1
    41   43   18 1
    42   44   18 1
    43   45   19 1
    44   46   19 1
    45    3    7 1
    46   18   22 1
@<TRIPOS>SUBSTRUCTURE
     1 RES1 1
     2 RES2 16

@<TRIPOS>CRYSIN
  11.3000    6.3400   12.2300  90.0000 102.4000  90.0000   7 1

