# MOL2 file generated by ConQuest
# Please check atom types

@<TRIPOS>MOLECULE
KOFKAR
    20    20     1
SMALL
NO_CHARGES
****
Generated from CSD

@<TRIPOS>ATOM
      1 C1         0.1637   12.9131   -0.9037 C.3       1 RES1    0.0000
      2 C2         1.9030   14.6350   -0.4183 C.3       1 RES1    0.0000
      3 C3         2.4449   13.7516    0.6618 C.3       1 RES1    0.0000
      4 C4         2.1489   12.2993    0.3936 C.3       1 RES1    0.0000
      5 N1         0.4869   14.3163   -0.6308 N.pl3     1 RES1    0.0000
      6 N2         0.7039   12.1046    0.1669 N.3       1 RES1    0.0000
      7 N3        -0.0896   12.0511    1.3047 N.pl3     1 RES1    0.0000
      8 N4        -0.3912   15.2703   -0.9898 N.pl3     1 RES1    0.0000
      9 O1         0.4534   11.7153    2.3417 O.2       1 RES1    0.0000
     10 O2        -1.2852   12.2479    1.1730 O.2       1 RES1    0.0000
     11 O3        -1.5015   14.9195   -1.3509 O.2       1 RES1    0.0000
     12 O4        -0.0240   16.4446   -0.8749 O.2       1 RES1    0.0000
     13 H1         0.5724   12.6201   -1.6689 H         1 RES1    0.0000
     14 H2        -0.7870   12.7912   -1.0024 H         1 RES1    0.0000
     15 H3         2.3243   14.3741   -1.2123 H         1 RES1    0.0000
     16 H4         1.9733   15.5077   -0.1679 H         1 RES1    0.0000
     17 H5         3.3970   13.9035    0.7767 H         1 RES1    0.0000
     18 H6         2.0438   14.0105    1.5587 H         1 RES1    0.0000
     19 H7         2.4300   11.7217    1.0391 H         1 RES1    0.0000
     20 H8         2.6029   11.9998   -0.4776 H         1 RES1    0.0000
@<TRIPOS>BOND
     1    1    5 1
     2    2    3 1
     3    3    4 1
     4    4    6 1
     5    5    2 1
     6    6    1 1
     7    7    6 1
     8    8    5 1
     9    9    7 2
    10   10    7 2
    11   11    8 2
    12   12    8 2
    13   13    1 1
    14   14    1 1
    15   15    2 1
    16   16    2 1
    17   17    3 1
    18   18    3 1
    19   19    4 1
    20   20    4 1
@<TRIPOS>SUBSTRUCTURE
     1 RES1 1

@<TRIPOS>CRYSIN
   6.6300   21.3900    6.0600  90.0000 120.0000  90.0000  14 1

