# MOL2 file generated by ConQuest
# Please check atom types

@<TRIPOS>MOLECULE
KOGWOS
    48    50     1
SMALL
NO_CHARGES
****
Generated from CSD

@<TRIPOS>ATOM
      1 O1        10.8151   -1.3695    1.1608 O.3       1 RES1    0.0000
      2 O2         1.7117    5.7081    1.6933 O.2       1 RES1    0.0000
      3 N1         4.2139    1.7791    4.4231 N.pl3     1 RES1    0.0000
      4 N2         2.2531    4.7602    2.3722 N.3       1 RES1    0.0000
      5 C1         9.6117   -1.2372    0.4457 C.3       1 RES1    0.0000
      6 C2         8.4892   -0.9305    1.3293 C.1       1 RES1    0.0000
      7 C3         7.5628   -0.6438    2.0081 C.1       1 RES1    0.0000
      8 C4         6.4540   -0.3011    2.7829 C.1       1 RES1    0.0000
      9 C5         5.5012   -0.0081    3.4333 C.1       1 RES1    0.0000
     10 C6         4.3092    0.3444    4.1912 C.3       1 RES1    0.0000
     11 C7         4.9302    2.4676    5.3780 C.ar      1 RES1    0.0000
     12 C8         5.7813    1.9810    6.3626 C.ar      1 RES1    0.0000
     13 C9         6.3756    2.9015    7.1853 C.ar      1 RES1    0.0000
     14 C10        6.1487    4.2567    7.0402 C.ar      1 RES1    0.0000
     15 C11        5.3053    4.7495    6.0659 C.ar      1 RES1    0.0000
     16 C12        4.6602    3.8444    5.2030 C.ar      1 RES1    0.0000
     17 C13        3.7534    3.9475    4.1005 C.2       1 RES1    0.0000
     18 C14        3.2132    5.1734    3.4449 C.3       1 RES1    0.0000
     19 C15        1.5763    3.4276    2.3061 C.3       1 RES1    0.0000
     20 C16        2.6348    2.3467    2.5186 C.3       1 RES1    0.0000
     21 C17        3.5230    2.6898    3.6535 C.2       1 RES1    0.0000
     22 C18        4.3612    5.9313    2.7518 C.3       1 RES1    0.0000
     23 C19        2.4742    6.0871    4.4322 C.3       1 RES1    0.0000
     24 C20        0.9671    3.2834    0.9147 C.3       1 RES1    0.0000
     25 C21        0.5008    3.3800    3.3905 C.3       1 RES1    0.0000
     26 H1         9.5469   -2.3392   -0.0130 H         1 RES1    0.0000
     27 H2         9.7421   -0.4644   -0.1943 H         1 RES1    0.0000
     28 H3         3.5378    0.0593    3.6276 H         1 RES1    0.0000
     29 H4         4.3893   -0.0968    5.0528 H         1 RES1    0.0000
     30 H5         5.9924    0.9641    6.4131 H         1 RES1    0.0000
     31 H6         6.9580    2.6134    7.8253 H         1 RES1    0.0000
     32 H7         6.5535    4.8401    7.6439 H         1 RES1    0.0000
     33 H8         5.0522    5.6648    5.9338 H         1 RES1    0.0000
     34 H9         2.2316    1.5499    2.6559 H         1 RES1    0.0000
     35 H10        3.1914    2.2320    1.6972 H         1 RES1    0.0000
     36 H11        4.8676    5.2496    2.0729 H         1 RES1    0.0000
     37 H12        4.0563    6.6573    2.3320 H         1 RES1    0.0000
     38 H13        5.0951    6.1453    3.3944 H         1 RES1    0.0000
     39 H14        1.7774    5.5053    5.0139 H         1 RES1    0.0000
     40 H15        2.0668    6.7407    3.9515 H         1 RES1    0.0000
     41 H16        3.1562    6.3988    5.1175 H         1 RES1    0.0000
     42 H17        0.1811    4.0070    0.8162 H         1 RES1    0.0000
     43 H18        0.6737    2.4097    0.8421 H         1 RES1    0.0000
     44 H19        1.6574    3.5396    0.2202 H         1 RES1    0.0000
     45 H20        0.9138    3.4554    4.3791 H         1 RES1    0.0000
     46 H21        0.0650    2.6878    3.2778 H         1 RES1    0.0000
     47 H22       -0.0915    4.2381    3.3037 H         1 RES1    0.0000
     48 H23       10.5514   -2.4611    1.4770 H         1 RES1    0.0000
@<TRIPOS>BOND
     1    1    5 1
     2    2    4 1
     3    3   10 1
     4    4   18 1
     5    5    6 1
     6    6    7 3
     7    7    8 1
     8    8    9 3
     9    9   10 1
    10   10   28 1
    11   11    3 1
    12   12   11 ar
    13   13   12 ar
    14   14   13 ar
    15   15   14 ar
    16   16   11 ar
    17   17   16 1
    18   18   17 1
    19   19    4 1
    20   20   19 1
    21   21    3 1
    22   22   18 1
    23   23   18 1
    24   24   19 1
    25   25   19 1
    26   26    5 1
    27   27    5 1
    28   29   10 1
    29   30   12 1
    30   31   13 1
    31   32   14 1
    32   33   15 1
    33   34   20 1
    34   35   20 1
    35   36   22 1
    36   37   22 1
    37   38   22 1
    38   39   23 1
    39   40   23 1
    40   41   23 1
    41   42   24 1
    42   43   24 1
    43   44   24 1
    44   45   25 1
    45   46   25 1
    46   47   25 1
    47   48    1 1
    48   15   16 ar
    49   17   21 2
    50   20   21 1
@<TRIPOS>SUBSTRUCTURE
     1 RES1 1

@<TRIPOS>CRYSIN
   7.3786    9.9210   13.2870  77.6390  88.8010  99.8380   2 1

