# MOL2 file generated by ConQuest
# Please check atom types

@<TRIPOS>MOLECULE
KOGWUY
    82    87     1
SMALL
NO_CHARGES
****
Generated from CSD

@<TRIPOS>ATOM
      1 O1         5.7921   -1.9986   14.8024 O.2       1 RES1    0.0000
      2 N1         6.9541    1.3660   10.7448 N.pl3     1 RES1    0.0000
      3 N2         6.0343   -1.1286   13.8830 N.3       1 RES1    0.0000
      4 C1         7.7514    4.6330    9.7678 C.1       1 RES1    0.0000
      5 C2         7.9077    3.5129   10.0922 C.1       1 RES1    0.0000
      6 C3         8.1668    2.1088   10.4550 C.3       1 RES1    0.0000
      7 C4         5.9024    1.1710    9.8657 C.ar      1 RES1    0.0000
      8 C5         5.6633    1.7284    8.6066 C.ar      1 RES1    0.0000
      9 C6         4.5410    1.3585    7.9348 C.ar      1 RES1    0.0000
     10 C7         3.6564    0.4578    8.4799 C.ar      1 RES1    0.0000
     11 C8         3.8711   -0.1293    9.7160 C.ar      1 RES1    0.0000
     12 C9         5.0178    0.2310   10.4473 C.ar      1 RES1    0.0000
     13 C10        5.5973   -0.1409   11.7026 C.2       1 RES1    0.0000
     14 C11        5.1190   -1.1561   12.6892 C.3       1 RES1    0.0000
     15 C12        3.6917   -0.8700   13.1671 C.3       1 RES1    0.0000
     16 C13        5.2079   -2.5655   12.0769 C.3       1 RES1    0.0000
     17 C14        6.8806    0.0477   14.2573 C.3       1 RES1    0.0000
     18 C15        7.8341   -0.3889   15.3494 C.3       1 RES1    0.0000
     19 C16        5.9822    1.1688   14.7640 C.3       1 RES1    0.0000
     20 C17        7.6655    0.4684   13.0155 C.3       1 RES1    0.0000
     21 C18        6.7502    0.5468   11.8408 C.2       1 RES1    0.0000
     22 H1         8.8000    2.0876   11.2285 H         1 RES1    0.0000
     23 H2         8.5700    1.7167    9.7889 H         1 RES1    0.0000
     24 H3         6.2704    2.3207    8.2342 H         1 RES1    0.0000
     25 H4         4.2467    1.7697    7.1594 H         1 RES1    0.0000
     26 H5         2.9129    0.1484    7.9847 H         1 RES1    0.0000
     27 H6         3.2962   -0.7312   10.1152 H         1 RES1    0.0000
     28 H7         3.7101    0.1907   13.6277 H         1 RES1    0.0000
     29 H8         3.0049   -0.9855   12.3609 H         1 RES1    0.0000
     30 H9         3.5261   -1.4094   14.0884 H         1 RES1    0.0000
     31 H10        4.6146   -2.6810   11.3628 H         1 RES1    0.0000
     32 H11        6.1477   -2.7976   11.9387 H         1 RES1    0.0000
     33 H12        4.8906   -3.1791   12.7448 H         1 RES1    0.0000
     34 H13        7.2362   -0.7418   16.1997 H         1 RES1    0.0000
     35 H14        8.2787    0.3285   15.6047 H         1 RES1    0.0000
     36 H15        8.3554   -1.0703   15.0673 H         1 RES1    0.0000
     37 H16        5.3965    1.5048   14.0308 H         1 RES1    0.0000
     38 H17        5.2739    0.8160   15.5663 H         1 RES1    0.0000
     39 H18        6.5463    1.8121   15.1633 H         1 RES1    0.0000
     40 H19        8.0181    1.3140   13.1671 H         1 RES1    0.0000
     41 H20        8.4934   -0.2331   12.7256 H         1 RES1    0.0000
     42 C1D        7.5796    5.9640    9.4262 C.1       1 RES1    0.0000
     43 C2D        7.4233    7.0841    9.1018 C.1       1 RES1    0.0000
     44 C3D        7.1642    8.4882    8.7390 C.3       1 RES1    0.0000
     45 N1D        8.3769    9.2310    8.4492 N.pl3     1 RES1    0.0000
     46 H1D        6.5310    8.5094    7.9655 H         1 RES1    0.0000
     47 H2D        6.7610    8.8803    9.4051 H         1 RES1    0.0000
     48 C4D        9.4286    9.4260    9.3283 C.ar      1 RES1    0.0000
     49 C18D       8.5808   10.0502    7.3532 C.2       1 RES1    0.0000
     50 C5D        9.6677    8.8686   10.5874 C.ar      1 RES1    0.0000
     51 C9D       10.3132   10.3660    8.7467 C.ar      1 RES1    0.0000
     52 C10D       9.7337   10.7379    7.4914 C.2       1 RES1    0.0000
     53 C17D       7.6655   10.1286    6.1785 C.3       1 RES1    0.0000
     54 C6D       10.7900    9.2385   11.2592 C.ar      1 RES1    0.0000
     55 H3D        9.0606    8.2763   10.9598 H         1 RES1    0.0000
     56 C8D       11.4599   10.7263    9.4780 C.ar      1 RES1    0.0000
     57 C11D      10.2120   11.7531    6.5048 C.3       1 RES1    0.0000
     58 C14D       8.4504   10.5493    4.9367 C.3       1 RES1    0.0000
     59 H19D       7.3129    9.2830    6.0269 H         1 RES1    0.0000
     60 H20D       6.8376   10.8301    6.4684 H         1 RES1    0.0000
     61 C7D       11.6746   10.1392   10.7141 C.ar      1 RES1    0.0000
     62 H4D       11.0843    8.8273   12.0346 H         1 RES1    0.0000
     63 H6D       12.0348   11.3282    9.0788 H         1 RES1    0.0000
     64 N2D        9.2967   11.7256    5.3110 N.3       1 RES1    0.0000
     65 C12D      11.6393   11.4670    6.0269 C.3       1 RES1    0.0000
     66 C13D      10.1231   13.1625    7.1171 C.3       1 RES1    0.0000
     67 C15D       7.4969   10.9859    3.8446 C.3       1 RES1    0.0000
     68 C16D       9.3488    9.4282    4.4300 C.3       1 RES1    0.0000
     69 H5D       12.4181   10.4486   11.2093 H         1 RES1    0.0000
     70 O1D        9.5389   12.5956    4.3916 O.2       1 RES1    0.0000
     71 H7D       11.6209   10.4063    5.5663 H         1 RES1    0.0000
     72 H8D       12.3261   11.5825    6.8331 H         1 RES1    0.0000
     73 H9D       11.8049   12.0064    5.1056 H         1 RES1    0.0000
     74 H10D      10.7164   13.2780    7.8312 H         1 RES1    0.0000
     75 H11D       9.1833   13.3946    7.2553 H         1 RES1    0.0000
     76 H12D      10.4404   13.7761    6.4492 H         1 RES1    0.0000
     77 H13D       8.0948   11.3388    2.9943 H         1 RES1    0.0000
     78 H14D       7.0523   10.2685    3.5893 H         1 RES1    0.0000
     79 H15D       6.9756   11.6673    4.1267 H         1 RES1    0.0000
     80 H16D       9.9345    9.0922    5.1632 H         1 RES1    0.0000
     81 H17D      10.0571    9.7810    3.6277 H         1 RES1    0.0000
     82 H18D       8.7847    8.7849    4.0307 H         1 RES1    0.0000
@<TRIPOS>BOND
     1    1    3 1
     2    2    6 1
     3    3   14 1
     4    4    5 3
     5    5    6 1
     6    6   22 1
     7    7    2 1
     8    8    7 ar
     9    9    8 ar
    10   10    9 ar
    11   11   10 ar
    12   12    7 ar
    13   13   12 1
    14   14   13 1
    15   15   14 1
    16   16   14 1
    17   17    3 1
    18   18   17 1
    19   19   17 1
    20   20   17 1
    21   21    2 1
    22   23    6 1
    23   24    8 1
    24   25    9 1
    25   26   10 1
    26   27   11 1
    27   28   15 1
    28   29   15 1
    29   30   15 1
    30   31   16 1
    31   32   16 1
    32   33   16 1
    33   34   18 1
    34   35   18 1
    35   36   18 1
    36   37   19 1
    37   38   19 1
    38   39   19 1
    39   40   20 1
    40   41   20 1
    41   42    4 1
    42   43   42 3
    43   44   43 1
    44   45   44 1
    45   46   44 1
    46   47   44 1
    47   48   45 1
    48   49   45 1
    49   50   48 ar
    50   51   48 ar
    51   52   49 2
    52   53   49 1
    53   54   50 ar
    54   55   50 1
    55   56   51 ar
    56   57   52 1
    57   58   53 1
    58   59   53 1
    59   60   53 1
    60   61   54 ar
    61   62   54 1
    62   63   56 1
    63   64   57 1
    64   65   57 1
    65   66   57 1
    66   67   58 1
    67   68   58 1
    68   69   61 1
    69   70   64 1
    70   71   65 1
    71   72   65 1
    72   73   65 1
    73   74   66 1
    74   75   66 1
    75   76   66 1
    76   77   67 1
    77   78   67 1
    78   79   67 1
    79   80   68 1
    80   81   68 1
    81   82   68 1
    82   11   12 ar
    83   13   21 2
    84   20   21 1
    85   51   52 1
    86   56   61 ar
    87   58   64 1
@<TRIPOS>SUBSTRUCTURE
     1 RES1 1

@<TRIPOS>CRYSIN
  15.3310   10.5970   19.1940  90.0000  90.0000  90.0000  61 1

