# MOL2 file generated by ConQuest
# Please check atom types

@<TRIPOS>MOLECULE
KOHBAM
    42    42     2
SMALL
NO_CHARGES
****
Generated from CSD

@<TRIPOS>ATOM
      1 C1        -2.4043    7.1536   -7.7622 C.ar      1 RES1    0.0000
      2 C2        -2.6784    8.4293   -8.3589 C.ar      1 RES1    0.0000
      3 H1        -3.0833    9.1168   -7.8458 H         1 RES1    0.0000
      4 C3        -2.3523    8.6552   -9.6677 C.ar      1 RES1    0.0000
      5 H2        -2.5591    9.4909  -10.0700 H         1 RES1    0.0000
      6 C4        -1.7122    7.6543  -10.4226 C.ar      1 RES1    0.0000
      7 C5        -1.4352    6.3954   -9.8575 C.ar      1 RES1    0.0000
      8 H3        -1.0156    5.7168  -10.3752 H         1 RES1    0.0000
      9 C6        -1.7791    6.1586   -8.5397 C.ar      1 RES1    0.0000
     10 H4        -1.5907    5.3121   -8.1510 H         1 RES1    0.0000
     11 C7        -3.3308    7.6051   -5.4634 C.2       1 RES1    0.0000
     12 C8        -3.5732    6.8908   -4.1229 C.3       1 RES1    0.0000
     13 H5        -2.8522    7.1185   -3.4991 H         1 RES1    0.0000
     14 H6        -3.5853    5.9222   -4.2676 H         1 RES1    0.0000
     15 H7        -4.4314    7.1777   -3.7500 H         1 RES1    0.0000
     16 N1        -2.7429    6.8379   -6.4376 N.am      1 RES1    0.0000
     17 H8        -2.5473    6.0157   -6.1935 H         1 RES1    0.0000
     18 N2        -1.3153    7.9340  -11.8331 N.pl3     1 RES1    0.0000
     19 O1        -3.6166    8.8052   -5.6487 O.2       1 RES1    0.0000
     20 O2        -1.7111    8.9756  -12.3575 O.2       1 RES1    0.0000
     21 O3        -0.6289    7.0640  -12.4095 O.2       1 RES1    0.0000
     22 C9        -0.7533    2.1679   -3.6121 C.ar      2 RES2    0.0000
     23 C10       -0.8647    3.3862   -2.9023 C.ar      2 RES2    0.0000
     24 H9        -1.2784    4.1424   -3.3024 H         2 RES2    0.0000
     25 C11       -0.3479    3.4587   -1.5913 C.ar      2 RES2    0.0000
     26 H10       -0.3964    4.2675   -1.0940 H         2 RES2    0.0000
     27 C12        0.2242    2.3259   -1.0420 C.ar      2 RES2    0.0000
     28 C13        0.3155    1.1456   -1.7269 C.ar      2 RES2    0.0000
     29 H11        0.7150    0.3853   -1.3223 H         2 RES2    0.0000
     30 C14       -0.1804    1.0715   -3.0041 C.ar      2 RES2    0.0000
     31 H12       -0.1250    0.2501   -3.4787 H         2 RES2    0.0000
     32 C15       -1.7598    2.9543   -5.7775 C.2       2 RES2    0.0000
     33 C16       -2.3061    2.4067   -7.1134 C.3       2 RES2    0.0000
     34 H13       -3.0939    2.9229   -7.3802 H         2 RES2    0.0000
     35 H14       -2.5517    1.4647   -7.0027 H         2 RES2    0.0000
     36 H15       -1.6140    2.4846   -7.8051 H         2 RES2    0.0000
     37 N3        -1.3302    2.0340   -4.9186 N.am      2 RES2    0.0000
     38 H16       -1.4136    1.2040   -5.1989 H         2 RES2    0.0000
     39 N4         0.7418    2.4248    0.3549 N.pl3     2 RES2    0.0000
     40 O4        -1.7422    4.2002   -5.5515 O.2       2 RES2    0.0000
     41 O5         0.4843    3.4354    1.0081 O.2       2 RES2    0.0000
     42 O6         1.3692    1.4786    0.8047 O.2       2 RES2    0.0000
@<TRIPOS>BOND
     1    1    2 ar
     2    2    3 1
     3    4    2 ar
     4    5    4 1
     5    6    4 ar
     6    7    6 ar
     7    8    7 1
     8    9    1 ar
     9   10    9 1
    10   11   12 1
    11   12   13 1
    12   14   12 1
    13   15   12 1
    14   16    1 1
    15   17   16 1
    16   18    6 1
    17   19   11 2
    18   20   18 2
    19   21   18 2
    20   22   23 ar
    21   23   24 1
    22   25   23 ar
    23   26   25 1
    24   27   25 ar
    25   28   27 ar
    26   29   28 1
    27   30   22 ar
    28   31   30 1
    29   32   33 1
    30   33   34 1
    31   35   33 1
    32   36   33 1
    33   37   22 1
    34   38   37 1
    35   39   27 1
    36   40   32 2
    37   41   39 2
    38   42   39 2
    39    7    9 ar
    40   11   16 1
    41   28   30 ar
    42   32   37 1
@<TRIPOS>SUBSTRUCTURE
     1 RES1 1
     2 RES2 22

@<TRIPOS>CRYSIN
   3.8210    9.7260   22.6700  92.1510  93.3590 100.4090   2 1

