# MOL2 file generated by ConQuest
# Please check atom types

@<TRIPOS>MOLECULE
KOHCEQ
    42    45     1
SMALL
NO_CHARGES
****
Generated from CSD

@<TRIPOS>ATOM
      1 O1        10.8911    4.7167    5.4233 O.3       1 RES1    0.0000
      2 N1        10.6690    4.7126    4.0250 N.pl3     1 RES1    0.0000
      3 C1         9.7580    5.6953    3.6655 C.2       1 RES1    0.0000
      4 C2         8.7144    6.0105    4.7466 C.2       1 RES1    0.0000
      5 O2         7.9927    6.9716    4.6091 O.2       1 RES1    0.0000
      6 N2         8.6347    5.1203    5.7840 N.am      1 RES1    0.0000
      7 C3         9.7392    4.1772    6.0096 C.3       1 RES1    0.0000
      8 H1         9.8785    4.0471    6.9604 H         1 RES1    0.0000
      9 H2         9.5325    3.3184    5.6093 H         1 RES1    0.0000
     10 C4        11.7527    4.1775    3.2831 C.ar      1 RES1    0.0000
     11 C5        11.6584    4.0231    1.9093 C.ar      1 RES1    0.0000
     12 H3        10.9074    4.3304    1.4547 H         1 RES1    0.0000
     13 C6        12.6876    3.4090    1.2184 C.ar      1 RES1    0.0000
     14 H4        12.6240    3.3071    0.2964 H         1 RES1    0.0000
     15 C7        13.7991    2.9503    1.8738 C.ar      1 RES1    0.0000
     16 H5        14.4871    2.5389    1.4011 H         1 RES1    0.0000
     17 C8        13.8876    3.1044    3.2406 C.ar      1 RES1    0.0000
     18 H6        14.6412    2.7947    3.6891 H         1 RES1    0.0000
     19 C9        12.8706    3.7123    3.9552 C.ar      1 RES1    0.0000
     20 H7        12.9376    3.8080    4.8783 H         1 RES1    0.0000
     21 N3         9.7655    6.1928    2.5046 N.2       1 RES1    0.0000
     22 C10        8.7564    7.0173    1.9854 C.ar      1 RES1    0.0000
     23 C11        8.9845    8.3765    1.8055 C.ar      1 RES1    0.0000
     24 H8         9.7793    8.7581    2.1035 H         1 RES1    0.0000
     25 C12        8.0265    9.1656    1.1804 C.ar      1 RES1    0.0000
     26 H9         8.1793   10.0743    1.0595 H         1 RES1    0.0000
     27 C13        6.8392    8.5955    0.7354 C.ar      1 RES1    0.0000
     28 H10        6.1981    9.1233    0.3178 H         1 RES1    0.0000
     29 C14        6.6106    7.2367    0.9154 C.ar      1 RES1    0.0000
     30 H11        5.8166    6.8551    0.6178 H         1 RES1    0.0000
     31 C15        7.5693    6.4472    1.5404 C.ar      1 RES1    0.0000
     32 H12        7.4163    5.5374    1.6606 H         1 RES1    0.0000
     33 N4         7.5216    3.8730    7.3431 N.ar      1 RES1    0.0000
     34 C16        7.5474    5.0361    6.6940 C.ar      1 RES1    0.0000
     35 C17        6.6059    6.0426    6.8945 C.ar      1 RES1    0.0000
     36 H13        6.6607    6.8516    6.4402 H         1 RES1    0.0000
     37 C18        5.5906    5.7933    7.7911 C.ar      1 RES1    0.0000
     38 H14        4.9422    6.4403    7.9520 H         1 RES1    0.0000
     39 C19        5.5355    4.5819    8.4495 C.ar      1 RES1    0.0000
     40 H15        4.8427    4.3913    9.0400 H         1 RES1    0.0000
     41 C20        6.5262    3.6700    8.2117 C.ar      1 RES1    0.0000
     42 H16        6.5062    2.8661    8.6793 H         1 RES1    0.0000
@<TRIPOS>BOND
     1    1    2 1
     2    2    3 1
     3    3    4 1
     4    4    5 2
     5    6    4 1
     6    7    1 1
     7    8    7 1
     8    9    7 1
     9   10    2 1
    10   11   10 ar
    11   12   11 1
    12   13   11 ar
    13   14   13 1
    14   15   13 ar
    15   16   15 1
    16   17   15 ar
    17   18   17 1
    18   19   10 ar
    19   20   19 1
    20   21    3 2
    21   22   21 1
    22   23   22 ar
    23   24   23 1
    24   25   23 ar
    25   26   25 1
    26   27   25 ar
    27   28   27 1
    28   29   27 ar
    29   30   29 1
    30   31   22 ar
    31   32   31 1
    32   33   34 ar
    33   34    6 1
    34   35   34 ar
    35   36   35 1
    36   37   35 ar
    37   38   37 1
    38   39   37 ar
    39   40   39 1
    40   41   33 ar
    41   42   41 1
    42    6    7 1
    43   17   19 ar
    44   29   31 ar
    45   39   41 ar
@<TRIPOS>SUBSTRUCTURE
     1 RES1 1

@<TRIPOS>CRYSIN
   7.2690   10.1355   12.9066  67.9160  81.5470  80.9820   2 1

