# MOL2 file generated by ConQuest
# Please check atom types

@<TRIPOS>MOLECULE
KOHMEZ
    48    50     2
SMALL
NO_CHARGES
****
Generated from CSD

@<TRIPOS>ATOM
      1 O1         8.7701    5.4469   -0.4347 O.3       1 RES1    0.0000
      2 O2        11.3542    6.8389    2.7103 O.2       1 RES1    0.0000
      3 O3        13.0675    6.6693    1.4563 O.2       1 RES1    0.0000
      4 N1        12.0941    6.2062    1.9851 N.pl3     1 RES1    0.0000
      5 C1        10.3110    4.5833    1.2580 C.3       1 RES1    0.0000
      6 C2        10.1306    5.4653    0.0100 C.3       1 RES1    0.0000
      7 C3        11.0362    4.7725   -1.0517 C.3       1 RES1    0.0000
      8 C4        11.5774    3.5627   -0.2985 C.3       1 RES1    0.0000
      9 C5        12.6323    4.0214    0.7211 C.3       1 RES1    0.0000
     10 C6        11.7483    4.7073    1.8028 C.3       1 RES1    0.0000
     11 C7        10.3875    3.1951    0.6050 C.3       1 RES1    0.0000
     12 C8        11.8858    4.1252    3.2171 C.3       1 RES1    0.0000
     13 O4         6.7541   -0.1632    1.2540 O.3       2 RES2    0.0000
     14 O5         8.5663   -1.1882    4.8897 O.2       2 RES2    0.0000
     15 O6         6.8133   -0.6561    6.0295 O.2       2 RES2    0.0000
     16 N2         7.7028   -0.4005    5.2703 N.pl3     2 RES2    0.0000
     17 C9         7.8366    0.9294    3.1189 C.3       2 RES2    0.0000
     18 C10        6.6266    0.0867    2.6562 C.3       2 RES2    0.0000
     19 C11        5.4030    0.9946    2.9827 C.3       2 RES2    0.0000
     20 C12        6.0541    2.2448    3.5877 C.3       2 RES2    0.0000
     21 C13        6.5829    1.8956    4.9879 C.3       2 RES2    0.0000
     22 C14        7.8279    1.0300    4.6633 C.3       2 RES2    0.0000
     23 C15        7.3550    2.3536    2.7644 C.3       2 RES2    0.0000
     24 C16        9.1380    1.5710    5.2362 C.3       2 RES2    0.0000
     25 H1         9.5684    4.7971    2.0132 H         1 RES1    0.0000
     26 H2        10.3854    6.4991    0.1903 H         1 RES1    0.0000
     27 H3        11.8387    5.4254   -1.3662 H         1 RES1    0.0000
     28 H4        10.4618    4.4681   -1.9150 H         1 RES1    0.0000
     29 H5        11.9709    2.8098   -0.9675 H         1 RES1    0.0000
     30 H6        13.1746    3.1825    1.1318 H         1 RES1    0.0000
     31 H7        13.3273    4.7199    0.2824 H         1 RES1    0.0000
     32 H8        10.6152    2.4068    1.3061 H         1 RES1    0.0000
     33 H9         9.4968    2.9370    0.0481 H         1 RES1    0.0000
     34 H10       11.6626    3.0686    3.1930 H         1 RES1    0.0000
     35 H11       11.1995    4.6257    3.8801 H         1 RES1    0.0000
     36 H12       12.8963    4.2707    3.5676 H         1 RES1    0.0000
     37 H13        8.7689    0.5549    2.7223 H         2 RES2    0.0000
     38 H14        6.5417   -0.8788    3.1329 H         2 RES2    0.0000
     39 H15        4.7447    0.5175    3.6938 H         2 RES2    0.0000
     40 H16        4.8489    1.2388    2.0873 H         2 RES2    0.0000
     41 H17        5.3867    3.0945    3.6017 H         2 RES2    0.0000
     42 H18        6.8554    2.7845    5.5367 H         2 RES2    0.0000
     43 H19        5.8524    1.3344    5.5527 H         2 RES2    0.0000
     44 H20        7.1757    2.4903    1.7087 H         2 RES2    0.0000
     45 H21        8.0198    3.1268    3.1209 H         2 RES2    0.0000
     46 H22        9.3062    2.5707    4.8637 H         2 RES2    0.0000
     47 H23        9.9545    0.9313    4.9338 H         2 RES2    0.0000
     48 H24        9.0785    1.5938    6.3139 H         2 RES2    0.0000
@<TRIPOS>BOND
     1    1    6 1
     2    2    4 2
     3    3    4 2
     4    4   10 1
     5    5    6 1
     6    6    7 1
     7    7    8 1
     8    8    9 1
     9    9   10 1
    10   10    5 1
    11   11    5 1
    12   12   10 1
    13   13   18 1
    14   14   16 2
    15   15   16 2
    16   16   22 1
    17   17   18 1
    18   18   19 1
    19   19   20 1
    20   20   21 1
    21   21   22 1
    22   22   17 1
    23   23   17 1
    24   24   22 1
    25   25    5 1
    26   26    6 1
    27   27    7 1
    28   28    7 1
    29   29    8 1
    30   30    9 1
    31   31    9 1
    32   32   11 1
    33   33   11 1
    34   34   12 1
    35   35   12 1
    36   36   12 1
    37   37   17 1
    38   38   18 1
    39   39   19 1
    40   40   19 1
    41   41   20 1
    42   42   21 1
    43   43   21 1
    44   44   23 1
    45   45   23 1
    46   46   24 1
    47   47   24 1
    48   48   24 1
    49    8   11 1
    50   20   23 1
@<TRIPOS>SUBSTRUCTURE
     1 RES1 1
     2 RES2 13

@<TRIPOS>CRYSIN
  27.8900    6.3270   22.0400  90.0000 114.6500  90.0000  15 1

