# MOL2 file generated by ConQuest
# Please check atom types

@<TRIPOS>MOLECULE
KOHPAY
    37    38     1
SMALL
NO_CHARGES
****
Generated from CSD

@<TRIPOS>ATOM
      1 N1         9.5607    2.0387    5.6557 N.pl3     1 RES1    0.0000
      2 N2        13.2419    6.2604    5.2120 N.pl3     1 RES1    0.0000
      3 O1         7.1014    1.3343    5.1597 O.2       1 RES1    0.0000
      4 O2         9.9083   -1.5924    7.5154 O.2       1 RES1    0.0000
      5 O3        14.3057    6.1683    5.7337 O.2       1 RES1    0.0000
      6 O4        12.8432    7.2462    4.5668 O.2       1 RES1    0.0000
      7 C1         6.7451   -2.2177    5.8102 C.3       1 RES1    0.0000
      8 C2         6.2022   -0.7454    5.8458 C.3       1 RES1    0.0000
      9 C3         7.3402    0.2590    5.7223 C.2       1 RES1    0.0000
     10 C4         8.5965   -0.0578    6.2789 C.2       1 RES1    0.0000
     11 C5         8.8943   -1.3464    6.9498 C.2       1 RES1    0.0000
     12 C6         7.7320   -2.3508    6.9195 C.3       1 RES1    0.0000
     13 C7         9.6738    0.8183    6.2463 C.2       1 RES1    0.0000
     14 C8        10.5748    3.0400    5.5762 C.ar      1 RES1    0.0000
     15 C9        10.1451    4.2260    4.9810 C.ar      1 RES1    0.0000
     16 C10       11.0007    5.2879    4.8432 C.ar      1 RES1    0.0000
     17 C11       12.2666    5.1387    5.3165 C.ar      1 RES1    0.0000
     18 C12       12.7231    3.9746    5.9313 C.ar      1 RES1    0.0000
     19 C13       11.8232    2.9053    6.0616 C.ar      1 RES1    0.0000
     20 C14        7.3154   -2.5020    4.4638 C.3       1 RES1    0.0000
     21 C15        5.5200   -3.1339    6.0820 C.3       1 RES1    0.0000
     22 H1         8.6386    2.2444    5.2627 H         1 RES1    0.0000
     23 H2         5.4898   -0.6035    5.1340 H         1 RES1    0.0000
     24 H3         5.6025   -0.5819    6.6636 H         1 RES1    0.0000
     25 H4         7.2582   -2.3313    7.8297 H         1 RES1    0.0000
     26 H5         8.0915   -3.2915    6.9816 H         1 RES1    0.0000
     27 H6        10.5827    0.5565    6.6560 H         1 RES1    0.0000
     28 H7         9.1984    4.2886    4.6115 H         1 RES1    0.0000
     29 H8        10.7222    6.1581    4.4373 H         1 RES1    0.0000
     30 H9        13.6946    3.8865    6.2547 H         1 RES1    0.0000
     31 H10       12.0871    2.0392    6.5121 H         1 RES1    0.0000
     32 H11        8.0655   -1.8579    4.2707 H         1 RES1    0.0000
     33 H12        6.6156   -2.4120    3.7634 H         1 RES1    0.0000
     34 H13        7.6906   -3.4313    4.4373 H         1 RES1    0.0000
     35 H14        4.8194   -3.0331    5.3763 H         1 RES1    0.0000
     36 H15        5.0981   -2.9517    6.9816 H         1 RES1    0.0000
     37 H16        5.8696   -4.0839    6.0729 H         1 RES1    0.0000
@<TRIPOS>BOND
     1    1   13 un
     2    2    5 2
     3    3    9 un
     4    4   11 un
     5    6    2 2
     6    7    8 1
     7    8    9 1
     8    9   10 un
     9   10   11 un
    10   11   12 1
    11   12    7 1
    12   13   10 un
    13   14    1 1
    14   15   14 ar
    15   16   15 ar
    16   17    2 1
    17   18   17 ar
    18   19   14 ar
    19   20    7 1
    20   21    7 1
    21   22    1 1
    22   23    8 1
    23   24    8 1
    24   25   12 1
    25   26   12 1
    26   27   13 1
    27   28   15 1
    28   29   16 1
    29   30   18 1
    30   31   19 1
    31   32   20 1
    32   33   20 1
    33   34   20 1
    34   35   21 1
    35   36   21 1
    36   37   21 1
    37   16   17 ar
    38   18   19 ar
@<TRIPOS>SUBSTRUCTURE
     1 RES1 1

@<TRIPOS>CRYSIN
  12.7190    7.4850    7.7280  93.1800 100.4000  99.2400   2 1

