# MOL2 file generated by ConQuest
# Please check atom types

@<TRIPOS>MOLECULE
KOHPUT
    19    20     1
SMALL
NO_CHARGES
****
Generated from CSD

@<TRIPOS>ATOM
      1 O1        12.0112    0.4654    6.0843 O.2       1 RES1    0.0000
      2 O2         8.6597    1.5512    7.4177 O.2       1 RES1    0.0000
      3 O3         8.3107    2.9306    9.0462 O.2       1 RES1    0.0000
      4 O4        12.0841    1.7378   12.2051 O.3       1 RES1    0.0000
      5 O5        13.7633    0.8012   10.9229 O.3       1 RES1    0.0000
      6 N1         9.0143    2.1301    8.4430 N.pl3     1 RES1    0.0000
      7 C1        11.3440    1.2886    8.1889 C.ar      1 RES1    0.0000
      8 C2        10.3263    1.8120    9.0082 C.ar      1 RES1    0.0000
      9 C3        10.4707    2.0069   10.3781 C.ar      1 RES1    0.0000
     10 H1         9.7839    2.4120   10.8951 H         1 RES1    0.0000
     11 C4        11.6860    1.6575   10.8834 C.ar      1 RES1    0.0000
     12 C5        12.7036    1.1152   10.1342 C.ar      1 RES1    0.0000
     13 C6        12.5564    0.9222    8.7818 C.ar      1 RES1    0.0000
     14 H2        13.3162    0.6181    8.2663 H         1 RES1    0.0000
     15 C7        11.2795    1.2087    6.6948 C.2       1 RES1    0.0000
     16 H3        10.5969    1.8203    6.1924 H         1 RES1    0.0000
     17 C8        13.4900    1.4141   12.2110 C.3       1 RES1    0.0000
     18 H4        13.5965    0.7764   12.8521 H         1 RES1    0.0000
     19 H5        13.9749    2.2650   12.3848 H         1 RES1    0.0000
@<TRIPOS>BOND
     1    1   15 2
     2    2    6 2
     3    3    6 2
     4    4   11 1
     5    5   12 1
     6    6    8 1
     7    7    8 ar
     8    8    9 ar
     9    9   10 1
    10   11    9 ar
    11   12   11 ar
    12   13    7 ar
    13   14   13 1
    14   15    7 1
    15   16   15 1
    16   17    4 1
    17   18   17 1
    18   19   17 1
    19    5   17 1
    20   12   13 ar
@<TRIPOS>SUBSTRUCTURE
     1 RES1 1

@<TRIPOS>CRYSIN
  14.0170    3.7688   14.6047  90.0000  90.0000  90.0000  33 1

