# MOL2 file generated by ConQuest
# Please check atom types

@<TRIPOS>MOLECULE
KOHQOO
   107   111     2
SMALL
NO_CHARGES
****
Generated from CSD

@<TRIPOS>ATOM
      1 O1        -5.3702    5.7919   -2.0955 O.2       1 RES1    0.0000
      2 O2        -5.2469    3.6734   -2.5086 O.2       1 RES1    0.0000
      3 O3         1.4048    5.7573   -0.8818 O.2       1 RES1    0.0000
      4 O4         1.5352    2.5651   -4.0374 O.2       1 RES1    0.0000
      5 N1        -4.7327    4.7550   -2.2539 N.pl3     1 RES1    0.0000
      6 N2         1.7831    4.4353   -2.6935 N.am      1 RES1    0.0000
      7 N3         0.7192    4.5538   -4.7551 N.am      1 RES1    0.0000
      8 H1         0.6996    5.3944   -4.5589 H         1 RES1    0.0000
      9 C1        -3.2579    4.8214   -2.1423 C.ar      1 RES1    0.0000
     10 C2        -2.5311    3.6583   -2.3084 C.ar      1 RES1    0.0000
     11 H2        -2.9635    2.8300   -2.4782 H         1 RES1    0.0000
     12 C3        -1.1534    3.7370   -2.2199 C.ar      1 RES1    0.0000
     13 H3        -0.6313    2.9515   -2.3285 H         1 RES1    0.0000
     14 C4        -0.5240    4.9514   -1.9739 C.ar      1 RES1    0.0000
     15 C5        -1.2904    6.0927   -1.7824 C.ar      1 RES1    0.0000
     16 H4        -0.8645    6.9162   -1.5786 H         1 RES1    0.0000
     17 C6        -2.6645    6.0443   -1.8845 C.ar      1 RES1    0.0000
     18 H5        -3.1898    6.8289   -1.7798 H         1 RES1    0.0000
     19 C7         0.9600    5.0861   -1.8105 C.2       1 RES1    0.0000
     20 C8         3.2559    4.5339   -2.5178 C.3       1 RES1    0.0000
     21 H6         3.4309    5.3100   -1.9117 H         1 RES1    0.0000
     22 C9         3.8574    3.2987   -1.8543 C.3       1 RES1    0.0000
     23 H7         3.6773    2.5037   -2.4154 H         1 RES1    0.0000
     24 H8         3.4268    3.1564   -0.9736 H         1 RES1    0.0000
     25 C10        5.3652    3.4571   -1.6647 C.3       1 RES1    0.0000
     26 H9         5.5398    4.1971   -1.0299 H         1 RES1    0.0000
     27 H10        5.7363    2.6261   -1.2761 H         1 RES1    0.0000
     28 C11        6.0558    3.7493   -2.9812 C.3       1 RES1    0.0000
     29 H11        5.9564    2.9723   -3.5869 H         1 RES1    0.0000
     30 H12        7.0223    3.8935   -2.8226 H         1 RES1    0.0000
     31 C12        5.4571    4.9855   -3.6370 C.3       1 RES1    0.0000
     32 H13        5.8944    5.1373   -4.5122 H         1 RES1    0.0000
     33 H14        5.6305    5.7768   -3.0672 H         1 RES1    0.0000
     34 C13        3.9523    4.8328   -3.8426 C.3       1 RES1    0.0000
     35 H15        3.7782    4.0956   -4.4800 H         1 RES1    0.0000
     36 H16        3.5853    5.6667   -4.2290 H         1 RES1    0.0000
     37 C14        1.3153    3.7655   -3.8787 C.2       1 RES1    0.0000
     38 C15        0.1712    4.0567   -6.0225 C.3       1 RES1    0.0000
     39 H17        0.5830    3.1640   -6.2051 H         1 RES1    0.0000
     40 C16       -1.3359    3.8670   -5.9509 C.3       1 RES1    0.0000
     41 H18       -1.7653    4.7265   -5.7111 H         1 RES1    0.0000
     42 H19       -1.5524    3.2095   -5.2428 H         1 RES1    0.0000
     43 C17       -1.8942    3.3755   -7.2884 C.3       1 RES1    0.0000
     44 H20       -1.5492    2.4667   -7.4748 H         1 RES1    0.0000
     45 H21       -2.8804    3.3224   -7.2334 H         1 RES1    0.0000
     46 C18       -1.5001    4.3081   -8.4191 C.3       1 RES1    0.0000
     47 H22       -1.8237    3.9391   -9.2787 H         1 RES1    0.0000
     48 H23       -1.9284    5.1904   -8.2842 H         1 RES1    0.0000
     49 C19        0.0063    4.4827   -8.4781 C.3       1 RES1    0.0000
     50 H24        0.2329    5.1259   -9.1967 H         1 RES1    0.0000
     51 H25        0.4277    3.6156   -8.6994 H         1 RES1    0.0000
     52 C20        0.5626    4.9903   -7.1512 C.3       1 RES1    0.0000
     53 H26        1.5484    5.0491   -7.2061 H         1 RES1    0.0000
     54 H27        0.2107    5.8972   -6.9679 H         1 RES1    0.0000
     55 O5        -4.9723    3.0169   -5.6583 O.2       2 RES2    0.0000
     56 O6        -4.4826    5.0870   -5.2618 O.2       2 RES2    0.0000
     57 O7       -11.0623    6.3504   -7.1087 O.2       2 RES2    0.0000
     58 O8       -11.7372    3.0832   -4.0724 O.2       2 RES2    0.0000
     59 N4        -5.2817    4.1924   -5.5104 N.pl3     2 RES2    0.0000
     60 N5       -11.7442    4.9803   -5.4136 N.am      2 RES2    0.0000
     61 N6       -10.7546    4.9903   -3.3143 N.am      2 RES2    0.0000
     62 H28      -10.6692    5.8365   -3.4244 H         2 RES2    0.0000
     63 C21       -6.7093    4.5539   -5.6453 C.ar      2 RES2    0.0000
     64 C22       -7.6148    3.5530   -5.9094 C.ar      2 RES2    0.0000
     65 H29       -7.3276    2.6517   -5.9959 H         2 RES2    0.0000
     66 C23       -8.9513    3.8831   -6.0469 C.ar      2 RES2    0.0000
     67 H30       -9.5927    3.2048   -6.2244 H         2 RES2    0.0000
     68 C24       -9.3564    5.2075   -5.9246 C.ar      2 RES2    0.0000
     69 C25       -8.4094    6.2027   -5.6689 C.ar      2 RES2    0.0000
     70 H31       -8.6837    7.1097   -5.6033 H         2 RES2    0.0000
     71 C26       -7.0761    5.8764   -5.5111 C.ar      2 RES2    0.0000
     72 H32       -6.4304    6.5452   -5.3152 H         2 RES2    0.0000
     73 C27      -10.7905    5.5908   -6.1874 C.2       2 RES2    0.0000
     74 C28      -13.1785    5.1108   -5.7502 C.3       2 RES2    0.0000
     75 H33      -13.2685    5.9010   -6.3548 H         2 RES2    0.0000
     76 C29      -14.0170    5.3925   -4.5114 C.3       2 RES2    0.0000
     77 H34      -13.7251    6.2492   -4.1083 H         2 RES2    0.0000
     78 H35      -13.8687    4.6753   -3.8460 H         2 RES2    0.0000
     79 C30      -15.5031    5.4713   -4.8450 C.3       2 RES2    0.0000
     80 H36      -16.0221    5.5918   -4.0102 H         2 RES2    0.0000
     81 H37      -15.6690    6.2559   -5.4263 H         2 RES2    0.0000
     82 C31      -15.9699    4.2085   -5.5540 C.3       2 RES2    0.0000
     83 H38      -16.9311    4.2892   -5.7771 H         2 RES2    0.0000
     84 H39      -15.8569    3.4296   -4.9532 H         2 RES2    0.0000
     85 C32      -15.1675    3.9884   -6.8306 C.3       2 RES2    0.0000
     86 H40      -15.4703    3.1554   -7.2704 H         2 RES2    0.0000
     87 H41      -15.3264    4.7408   -7.4539 H         2 RES2    0.0000
     88 C33      -13.6782    3.8907   -6.5234 C.3       2 RES2    0.0000
     89 H42      -13.1749    3.8129   -7.3718 H         2 RES2    0.0000
     90 H43      -13.5080    3.0739   -5.9911 H         2 RES2    0.0000
     91 C34      -11.3993    4.2550   -4.2105 C.2       2 RES2    0.0000
     92 C35      -10.2412    4.4353   -2.0524 C.3       2 RES2    0.0000
     93 C36      -10.8584    5.1914   -0.8770 C.3       2 RES2    0.0000
     94 H44      -10.6367    6.1534   -0.9462 H         2 RES2    0.0000
     95 H45      -11.8448    5.0994   -0.9028 H         2 RES2    0.0000
     96 C37      -10.3269    4.6364    0.4432 C.3       2 RES2    0.0000
     97 H46      -10.7094    5.1544    1.1956 H         2 RES2    0.0000
     98 H47      -10.6136    3.6943    0.5439 H         2 RES2    0.0000
     99 C38       -8.8114    4.7094    0.5006 C.3       2 RES2    0.0000
    100 H48       -8.4934    4.3100    1.3501 H         2 RES2    0.0000
    101 H49       -8.5263    5.6572    0.4812 H         2 RES2    0.0000
    102 C39       -8.1865    3.9675   -0.6736 C.3       2 RES2    0.0000
    103 H50       -8.3921    3.0018   -0.6002 H         2 RES2    0.0000
    104 H51       -7.2036    4.0738   -0.6453 H         2 RES2    0.0000
    105 C40       -8.7191    4.5017   -2.0067 C.3       2 RES2    0.0000
    106 H52       -8.4278    5.4400   -2.1258 H         2 RES2    0.0000
    107 H53       -8.3422    3.9666   -2.7501 H         2 RES2    0.0000
@<TRIPOS>BOND
     1    1    5 2
     2    2    5 2
     3    3   19 2
     4    4   37 2
     5    5    9 1
     6    6   19 1
     7    7    8 1
     8    9   10 ar
     9   10   11 1
    10   12   10 ar
    11   13   12 1
    12   14   12 ar
    13   15   14 ar
    14   16   15 1
    15   17    9 ar
    16   18   17 1
    17   19   14 1
    18   20    6 1
    19   21   20 1
    20   22   20 1
    21   23   22 1
    22   24   22 1
    23   25   22 1
    24   26   25 1
    25   27   25 1
    26   28   25 1
    27   29   28 1
    28   30   28 1
    29   31   28 1
    30   32   31 1
    31   33   31 1
    32   34   20 1
    33   35   34 1
    34   36   34 1
    35   37    6 1
    36   38    7 1
    37   39   38 1
    38   40   38 1
    39   41   40 1
    40   42   40 1
    41   43   40 1
    42   44   43 1
    43   45   43 1
    44   46   43 1
    45   47   46 1
    46   48   46 1
    47   49   46 1
    48   50   49 1
    49   51   49 1
    50   52   38 1
    51   53   52 1
    52   54   52 1
    53   55   59 2
    54   56   59 2
    55   57   73 2
    56   58   91 2
    57   59   63 1
    58   60   73 1
    59   61   62 1
    60   63   64 ar
    61   64   65 1
    62   66   64 ar
    63   67   66 1
    64   68   66 ar
    65   69   68 ar
    66   70   69 1
    67   71   63 ar
    68   72   71 1
    69   73   68 1
    70   74   60 1
    71   75   74 1
    72   76   74 1
    73   77   76 1
    74   78   76 1
    75   79   76 1
    76   80   79 1
    77   81   79 1
    78   82   79 1
    79   83   82 1
    80   84   82 1
    81   85   82 1
    82   86   85 1
    83   87   85 1
    84   88   74 1
    85   89   88 1
    86   90   88 1
    87   91   60 1
    88   92   61 1
    89   93   92 1
    90   94   93 1
    91   95   93 1
    92   96   93 1
    93   97   96 1
    94   98   96 1
    95   99   96 1
    96  100   99 1
    97  101   99 1
    98  102   99 1
    99  103  102 1
   100  104  102 1
   101  105   92 1
   102  106  105 1
   103  107  105 1
   104    7   37 1
   105   15   17 ar
   106   31   34 1
   107   49   52 1
   108   61   91 1
   109   69   71 ar
   110   85   88 1
   111  102  105 1
@<TRIPOS>SUBSTRUCTURE
     1 RES1 1
     2 RES2 55

@<TRIPOS>CRYSIN
  24.9660    9.4872   16.7156  90.0000 105.6980  90.0000  14 1

