# MOL2 file generated by ConQuest
# Please check atom types

@<TRIPOS>MOLECULE
KOHQEE
    30    30     1
SMALL
NO_CHARGES
****
Generated from CSD

@<TRIPOS>ATOM
      1 O1        12.2637   -0.4335   -2.8595 O.2       1 RES1    0.0000
      2 O2         9.6559    1.2504   -2.5112 O.2       1 RES1    0.0000
      3 O3        10.9336    1.3873   -0.7766 O.2       1 RES1    0.0000
      4 O4         8.0315    0.2879   -0.0005 O.3       1 RES1    0.0000
      5 O5         7.4955   -2.3108    1.0259 O.3       1 RES1    0.0000
      6 O6         6.1500   -3.1262   -0.5832 O.2       1 RES1    0.0000
      7 O7         8.8707   -4.3809    0.1425 O.3       1 RES1    0.0000
      8 N1        10.1849    0.7762   -1.5232 N.pl3     1 RES1    0.0000
      9 C1        10.6417   -1.6765   -1.6273 C.ar      1 RES1    0.0000
     10 C2         9.8686   -0.6196   -1.1720 C.ar      1 RES1    0.0000
     11 C3         8.7883   -0.8037   -0.3225 C.ar      1 RES1    0.0000
     12 C4         8.4991   -2.0971    0.0957 C.ar      1 RES1    0.0000
     13 C5         9.2636   -3.1832   -0.3466 C.ar      1 RES1    0.0000
     14 C6        10.3180   -2.9700   -1.2168 C.ar      1 RES1    0.0000
     15 H1        10.8478   -3.6680   -1.5426 H         1 RES1    0.0000
     16 C7        11.8251   -1.4989   -2.4972 C.2       1 RES1    0.0000
     17 H2        12.2813   -2.3621   -2.8047 H         1 RES1    0.0000
     18 C8         7.8991    0.6011    1.3646 C.3       1 RES1    0.0000
     19 H3         8.9119    0.5953    1.7152 H         1 RES1    0.0000
     20 H4         7.4490    1.4499    1.4347 H         1 RES1    0.0000
     21 H5         7.3959   -0.0672    1.8554 H         1 RES1    0.0000
     22 C9         6.3491   -2.9364    0.5674 C.2       1 RES1    0.0000
     23 C10        5.4727   -3.2695    1.7162 C.3       1 RES1    0.0000
     24 H6         5.9452   -3.9369    2.1898 H         1 RES1    0.0000
     25 H7         4.7874   -3.8217    1.4131 H         1 RES1    0.0000
     26 H8         5.4869   -2.6694    2.4055 H         1 RES1    0.0000
     27 C11        9.6647   -5.5261   -0.1920 C.3       1 RES1    0.0000
     28 H9         9.6574   -5.6749   -1.1327 H         1 RES1    0.0000
     29 H10       10.5578   -5.4252    0.1726 H         1 RES1    0.0000
     30 H11        9.2487   -6.2798    0.2265 H         1 RES1    0.0000
@<TRIPOS>BOND
     1    1   16 2
     2    2    8 2
     3    3    8 2
     4    4   11 1
     5    5   12 1
     6    6   22 2
     7    7   13 1
     8    8   10 1
     9    9   10 ar
    10   10   11 ar
    11   11   12 ar
    12   12   13 ar
    13   13   14 ar
    14   14    9 ar
    15   15   14 1
    16   16    9 1
    17   17   16 1
    18   18    4 1
    19   19   18 1
    20   20   18 1
    21   21   18 1
    22   22    5 1
    23   23   22 1
    24   24   23 1
    25   25   23 1
    26   26   23 1
    27   27    7 1
    28   28   27 1
    29   29   27 1
    30   30   27 1
@<TRIPOS>SUBSTRUCTURE
     1 RES1 1

@<TRIPOS>CRYSIN
  11.7974    9.6022   11.0234  90.0000 101.8820  90.0000  14 1

