# MOL2 file generated by ConQuest
# Please check atom types

@<TRIPOS>MOLECULE
KOHQAA
    21    21     1
SMALL
NO_CHARGES
****
Generated from CSD

@<TRIPOS>ATOM
      1 O1         1.9632    7.0094    8.4206 O.2       1 RES1    0.0000
      2 O2         4.3121    3.3578   12.5352 O.3       1 RES1    0.0000
      3 O3         4.1167    5.5128   14.1900 O.3       1 RES1    0.0000
      4 H1         4.0000    6.2459   14.6487 H         1 RES1    0.0000
      5 O4         4.2315    3.5577    8.9674 O.2       1 RES1    0.0000
      6 O5         2.8768    2.4499   10.2293 O.2       1 RES1    0.0000
      7 N1         3.4883    3.4575    9.9390 N.pl3     1 RES1    0.0000
      8 C1         2.8219    5.8257   10.2579 C.ar      1 RES1    0.0000
      9 C2         3.3344    4.6452   10.7960 C.ar      1 RES1    0.0000
     10 C3         3.7382    4.5113   12.1122 C.ar      1 RES1    0.0000
     11 C4         3.6350    5.6424   12.9389 C.ar      1 RES1    0.0000
     12 C5         3.0783    6.8108   12.4529 C.ar      1 RES1    0.0000
     13 H2         3.0250    7.5600   13.0817 H         1 RES1    0.0000
     14 C6         2.6764    6.9047   11.1384 C.ar      1 RES1    0.0000
     15 H3         2.3493    7.7042   10.8166 H         1 RES1    0.0000
     16 C7         2.4192    5.9780    8.8558 C.2       1 RES1    0.0000
     17 H4         2.5643    5.2347    8.3091 H         1 RES1    0.0000
     18 C8         3.6123    2.6735   13.5934 C.3       1 RES1    0.0000
     19 H5         3.1785    3.2311   14.2371 H         1 RES1    0.0000
     20 H6         4.1152    1.9473   13.8561 H         1 RES1    0.0000
     21 H7         2.8791    1.9906   13.1549 H         1 RES1    0.0000
@<TRIPOS>BOND
     1    1   16 2
     2    2   10 1
     3    3    4 1
     4    5    7 2
     5    6    7 2
     6    7    9 1
     7    8    9 ar
     8    9   10 ar
     9   10   11 ar
    10   11    3 1
    11   12   11 ar
    12   13   12 1
    13   14    8 ar
    14   15   14 1
    15   16    8 1
    16   17   16 1
    17   18    2 1
    18   19   18 1
    19   20   18 1
    20   21   18 1
    21   12   14 ar
@<TRIPOS>SUBSTRUCTURE
     1 RES1 1

@<TRIPOS>CRYSIN
   3.8388   14.4247   15.2432  90.0000  90.0000  90.0000  19 1

