# MOL2 file generated by ConQuest
# Please check atom types

@<TRIPOS>MOLECULE
KOJDEU
    39    41     1
SMALL
NO_CHARGES
****
Generated from CSD

@<TRIPOS>ATOM
      1 O1         1.8931    3.9396   13.9009 O.3       1 RES1    0.0000
      2 C1         2.3573    3.2224   14.9605 C.2       1 RES1    0.0000
      3 C2         2.4234    4.1004   16.1404 C.2       1 RES1    0.0000
      4 C3         2.0014    5.2949   15.7676 C.2       1 RES1    0.0000
      5 H1         1.9399    6.0494   16.3420 H         1 RES1    0.0000
      6 C4         1.6331    5.2973   14.3181 C.3       1 RES1    0.0000
      7 H2         2.2402    5.9185   13.8223 H         1 RES1    0.0000
      8 O2         2.6563    2.0597   14.8534 O.2       1 RES1    0.0000
      9 C5         2.9586    3.5971   17.4377 C.3       1 RES1    0.0000
     10 H3         2.8435    4.2844   18.1275 H         1 RES1    0.0000
     11 H4         3.9112    3.3894   17.3399 H         1 RES1    0.0000
     12 H5         2.4725    2.7877   17.6990 H         1 RES1    0.0000
     13 N1        -0.1858    5.8327   12.6177 N.3       1 RES1    0.0000
     14 C6         0.1747    5.6833   14.0417 C.3       1 RES1    0.0000
     15 H6        -0.0249    6.5418   14.5147 H         1 RES1    0.0000
     16 C7        -0.8420    4.6284   14.4883 C.3       1 RES1    0.0000
     17 H7        -1.6808    5.0560   14.7945 H         1 RES1    0.0000
     18 H8        -0.4763    4.0777   15.2250 H         1 RES1    0.0000
     19 C8        -1.0933    3.7658   13.2325 C.3       1 RES1    0.0000
     20 H9        -0.7321    2.8527   13.3620 H         1 RES1    0.0000
     21 H10       -2.0636    3.6989   13.0466 H         1 RES1    0.0000
     22 C9        -0.3729    4.4691   12.0770 C.3       1 RES1    0.0000
     23 H11        0.5195    4.0431   11.9316 H         1 RES1    0.0000
     24 O3         0.8863    6.4647   11.8959 O.3       1 RES1    0.0000
     25 C10        0.3756    7.6460   11.2884 C.3       1 RES1    0.0000
     26 H12       -0.3749    7.4141   10.7015 H         1 RES1    0.0000
     27 H13        1.0815    8.0742   10.7611 H         1 RES1    0.0000
     28 H14        0.0674    8.2636   11.9832 H         1 RES1    0.0000
     29 C11       -1.1286    4.5115   10.7702 C.ar      1 RES1    0.0000
     30 C12       -0.5810    3.9523    9.6254 C.ar      1 RES1    0.0000
     31 H15        0.2689    3.5301    9.6679 H         1 RES1    0.0000
     32 C13       -1.2654    4.0038    8.4190 C.ar      1 RES1    0.0000
     33 H16       -0.8813    3.6199    7.6383 H         1 RES1    0.0000
     34 C14       -2.5019    4.6111    8.3503 C.ar      1 RES1    0.0000
     35 H17       -2.9632    4.6567    7.5212 H         1 RES1    0.0000
     36 C15       -3.0718    5.1528    9.4866 C.ar      1 RES1    0.0000
     37 H18       -3.9295    5.5581    9.4397 H         1 RES1    0.0000
     38 C16       -2.3914    5.1069   10.6976 C.ar      1 RES1    0.0000
     39 H19       -2.7852    5.4802   11.4773 H         1 RES1    0.0000
@<TRIPOS>BOND
     1    1    2 1
     2    2    3 1
     3    3    4 2
     4    4    5 1
     5    6    1 1
     6    7    6 1
     7    8    2 2
     8    9    3 1
     9   10    9 1
    10   11    9 1
    11   12    9 1
    12   13   14 1
    13   14    6 1
    14   15   14 1
    15   16   14 1
    16   17   16 1
    17   18   16 1
    18   19   16 1
    19   20   19 1
    20   21   19 1
    21   22   13 1
    22   23   22 1
    23   24   13 1
    24   25   24 1
    25   26   25 1
    26   27   25 1
    27   28   25 1
    28   29   22 1
    29   30   29 ar
    30   31   30 1
    31   32   30 ar
    32   33   32 1
    33   34   32 ar
    34   35   34 1
    35   36   34 ar
    36   37   36 1
    37   38   29 ar
    38   39   38 1
    39    4    6 1
    40   19   22 1
    41   36   38 ar
@<TRIPOS>SUBSTRUCTURE
     1 RES1 1

@<TRIPOS>CRYSIN
   6.5427   10.8219   19.8397  90.0000  90.0000  90.0000  19 1

