# MOL2 file generated by ConQuest
# Please check atom types

@<TRIPOS>MOLECULE
KOJPOP
   113   116     3
SMALL
NO_CHARGES
****
Generated from CSD

@<TRIPOS>ATOM
      1 O1         0.0940   14.8205   15.4024 O.3       1 RES1    0.0000
      2 O2         1.4284   13.1742   14.6435 O.3       1 RES1    0.0000
      3 O3         0.0282   13.5312   11.3091 O.3       1 RES1    0.0000
      4 O4         0.1297   15.6211   13.2246 O.3       1 RES1    0.0000
      5 O5         2.2420   16.9488    8.6700 O.2       1 RES1    0.0000
      6 O6         4.1221   15.7845    8.6682 O.3       1 RES1    0.0000
      7 O7        -0.5642   18.0240   11.2309 O.2       1 RES1    0.0000
      8 O8         0.3055   18.7293   13.0388 O.2       1 RES1    0.0000
      9 O9        -1.0596   14.5022   28.1450 O.3       2 RES2    0.0000
     10 O10        0.4013   12.9243   27.4783 O.3       2 RES2    0.0000
     11 O11       -0.8042   13.0841   24.0558 O.3       2 RES2    0.0000
     12 O12       -1.0765   15.2245   25.9488 O.3       2 RES2    0.0000
     13 O13       -1.7087   17.7826   24.2526 O.2       2 RES2    0.0000
     14 O14       -0.7174   18.3319   26.0579 O.2       2 RES2    0.0000
     15 O15        1.0161   16.8616   21.5499 O.2       2 RES2    0.0000
     16 O16        0.8446   15.8702   21.1896 Du        3 SUP3    0.0000
     17 O17        2.9600   15.8120   21.5100 O.3       2 RES2    0.0000
     18 N1         0.3601   18.1117   12.0059 N.pl3     1 RES1    0.0000
     19 N2        -0.7389   17.8134   24.9788 N.pl3     2 RES2    0.0000
     20 C1        -0.2984   14.6064   14.0888 C.3       1 RES1    0.0000
     21 H1        -1.2708   14.4993   14.0357 H         1 RES1    0.0000
     22 C2         0.4033   13.3213   13.6673 C.3       1 RES1    0.0000
     23 H2        -0.2009   12.5502   13.6261 H         1 RES1    0.0000
     24 C3         1.0234   13.6686   12.3159 C.3       1 RES1    0.0000
     25 H3         1.8350   13.1545   12.1254 H         1 RES1    0.0000
     26 C4         1.2923   15.1577   12.5004 C.3       1 RES1    0.0000
     27 H4         2.0774   15.2613   13.0766 H         1 RES1    0.0000
     28 C5         1.4934   16.0033   11.2651 C.3       1 RES1    0.0000
     29 H5         0.7164   15.9008   10.6764 H         1 RES1    0.0000
     30 C6         2.7468   15.5244   10.5277 C.3       1 RES1    0.0000
     31 H6         3.5185   15.6850   11.0938 H         1 RES1    0.0000
     32 H7         2.6782   14.5667   10.3887 H         1 RES1    0.0000
     33 C7         2.9795   16.1823    9.2055 C.2       1 RES1    0.0000
     34 C8         4.5018   16.4011    7.3820 C.3       1 RES1    0.0000
     35 H8         3.8112   17.0283    7.1176 H         1 RES1    0.0000
     36 H9         5.3242   16.8998    7.5038 H         1 RES1    0.0000
     37 C9         4.6749   15.5305    6.4256 C.3       1 RES1    0.0000
     38 H10        4.4873   15.9451    5.5806 H         1 RES1    0.0000
     39 H11        4.0760   14.7900    6.5552 H         1 RES1    0.0000
     40 H12        5.5796   15.2169    6.4359 H         1 RES1    0.0000
     41 C10        1.6483   17.4659   11.6347 C.3       1 RES1    0.0000
     42 H13        2.2645   17.5393   12.3794 H         1 RES1    0.0000
     43 H14        2.0344   17.9417   10.8838 H         1 RES1    0.0000
     44 C11        0.9728   13.7986   15.8402 C.3       1 RES1    0.0000
     45 C12        2.1357   14.4565   16.5393 C.3       1 RES1    0.0000
     46 H15        1.8262   14.8834   17.3431 H         1 RES1    0.0000
     47 H16        2.5277   15.1128   15.9589 H         1 RES1    0.0000
     48 H17        2.7924   13.7925   16.7625 H         1 RES1    0.0000
     49 C13        0.2173   12.8118   16.6891 C.3       1 RES1    0.0000
     50 H18       -0.5242   12.4614   16.1896 H         1 RES1    0.0000
     51 H19       -0.1079   13.2524   17.4778 H         1 RES1    0.0000
     52 H20        0.8012   12.0927   16.9413 H         1 RES1    0.0000
     53 C14       -0.0817   12.2044   10.7747 C.3       1 RES1    0.0000
     54 H21       -0.9678   12.0851   10.3991 H         1 RES1    0.0000
     55 H22        0.0229   11.5618   11.4955 H         1 RES1    0.0000
     56 C15        0.9371   11.9244    9.7203 C.ar      1 RES1    0.0000
     57 C16        1.7250   10.8167    9.7550 C.ar      1 RES1    0.0000
     58 H23        1.6480   10.2247   10.4691 H         1 RES1    0.0000
     59 C17        2.6329   10.5551    8.7584 C.ar      1 RES1    0.0000
     60 H24        3.1641    9.7932    8.8102 H         1 RES1    0.0000
     61 C18        2.7613   11.3828    7.7190 C.ar      1 RES1    0.0000
     62 H25        3.3649   11.1901    7.0373 H         1 RES1    0.0000
     63 C19        1.9887   12.5226    7.6645 C.ar      1 RES1    0.0000
     64 H26        2.0854   13.1101    6.9491 H         1 RES1    0.0000
     65 C20        1.0762   12.8026    8.6568 C.ar      1 RES1    0.0000
     66 H27        0.5575   13.5737    8.6132 H         1 RES1    0.0000
     67 C21       -1.4229   14.2025   26.8295 C.3       2 RES2    0.0000
     68 H28       -2.3799   14.0006   26.7702 H         2 RES2    0.0000
     69 C22       -0.5846   12.9786   26.4519 C.3       2 RES2    0.0000
     70 H29       -1.1155   12.1570   26.3891 H         2 RES2    0.0000
     71 C23        0.0672   13.3611   25.1398 C.3       2 RES2    0.0000
     72 H30        0.9454   12.9403   25.0257 H         2 RES2    0.0000
     73 C24        0.1674   14.8671   25.3013 C.3       2 RES2    0.0000
     74 H31        0.9020   15.0608   25.9200 H         2 RES2    0.0000
     75 C25        0.3492   15.7264   24.0672 C.3       2 RES2    0.0000
     76 H32       -0.4386   15.6330   23.4913 H         2 RES2    0.0000
     77 C26        1.5834   15.2811   23.2971 C.3       2 RES2    0.0000
     78 H33        2.3628   15.4066   23.8619 H         2 RES2    0.0000
     79 H34        1.5072   14.3326   23.1103 H         2 RES2    0.0000
     80 C27        1.8035   16.0048   22.0092 C.2       2 RES2    0.0000
     81 C28        3.3247   16.6214   20.2876 C.3       2 RES2    0.0000
     82 H35        2.5279   17.0115   19.8962 H         2 RES2    0.0000
     83 H36        3.9300   17.3389   20.5312 H         2 RES2    0.0000
     84 C29        3.8702   15.8564   19.4789 C.3       2 RES2    0.0000
     85 H37        3.2201   15.2444   19.1264 H         2 RES2    0.0000
     86 H38        4.5649   15.3622   19.9221 H         2 RES2    0.0000
     87 H39        4.2515   16.3674   18.7609 H         2 RES2    0.0000
     88 C30        0.5055   17.1936   24.4682 C.3       2 RES2    0.0000
     89 H40        1.1899   17.2578   25.1528 H         2 RES2    0.0000
     90 H41        0.8113   17.6969   23.6961 H         2 RES2    0.0000
     91 C31       -0.1288   13.5645   28.6310 C.3       2 RES2    0.0000
     92 C32        0.9742   14.3234   29.2922 C.3       2 RES2    0.0000
     93 H42        1.2861   15.0134   28.7012 H         2 RES2    0.0000
     94 H43        1.6971   13.7252   29.4944 H         2 RES2    0.0000
     95 H44        0.6482   14.7196   30.1035 H         2 RES2    0.0000
     96 C33       -0.8292   12.5884   29.5353 C.3       2 RES2    0.0000
     97 H45       -0.1964   11.9458   29.8650 H         2 RES2    0.0000
     98 H46       -1.5189   12.1356   29.0433 H         2 RES2    0.0000
     99 H47       -1.2193   13.0597   30.2745 H         2 RES2    0.0000
    100 C34       -0.7354   11.7332   23.6051 C.3       2 RES2    0.0000
    101 H48       -0.9548   11.1350   24.3363 H         2 RES2    0.0000
    102 H49        0.1672   11.5328   23.3098 H         2 RES2    0.0000
    103 C35       -1.6782   11.5205   22.4903 C.ar      2 RES2    0.0000
    104 C36       -2.5551   10.4694   22.4814 C.ar      2 RES2    0.0000
    105 H50       -2.5671    9.8697   23.1906 H         2 RES2    0.0000
    106 C37       -3.4241   10.2981   21.4151 C.ar      2 RES2    0.0000
    107 H51       -4.0322    9.5943   21.4358 H         2 RES2    0.0000
    108 C38       -3.4099   11.1120   20.3679 C.ar      2 RES2    0.0000
    109 H52       -3.9909   10.9789   19.6551 H         2 RES2    0.0000
    110 C39       -2.5510   12.1187   20.3627 C.ar      2 RES2    0.0000
    111 H53       -2.5134   12.6802   19.6214 H         2 RES2    0.0000
    112 C40       -1.7179   12.3543   21.4203 C.ar      2 RES2    0.0000
    113 H54       -1.1657   13.1010   21.4073 H         2 RES2    0.0000
@<TRIPOS>BOND
     1    1   20 1
     2    2   22 1
     3    3   24 1
     4    4   20 1
     5    5   33 2
     6    6   33 1
     7    7   18 2
     8    8   18 2
     9    9   67 1
    10   10   69 1
    11   11   71 1
    12   12   67 1
    13   13   19 2
    14   14   19 2
    15   15   80 2
    16   17   80 1
    17   18   41 1
    18   19   88 1
    19   20   21 1
    20   22   20 1
    21   23   22 1
    22   24   22 1
    23   25   24 1
    24   26    4 1
    25   27   26 1
    26   28   26 1
    27   29   28 1
    28   30   28 1
    29   31   30 1
    30   32   30 1
    31   33   30 1
    32   34    6 1
    33   35   34 1
    34   36   34 1
    35   37   34 1
    36   38   37 1
    37   39   37 1
    38   40   37 1
    39   41   28 1
    40   42   41 1
    41   43   41 1
    42   44    1 1
    43   45   44 1
    44   46   45 1
    45   47   45 1
    46   48   45 1
    47   49   44 1
    48   50   49 1
    49   51   49 1
    50   52   49 1
    51   53    3 1
    52   54   53 1
    53   55   53 1
    54   56   53 1
    55   57   56 ar
    56   58   57 1
    57   59   57 ar
    58   60   59 1
    59   61   59 ar
    60   62   61 1
    61   63   61 ar
    62   64   63 1
    63   65   56 ar
    64   66   65 1
    65   67   68 1
    66   69   67 1
    67   70   69 1
    68   71   69 1
    69   72   71 1
    70   73   12 1
    71   74   73 1
    72   75   73 1
    73   76   75 1
    74   77   75 1
    75   78   77 1
    76   79   77 1
    77   80   77 1
    78   81   17 1
    79   82   81 1
    80   83   81 1
    81   84   81 1
    82   85   84 1
    83   86   84 1
    84   87   84 1
    85   88   75 1
    86   89   88 1
    87   90   88 1
    88   91    9 1
    89   92   91 1
    90   93   92 1
    91   94   92 1
    92   95   92 1
    93   96   91 1
    94   97   96 1
    95   98   96 1
    96   99   96 1
    97  100   11 1
    98  101  100 1
    99  102  100 1
   100  103  100 1
   101  104  103 ar
   102  105  104 1
   103  106  104 ar
   104  107  106 1
   105  108  106 ar
   106  109  108 1
   107  110  108 ar
   108  111  110 1
   109  112  103 ar
   110  113  112 1
   111    2   44 1
   112   10   91 1
   113   24   26 1
   114   63   65 ar
   115   71   73 1
   116  110  112 ar
@<TRIPOS>SUBSTRUCTURE
     1 RES1 1
     2 RES2 9
     3 SUP3 16

@<TRIPOS>CRYSIN
   5.4682   15.2995   26.0047  90.0000  94.6260  90.0000   4 1

