# MOL2 file generated by ConQuest
# Please check atom types

@<TRIPOS>MOLECULE
KOJWEL
    30    32     2
SMALL
NO_CHARGES
****
Generated from CSD

@<TRIPOS>ATOM
      1 C1        -0.6340   11.3347    4.4420 C.3       1 RES1    0.0000
      2 C2         0.4261   11.4669    3.3867 C.3       1 RES1    0.0000
      3 C3         0.5404   10.1655    2.4980 C.3       1 RES1    0.0000
      4 C4         0.8888    9.0823    3.4887 C.2       1 RES1    0.0000
      5 C5        -0.1371    8.7768    4.5422 C.3       1 RES1    0.0000
      6 C6        -0.8865    9.9803    5.0707 C.3       1 RES1    0.0000
      7 C7        -0.2456   11.0609    5.8694 C.3       1 RES1    0.0000
      8 C8         1.2349   10.9630    6.2432 C.3       1 RES1    0.0000
      9 C9        -1.1310   11.7116    6.9399 C.3       1 RES1    0.0000
     10 C10        1.6839   10.3758    1.4597 C.3       1 RES1    0.0000
     11 C11       -1.3457   10.9617    1.0502 C.3       1 RES1    0.0000
     12 C12       -0.7448    8.5665    1.1691 C.3       1 RES1    0.0000
     13 N1         2.0940    8.6035    3.4717 N.2       1 RES1    0.0000
     14 N2        -0.7483    9.8335    1.9355 N.3       1 RES1    0.0000
     15 O1         2.3111    7.6420    4.5082 O.3       1 RES1    0.0000
     16 C13       -6.2981    5.6859    2.8888 C.3       2 RES2    0.0000
     17 C14       -5.2596    5.6277    4.0239 C.3       2 RES2    0.0000
     18 C15       -5.1237    6.9701    4.7835 C.3       2 RES2    0.0000
     19 C16       -4.7958    8.0057    3.7690 C.2       2 RES2    0.0000
     20 C17       -5.8022    8.3178    2.6747 C.3       2 RES2    0.0000
     21 C18       -6.5288    7.0481    2.1870 C.3       2 RES2    0.0000
     22 C19       -5.7840    5.9239    1.4580 C.3       2 RES2    0.0000
     23 C20       -4.3423    6.0377    1.1283 C.3       2 RES2    0.0000
     24 C21       -6.6111    5.2190    0.3433 C.3       2 RES2    0.0000
     25 C22       -4.0155    6.8683    5.8660 C.3       2 RES2    0.0000
     26 C23       -6.4317    8.6260    6.0478 C.3       2 RES2    0.0000
     27 C24       -6.9698    6.3908    6.3962 C.3       2 RES2    0.0000
     28 N3        -3.6842    8.5850    3.8574 N.2       2 RES2    0.0000
     29 N4        -6.4717    7.3365    5.4038 N.3       2 RES2    0.0000
     30 O2        -3.4512    9.4751    2.8157 O.3       2 RES2    0.0000
@<TRIPOS>BOND
     1    1    2 1
     2    2    3 1
     3    3    4 1
     4    4    5 1
     5    5    6 1
     6    6    1 1
     7    7    1 1
     8    8    7 1
     9    9    7 1
    10   10    3 1
    11   11   14 1
    12   12   14 1
    13   13    4 2
    14   14    3 1
    15   15   13 1
    16   16   17 1
    17   17   18 1
    18   18   19 1
    19   19   20 1
    20   20   21 1
    21   21   16 1
    22   22   16 1
    23   23   22 1
    24   24   22 1
    25   25   18 1
    26   26   29 1
    27   27   29 1
    28   28   19 2
    29   29   18 1
    30   30   28 1
    31    6    7 1
    32   21   22 1
@<TRIPOS>SUBSTRUCTURE
     1 RES1 1
     2 RES2 16

@<TRIPOS>CRYSIN
  11.4240   13.2260   16.9930  90.0000  90.0000  90.0000  19 1

