# MOL2 file generated by ConQuest
# Please check atom types

@<TRIPOS>MOLECULE
KOJWEL10
    74    74     3
SMALL
NO_CHARGES
****
Generated from CSD

@<TRIPOS>ATOM
      1 C1        -0.6293   11.3334    4.4604 C.3       1 RES1    0.0000
      2 H1        -1.2163   12.1004    3.9761 H         1 RES1    0.0000
      3 C2         0.4112   11.4577    3.3610 C.3       1 RES1    0.0000
      4 H2         0.1279   12.2749    2.7136 H         1 RES1    0.0000
      5 H3         1.3660   11.6746    3.8181 H         1 RES1    0.0000
      6 C3         0.5585   10.1923    2.5080 C.3       1 RES1    0.0000
      7 C4         0.9045    9.0921    3.5275 C.2       1 RES1    0.0000
      8 C5        -0.1233    8.7589    4.5624 C.3       1 RES1    0.0000
      9 H4        -0.8303    8.0647    4.1342 H         1 RES1    0.0000
     10 H5         0.3735    8.2961    5.4018 H         1 RES1    0.0000
     11 C6        -0.8851    9.9754    5.0653 C.3       1 RES1    0.0000
     12 H6        -1.7383    9.3301    5.2080 H         1 RES1    0.0000
     13 C7        -0.2570   11.0597    5.8860 C.3       1 RES1    0.0000
     14 C8         1.2129   10.9473    6.2734 C.3       1 RES1    0.0000
     15 H7         1.7657   10.5017    5.4595 H         1 RES1    0.0000
     16 H8         1.3043   10.3258    7.1519 H         1 RES1    0.0000
     17 H9         1.6104   11.9285    6.4841 H         1 RES1    0.0000
     18 C9        -1.1444   11.6759    6.9514 C.3       1 RES1    0.0000
     19 H10       -0.5950   12.4415    7.4799 H         1 RES1    0.0000
     20 H11       -1.4528   10.9103    7.6481 H         1 RES1    0.0000
     21 H12       -2.0158   12.1136    6.4875 H         1 RES1    0.0000
     22 C10        1.6869   10.3920    1.4851 C.3       1 RES1    0.0000
     23 H13        1.7908    9.4941    0.8836 H         1 RES1    0.0000
     24 H14        2.6131   10.5850    2.0051 H         1 RES1    0.0000
     25 H15        1.4505   11.2316    0.8479 H         1 RES1    0.0000
     26 C11       -1.3031   10.9090    1.0484 C.3       1 RES1    0.0000
     27 H16       -1.3271   11.8359    1.6006 H         1 RES1    0.0000
     28 H17       -2.3059   10.6419    0.7493 H         1 RES1    0.0000
     29 H18       -0.6864   11.0306    0.1699 H         1 RES1    0.0000
     30 C12       -0.7195    8.6161    1.1402 C.3       1 RES1    0.0000
     31 H19       -0.3095    7.8346    1.7587 H         1 RES1    0.0000
     32 H20       -0.1028    8.7404    0.2617 H         1 RES1    0.0000
     33 H21       -1.7223    8.3503    0.8411 H         1 RES1    0.0000
     34 N1         2.0763    8.5963    3.4460 N.2       1 RES1    0.0000
     35 N2        -0.7481    9.8538    1.8895 N.3       1 RES1    0.0000
     36 O1         2.3173    7.6561    4.4706 O.3       1 RES1    0.0000
     37 C13       -6.2690    5.7057    2.8886 C.3       2 RES2    0.0000
     38 H22       -6.8686    4.9573    3.3848 H         2 RES2    0.0000
     39 C14       -5.2891    5.6515    4.0288 C.3       2 RES2    0.0000
     40 H23       -5.6180    4.8899    4.7204 H         2 RES2    0.0000
     41 H24       -4.3206    5.3831    3.6329 H         2 RES2    0.0000
     42 C15       -5.1463    6.9831    4.8053 C.3       2 RES2    0.0000
     43 C16       -4.8082    8.0250    3.7705 C.2       2 RES2    0.0000
     44 C17       -5.8270    8.2736    2.6626 C.3       2 RES2    0.0000
     45 H25       -5.3130    8.7179    1.8232 H         2 RES2    0.0000
     46 H26       -6.5716    8.9612    3.0348 H         2 RES2    0.0000
     47 C18       -6.5271    7.0254    2.1852 C.3       2 RES2    0.0000
     48 H27       -7.3928    7.6270    1.9558 H         2 RES2    0.0000
     49 C19       -5.8099    5.9265    1.4545 C.3       2 RES2    0.0000
     50 C20       -4.3308    6.0667    1.1317 C.3       2 RES2    0.0000
     51 H28       -3.8375    6.6022    1.9303 H         2 RES2    0.0000
     52 H29       -4.2143    6.6115    0.2073 H         2 RES2    0.0000
     53 H30       -3.8900    5.0856    1.0314 H         2 RES2    0.0000
     54 C21       -6.5739    5.1794    0.3704 C.3       2 RES2    0.0000
     55 H31       -7.6155    5.1067    0.6474 H         2 RES2    0.0000
     56 H32       -6.1616    4.1877    0.2583 H         2 RES2    0.0000
     57 H33       -6.4860    5.7123   -0.5658 H         2 RES2    0.0000
     58 C22       -4.0316    6.8284    5.8537 C.3       2 RES2    0.0000
     59 H34       -3.9208    7.7526    6.4026 H         2 RES2    0.0000
     60 H35       -3.1008    6.5917    5.3576 H         2 RES2    0.0000
     61 H36       -4.2886    6.0337    6.5368 H         2 RES2    0.0000
     62 C23       -6.4117    8.6968    6.0695 C.3       2 RES2    0.0000
     63 H37       -6.0086    9.4320    5.3865 H         2 RES2    0.0000
     64 H38       -5.7836    8.6359    6.9446 H         2 RES2    0.0000
     65 H39       -7.4099    8.9877    6.3618 H         2 RES2    0.0000
     66 C24       -7.0045    6.4013    6.3754 C.3       2 RES2    0.0000
     67 H40       -7.0490    5.4267    5.8792 H         2 RES2    0.0000
     68 H41       -7.9993    6.7107    6.6320 H         2 RES2    0.0000
     69 H42       -6.3718    6.3563    7.2165 H         2 RES2    0.0000
     70 N3        -3.6719    8.5817    3.8504 N.2       2 RES2    0.0000
     71 N4        -6.4574    7.3652    5.3950 N.3       2 RES2    0.0000
     72 O2        -3.4400    9.5087    2.8054 O.3       2 RES2    0.0000
     73 H43        3.2493    7.4816    4.5097 Du        3 SUP3    0.0000
     74 H44       -8.9301   16.1479    5.7620 Du        3 SUP3    0.0000
@<TRIPOS>BOND
     1    1    2 1
     2    3    1 1
     3    4    3 1
     4    5    3 1
     5    6    3 1
     6    7    6 1
     7    8    7 1
     8    9    8 1
     9   10    8 1
    10   11    1 1
    11   12   11 1
    12   13    1 1
    13   14   13 1
    14   15   14 1
    15   16   14 1
    16   17   14 1
    17   18   13 1
    18   19   18 1
    19   20   18 1
    20   21   18 1
    21   22    6 1
    22   23   22 1
    23   24   22 1
    24   25   22 1
    25   26   27 1
    26   28   26 1
    27   29   26 1
    28   30   31 1
    29   32   30 1
    30   33   30 1
    31   34    7 2
    32   35    6 1
    33   36   34 1
    34   37   38 1
    35   39   37 1
    36   40   39 1
    37   41   39 1
    38   42   39 1
    39   43   42 1
    40   44   43 1
    41   45   44 1
    42   46   44 1
    43   47   37 1
    44   48   47 1
    45   49   37 1
    46   50   49 1
    47   51   50 1
    48   52   50 1
    49   53   50 1
    50   54   49 1
    51   55   54 1
    52   56   54 1
    53   57   54 1
    54   58   42 1
    55   59   58 1
    56   60   58 1
    57   61   58 1
    58   62   63 1
    59   64   62 1
    60   65   62 1
    61   66   67 1
    62   68   66 1
    63   69   66 1
    64   70   43 2
    65   71   42 1
    66   72   70 1
    67    8   11 1
    68   11   13 1
    69   26   35 1
    70   30   35 1
    71   44   47 1
    72   47   49 1
    73   62   71 1
    74   66   71 1
@<TRIPOS>SUBSTRUCTURE
     1 RES1 1
     2 RES2 37
     3 SUP3 73

@<TRIPOS>CRYSIN
  11.4210   13.2230   16.9920  90.0000  90.0000  90.0000  19 1

