# MOL2 file generated by ConQuest
# Please check atom types

@<TRIPOS>MOLECULE
KOKBET
    19    19     1
SMALL
NO_CHARGES
****
Generated from CSD

@<TRIPOS>ATOM
      1 C1        -0.1027    5.3649    6.2947 C.ar      1 RES1    0.0000
      2 C2         0.3386    6.1844    5.2477 C.ar      1 RES1    0.0000
      3 C3         0.2321    7.5545    5.4508 C.ar      1 RES1    0.0000
      4 C4        -0.2092    8.1195    6.6417 C.ar      1 RES1    0.0000
      5 H1        -0.2321    9.0623    6.7541 H         1 RES1    0.0000
      6 C5        -0.6049    7.2844    7.6455 C.ar      1 RES1    0.0000
      7 H2        -0.9187    7.6506    8.4635 H         1 RES1    0.0000
      8 C6        -0.5592    5.9208    7.4842 C.ar      1 RES1    0.0000
      9 H3        -0.8411    5.3532    8.1913 H         1 RES1    0.0000
     10 C7         0.9168    5.5766    4.0006 C.3       1 RES1    0.0000
     11 H4         1.3479    6.2766    3.4663 H         1 RES1    0.0000
     12 H5         0.2031    5.1584    3.4778 H         1 RES1    0.0000
     13 H6         1.5826    4.9000    4.2469 H         1 RES1    0.0000
     14 N1        -0.0038    3.9740    6.1665 N.3       1 RES1    0.0000
     15 N2         0.5440    8.5013    4.3909 N.pl3     1 RES1    0.0000
     16 O1         0.1408    8.2454    3.2561 O.2       1 RES1    0.0000
     17 O2         1.1797    9.5182    4.6861 O.2       1 RES1    0.0000
     18 H7        -0.4565    3.5455    6.7685 H         1 RES1    0.0000
     19 H8         0.0000    3.6104    5.3572 H         1 RES1    0.0000
@<TRIPOS>BOND
     1    1    2 ar
     2    2    3 ar
     3    3    4 ar
     4    4    5 1
     5    6    4 ar
     6    7    6 1
     7    8    1 ar
     8    9    8 1
     9   10    2 1
    10   11   10 1
    11   12   10 1
    12   13   10 1
    13   14    1 1
    14   15    3 1
    15   16   15 2
    16   17   15 2
    17   18   14 1
    18   19   14 1
    19    6    8 ar
@<TRIPOS>SUBSTRUCTURE
     1 RES1 1

@<TRIPOS>CRYSIN
   3.8043   12.9870   14.4010  90.0000  90.0000  90.0000  19 1

