# MOL2 file generated by ConQuest
# Please check atom types

@<TRIPOS>MOLECULE
KOKCOC
    39    42     1
SMALL
NO_CHARGES
****
Generated from CSD

@<TRIPOS>ATOM
      1 C1         5.1693    5.6713    9.4131 C.ar      1 RES1    0.0000
      2 C2         4.8829    4.3056    9.3376 C.ar      1 RES1    0.0000
      3 C3         5.3130    3.5891    8.2661 C.ar      1 RES1    0.0000
      4 C4         6.0601    4.1872    7.2392 C.ar      1 RES1    0.0000
      5 C5         6.5035    3.4532    6.1084 C.ar      1 RES1    0.0000
      6 C6         7.2352    4.0464    5.1383 C.ar      1 RES1    0.0000
      7 C7         7.5806    5.3949    5.2534 C.ar      1 RES1    0.0000
      8 C8         7.1655    6.1545    6.3261 C.ar      1 RES1    0.0000
      9 C9         7.5229    7.5457    6.4498 C.2       1 RES1    0.0000
     10 C10        7.1032    8.2915    7.4681 C.2       1 RES1    0.0000
     11 C11        6.2286    7.7823    8.5136 C.2       1 RES1    0.0000
     12 C12        5.9134    6.3292    8.4530 C.ar      1 RES1    0.0000
     13 C13        6.3827    5.5618    7.3481 C.ar      1 RES1    0.0000
     14 C14        4.1999    5.8114   11.5771 C.ar      1 RES1    0.0000
     15 C15        5.0544    5.3535   12.5792 C.ar      1 RES1    0.0000
     16 C16        4.5696    4.8095   13.7485 C.ar      1 RES1    0.0000
     17 C17        3.2158    4.7426   13.9217 C.ar      1 RES1    0.0000
     18 C18        2.3225    5.1357   12.9529 C.ar      1 RES1    0.0000
     19 C19        2.8510    5.6619   11.7985 C.ar      1 RES1    0.0000
     20 O1         4.6348    6.4267   10.4450 O.3       1 RES1    0.0000
     21 O2         5.7662    8.5267    9.3698 O.2       1 RES1    0.0000
     22 O3         6.9958    6.3770   11.8629 O.2       1 RES1    0.0000
     23 O4         7.1575    4.5123   12.8960 O.2       1 RES1    0.0000
     24 O5         1.4883    4.3158   15.3717 O.2       1 RES1    0.0000
     25 O6         3.4797    3.8767   16.0374 O.2       1 RES1    0.0000
     26 O7         1.2252    5.2117   10.2433 O.2       1 RES1    0.0000
     27 O8         1.8664    7.2409   10.4474 O.2       1 RES1    0.0000
     28 N1         6.5084    5.4293   12.4332 N.pl3     1 RES1    0.0000
     29 N2         2.6875    4.2702   15.2047 N.pl3     1 RES1    0.0000
     30 N3         1.9083    6.0762   10.7431 N.pl3     1 RES1    0.0000
     31 H1         4.2657    3.9076   10.0466 H         1 RES1    0.0000
     32 H2         5.0807    2.6135    8.1907 H         1 RES1    0.0000
     33 H3         6.2591    2.4814    6.0378 H         1 RES1    0.0000
     34 H4         7.5825    3.4767    4.3675 H         1 RES1    0.0000
     35 H5         8.1883    5.8128    4.6026 H         1 RES1    0.0000
     36 H6         8.0994    7.9127    5.7409 H         1 RES1    0.0000
     37 H7         7.3737    9.2067    7.5968 H         1 RES1    0.0000
     38 H8         5.1592    4.5122   14.4017 H         1 RES1    0.0000
     39 H9         1.3209    5.0551   13.0779 H         1 RES1    0.0000
@<TRIPOS>BOND
     1    1    2 ar
     2    2    3 ar
     3    3    4 ar
     4    4    5 ar
     5    5    6 ar
     6    6    7 ar
     7    7    8 ar
     8    8    9 1
     9    9   10 2
    10   10   11 1
    11   11   12 1
    12   12    1 ar
    13   13    4 ar
    14   14   15 ar
    15   15   16 ar
    16   16   17 ar
    17   17   18 ar
    18   18   19 ar
    19   19   14 ar
    20   20    1 1
    21   21   11 2
    22   22   28 2
    23   23   28 2
    24   24   29 2
    25   25   29 2
    26   26   30 2
    27   27   30 2
    28   28   15 1
    29   29   17 1
    30   30   19 1
    31   31    2 1
    32   32    3 1
    33   33    5 1
    34   34    6 1
    35   35    7 1
    36   36    9 1
    37   37   10 1
    38   38   16 1
    39   39   18 1
    40    8   13 ar
    41   12   13 ar
    42   14   20 1
@<TRIPOS>SUBSTRUCTURE
     1 RES1 1

@<TRIPOS>CRYSIN
   8.1230    8.3880   12.9590  75.1500  81.2700  89.8000   2 1

