# MOL2 file generated by ConQuest
# Please check atom types

@<TRIPOS>MOLECULE
KOKCOD
    62    66     2
SMALL
NO_CHARGES
****
Generated from CSD

@<TRIPOS>ATOM
      1 O1         0.2799    8.8210    6.5920 O.3       1 RES1    0.0000
      2 O2        -0.0724   10.9796    7.1165 O.2       1 RES1    0.0000
      3 O3         2.8584   10.6565    7.5385 O.2       1 RES1    0.0000
      4 O4         4.5306    9.7518    6.5413 O.2       1 RES1    0.0000
      5 N1         2.7257   12.4008    1.4406 N.ar      1 RES1    0.0000
      6 N2         3.4441   10.2948    6.5325 N.pl3     1 RES1    0.0000
      7 C1         0.1394    8.4821    9.0161 C.3       1 RES1    0.0000
      8 H1         0.9529    7.9747    8.9667 H         1 RES1    0.0000
      9 H2        -0.4215    8.1206    9.7060 H         1 RES1    0.0000
     10 H3         0.3456    9.3980    9.2179 H         1 RES1    0.0000
     11 C2        -0.5756    8.4091    7.7009 C.3       1 RES1    0.0000
     12 H4        -0.8772    7.4987    7.5505 H         1 RES1    0.0000
     13 H5        -1.3577    8.9815    7.7307 H         1 RES1    0.0000
     14 C3         0.4332   10.1385    6.4257 C.2       1 RES1    0.0000
     15 C4         1.2650   10.3996    5.2043 C.3       1 RES1    0.0000
     16 H6         0.8913   10.0329    4.3748 H         1 RES1    0.0000
     17 C5         1.9109   11.7338    5.0505 C.3       1 RES1    0.0000
     18 H7         1.8565   12.3227    5.8321 H         1 RES1    0.0000
     19 C6         1.9673   12.4189    3.7340 C.ar      1 RES1    0.0000
     20 C7         2.6693   11.8461    2.6689 C.ar      1 RES1    0.0000
     21 C8         2.0780   13.5525    1.2716 C.ar      1 RES1    0.0000
     22 H8         2.1006   13.9453    0.4285 H         1 RES1    0.0000
     23 C9         1.3242   13.6291    3.5208 C.ar      1 RES1    0.0000
     24 H9         0.8653   14.0495    4.2130 H         1 RES1    0.0000
     25 C10        1.3759   14.1999    2.2659 C.ar      1 RES1    0.0000
     26 H10        0.9457   15.0062    2.0945 H         1 RES1    0.0000
     27 C11        3.4496   10.6332    2.8864 C.2       1 RES1    0.0000
     28 H11        3.9004   10.2641    2.1611 H         1 RES1    0.0000
     29 C12        3.5515   10.0270    4.0650 C.2       1 RES1    0.0000
     30 H12        4.1203    9.2968    4.1563 H         1 RES1    0.0000
     31 C13        2.7825   10.4900    5.2219 C.3       1 RES1    0.0000
     32 O5         6.9099   12.6751   16.6059 O.3       2 RES2    0.0000
     33 O6         7.2482   10.7536   15.4843 O.2       2 RES2    0.0000
     34 O7         2.6780   12.3985   15.8633 O.2       2 RES2    0.0000
     35 O8         4.2409   10.9191   16.0008 O.2       2 RES2    0.0000
     36 N3         4.6437   13.6514   10.3139 N.ar      2 RES2    0.0000
     37 N4         3.7382   11.9190   15.5065 N.pl3     2 RES2    0.0000
     38 C14        7.1464   11.2776   18.6161 C.3       2 RES2    0.0000
     39 H13        6.3658   11.6877   18.9948 H         2 RES2    0.0000
     40 H14        7.7595   11.0461   19.3183 H         2 RES2    0.0000
     41 H15        6.8919   10.4835   18.1391 H         2 RES2    0.0000
     42 C15        7.8075   12.2371   17.6721 C.3       2 RES2    0.0000
     43 H16        8.1127   13.0125   18.1689 H         2 RES2    0.0000
     44 H17        8.5844   11.8103   17.2778 H         2 RES2    0.0000
     45 C16        6.7659   11.8501   15.5685 C.2       2 RES2    0.0000
     46 C17        5.9920   12.5318   14.4777 C.3       2 RES2    0.0000
     47 H18        6.4422   13.3169   14.1021 H         2 RES2    0.0000
     48 C18        5.2756   11.7020   13.4664 C.3       2 RES2    0.0000
     49 H19        5.2355   10.7418   13.6565 H         2 RES2    0.0000
     50 C19        5.2703   12.0737   12.0315 C.ar      2 RES2    0.0000
     51 C20        4.6606   13.2591   11.6052 C.ar      2 RES2    0.0000
     52 C21        5.2473   12.8541    9.4316 C.ar      2 RES2    0.0000
     53 H20        5.2504   13.1135    8.5382 H         2 RES2    0.0000
     54 C22        4.4740   12.5982   14.4108 C.3       2 RES2    0.0000
     55 C23        3.8155   13.7854   13.8546 C.2       2 RES2    0.0000
     56 H21        3.2977   14.3256   14.4072 H         2 RES2    0.0000
     57 C24        3.9517   14.0981   12.5643 C.2       2 RES2    0.0000
     58 H22        3.5750   14.8923   12.2616 H         2 RES2    0.0000
     59 C25        5.8675   11.6668    9.7637 C.ar      2 RES2    0.0000
     60 H23        6.2781   11.1490    9.1100 H         2 RES2    0.0000
     61 C26        5.8689   11.2623   11.0800 C.ar      2 RES2    0.0000
     62 H24        6.2649   10.4582   11.3265 H         2 RES2    0.0000
@<TRIPOS>BOND
     1    1   11 1
     2    2   14 2
     3    3    6 2
     4    4    6 2
     5    5   20 ar
     6    6   31 1
     7    7    8 1
     8    9    7 1
     9   10    7 1
    10   11    7 1
    11   12   11 1
    12   13   11 1
    13   14    1 1
    14   15   14 1
    15   16   15 1
    16   17   15 1
    17   18   17 1
    18   19   17 1
    19   20   19 ar
    20   21    5 ar
    21   22   21 1
    22   23   19 ar
    23   24   23 1
    24   25   21 ar
    25   26   25 1
    26   27   20 1
    27   28   27 1
    28   29   27 2
    29   30   29 1
    30   31   15 1
    31   32   42 1
    32   33   45 2
    33   34   37 2
    34   35   37 2
    35   36   51 ar
    36   37   54 1
    37   38   39 1
    38   40   38 1
    39   41   38 1
    40   42   38 1
    41   43   42 1
    42   44   42 1
    43   45   32 1
    44   46   45 1
    45   47   46 1
    46   48   46 1
    47   49   48 1
    48   50   48 1
    49   51   50 ar
    50   52   36 ar
    51   53   52 1
    52   54   46 1
    53   55   54 1
    54   56   55 1
    55   57   51 1
    56   58   57 1
    57   59   52 ar
    58   60   59 1
    59   61   50 ar
    60   62   61 1
    61   17   31 1
    62   23   25 ar
    63   29   31 1
    64   48   54 1
    65   55   57 2
    66   59   61 ar
@<TRIPOS>SUBSTRUCTURE
     1 RES1 1
     2 RES2 32

@<TRIPOS>CRYSIN
   8.1460   10.3097   14.9330  72.0390  85.6650  84.0800   2 1

