# MOL2 file generated by ConQuest
# Please check atom types

@<TRIPOS>MOLECULE
KOMHAV01
    11    11     1
SMALL
NO_CHARGES
****
Generated from CSD

@<TRIPOS>ATOM
      1 N1         2.8032   -0.1001    4.4288 N.3       1 RES1    0.0000
      2 C1         2.3998    1.0101    5.0975 C.2       1 RES1    0.0000
      3 N2         2.7961    2.1135    4.4994 N.2       1 RES1    0.0000
      4 C2         3.4767    1.6584    3.4043 C.2       1 RES1    0.0000
      5 C3         3.4939    0.3004    3.3330 C.2       1 RES1    0.0000
      6 N3         4.0712    2.5724    2.4829 N.pl3     1 RES1    0.0000
      7 O1         3.9607    3.7818    2.6986 O.2       1 RES1    0.0000
      8 O2         4.6715    2.1095    1.5068 O.2       1 RES1    0.0000
      9 H1         2.5875   -0.9715    4.6769 H         1 RES1    0.0000
     10 H2         1.8712    0.9516    5.8859 H         1 RES1    0.0000
     11 H3         3.8803   -0.2776    2.7043 H         1 RES1    0.0000
@<TRIPOS>BOND
     1    1    2 1
     2    2    3 2
     3    3    4 1
     4    4    5 2
     5    5    1 1
     6    6    4 1
     7    7    6 2
     8    8    6 2
     9    9    1 1
    10   10    2 1
    11   11    5 1
@<TRIPOS>SUBSTRUCTURE
     1 RES1 1

@<TRIPOS>CRYSIN
   6.9559    9.9130    7.3045  90.0000 119.4100  90.0000 231 1

