# MOL2 file generated by ConQuest
# Please check atom types

@<TRIPOS>MOLECULE
KOMHAV
    11    11     1
SMALL
NO_CHARGES
****
Generated from CSD

@<TRIPOS>ATOM
      1 N1         2.3953    5.0454    1.2631 N.3       1 RES1    0.0000
      2 C1         2.7857    3.9386    1.9262 C.2       1 RES1    0.0000
      3 N2         2.3888    2.8349    1.3235 N.2       1 RES1    0.0000
      4 C2         1.7223    3.2954    0.2274 C.2       1 RES1    0.0000
      5 C3         1.7157    4.6553    0.1638 C.2       1 RES1    0.0000
      6 N3         1.1311    2.3942   -0.6977 N.pl3     1 RES1    0.0000
      7 O1         1.2416    1.1871   -0.4928 O.2       1 RES1    0.0000
      8 O2         0.5437    2.8567   -1.6705 O.2       1 RES1    0.0000
      9 H1         2.6166    5.7869    1.5356 H         1 RES1    0.0000
     10 H2         3.3118    4.0498    2.7756 H         1 RES1    0.0000
     11 H3         1.4093    5.2111   -0.4947 H         1 RES1    0.0000
@<TRIPOS>BOND
     1    1    2 1
     2    2    3 2
     3    3    4 1
     4    4    5 2
     5    5    1 1
     6    6    4 1
     7    7    6 2
     8    8    6 2
     9    9    1 1
    10   10    2 1
    11   11    5 1
@<TRIPOS>SUBSTRUCTURE
     1 RES1 1

@<TRIPOS>CRYSIN
   7.0930    9.9260    7.3474  90.0000 119.0200  90.0000  14 1

