# MOL2 file generated by ConQuest
# Please check atom types

@<TRIPOS>MOLECULE
KOMSEL
    62    65     1
SMALL
NO_CHARGES
****
Generated from CSD

@<TRIPOS>ATOM
      1 C1         3.4391   10.3078    9.2503 C.ar      1 RES1    0.0000
      2 H1         3.1363   11.2044    9.1641 H         1 RES1    0.0000
      3 C2         3.7951    9.8305   10.4787 C.ar      1 RES1    0.0000
      4 H2         3.7455   10.4016   11.2359 H         1 RES1    0.0000
      5 C3         4.2384    8.4931   10.6394 C.ar      1 RES1    0.0000
      6 C4         4.6137    7.9532   11.8984 C.ar      1 RES1    0.0000
      7 H3         4.5835    8.5034   12.6715 H         1 RES1    0.0000
      8 C5         5.0202    6.6473   12.0128 C.ar      1 RES1    0.0000
      9 H4         5.2571    6.2977   12.8633 H         1 RES1    0.0000
     10 C6         5.0867    5.8260   10.8757 C.ar      1 RES1    0.0000
     11 H5         5.3722    4.9243   10.9608 H         1 RES1    0.0000
     12 C7         4.7429    6.3180    9.6481 C.ar      1 RES1    0.0000
     13 H6         4.7999    5.7547    8.8863 H         1 RES1    0.0000
     14 C8         4.3032    7.6538    9.4954 C.ar      1 RES1    0.0000
     15 C9         3.9363    8.1840    8.2322 C.ar      1 RES1    0.0000
     16 H7         3.9829    7.6286    7.4633 H         1 RES1    0.0000
     17 C10        3.5162    9.4790    8.0985 C.ar      1 RES1    0.0000
     18 C11        3.1565   10.0709    6.7682 C.3       1 RES1    0.0000
     19 H8         2.2463   10.4586    6.8075 H         1 RES1    0.0000
     20 H9         3.7927   10.7940    6.5381 H         1 RES1    0.0000
     21 O1         3.2051    9.0519    5.7784 O.3       1 RES1    0.0000
     22 C12        3.3064    9.5394    4.4506 C.3       1 RES1    0.0000
     23 H10        3.8241    8.8911    3.9094 H         1 RES1    0.0000
     24 H11        3.8076   10.3927    4.4594 H         1 RES1    0.0000
     25 C13        1.9812    9.7634    3.8001 C.2       1 RES1    0.0000
     26 O2         1.3793   10.9654    3.9728 O.3       1 RES1    0.0000
     27 N1         0.1957   10.9962    3.2351 N.2       1 RES1    0.0000
     28 C14        0.1275    9.8278    2.6426 C.2       1 RES1    0.0000
     29 C15       -1.0340    9.4837    1.7791 C.2       1 RES1    0.0000
     30 O3        -1.1742    8.3926    1.2882 O.2       1 RES1    0.0000
     31 O4        -1.8798   10.4985    1.6258 O.3       1 RES1    0.0000
     32 C16       -3.0256   10.2096    0.7633 C.3       1 RES1    0.0000
     33 H12       -3.5306    9.4347    1.1170 H         1 RES1    0.0000
     34 H13       -2.7167    9.9908   -0.1509 H         1 RES1    0.0000
     35 C17       -3.8977   11.4241    0.7356 C.3       1 RES1    0.0000
     36 H14       -4.6722   11.2574    0.1580 H         1 RES1    0.0000
     37 H15       -3.3880   12.1850    0.3864 H         1 RES1    0.0000
     38 H16       -4.2054   11.6267    1.6444 H         1 RES1    0.0000
     39 C18        1.2362    8.9882    2.9715 C.2       1 RES1    0.0000
     40 C19        1.5477    7.5980    2.5903 C.2       1 RES1    0.0000
     41 C20        1.5615    7.1692    1.1539 C.3       1 RES1    0.0000
     42 H17        0.9208    6.4388    1.0253 H         1 RES1    0.0000
     43 H18        2.4600    6.8624    0.9125 H         1 RES1    0.0000
     44 H19        1.3114    7.9265    0.5839 H         1 RES1    0.0000
     45 N2         1.8857    6.8480    3.5829 N.2       1 RES1    0.0000
     46 N3         2.2263    5.5593    3.2667 N.pl3     1 RES1    0.0000
     47 H20        2.1727    5.2743    2.4356 H         1 RES1    0.0000
     48 C21        2.6477    4.7267    4.2542 C.ar      1 RES1    0.0000
     49 C22        3.0125    3.3797    4.0151 C.ar      1 RES1    0.0000
     50 C23        3.4562    2.5515    5.0391 C.ar      1 RES1    0.0000
     51 H21        3.6926    1.6485    4.8641 H         1 RES1    0.0000
     52 C24        3.5455    3.0643    6.3063 C.ar      1 RES1    0.0000
     53 C25        3.2029    4.3863    6.5881 C.ar      1 RES1    0.0000
     54 H22        3.2703    4.7188    7.4760 H         1 RES1    0.0000
     55 C26        2.7692    5.2025    5.5791 C.ar      1 RES1    0.0000
     56 H23        2.5460    6.1051    5.7724 H         1 RES1    0.0000
     57 N4         2.9798    2.8005    2.6837 N.pl3     1 RES1    0.0000
     58 O5         3.4363    1.6785    2.5177 O.2       1 RES1    0.0000
     59 O6         2.4943    3.4624    1.7483 O.2       1 RES1    0.0000
     60 N5         4.0603    2.2271    7.3853 N.pl3     1 RES1    0.0000
     61 O7         4.2980    2.7602    8.4659 O.2       1 RES1    0.0000
     62 O8         4.2400    1.0325    7.1626 O.2       1 RES1    0.0000
@<TRIPOS>BOND
     1    1    2 1
     2    3    1 ar
     3    4    3 1
     4    5    3 ar
     5    6    5 ar
     6    7    6 1
     7    8    6 ar
     8    9    8 1
     9   10    8 ar
    10   11   10 1
    11   12   10 ar
    12   13   12 1
    13   14    5 ar
    14   15   14 ar
    15   16   15 1
    16   17    1 ar
    17   18   17 1
    18   19   18 1
    19   20   18 1
    20   21   18 1
    21   22   21 1
    22   23   22 1
    23   24   22 1
    24   25   22 1
    25   26   25 1
    26   27   26 1
    27   28   27 2
    28   29   28 1
    29   30   29 2
    30   31   29 1
    31   32   31 1
    32   33   32 1
    33   34   32 1
    34   35   32 1
    35   36   35 1
    36   37   35 1
    37   38   35 1
    38   39   25 2
    39   40   39 1
    40   41   40 1
    41   42   41 1
    42   43   41 1
    43   44   41 1
    44   45   40 2
    45   46   45 1
    46   47   46 1
    47   48   46 1
    48   49   48 ar
    49   50   49 ar
    50   51   50 1
    51   52   50 ar
    52   53   52 ar
    53   54   53 1
    54   55   48 ar
    55   56   55 1
    56   57   49 1
    57   58   57 2
    58   59   57 2
    59   60   52 1
    60   61   60 2
    61   62   60 2
    62   12   14 ar
    63   15   17 ar
    64   28   39 1
    65   53   55 ar
@<TRIPOS>SUBSTRUCTURE
     1 RES1 1

@<TRIPOS>CRYSIN
   7.0839   12.1760   14.1840  90.5810  95.9250  99.2510   2 1

