# MOL2 file generated by ConQuest
# Please check atom types

@<TRIPOS>MOLECULE
KOMTAH
   128   133     2
SMALL
NO_CHARGES
****
Generated from CSD

@<TRIPOS>ATOM
      1 C1        -0.8068   13.6661   11.5169 C.ar      1 RES1    0.0000
      2 C2        -1.8634   14.2650   12.1603 C.ar      1 RES1    0.0000
      3 C3        -2.9858   14.5251   11.3865 C.ar      1 RES1    0.0000
      4 C4        -3.0779   14.2012   10.0488 C.ar      1 RES1    0.0000
      5 C5        -1.9893   13.5728    9.4685 C.ar      1 RES1    0.0000
      6 C6        -0.8306   13.2979   10.1868 C.ar      1 RES1    0.0000
      7 C7        -4.3492   14.4638    9.2301 C.3       1 RES1    0.0000
      8 C8        -4.1082   14.7632    7.7694 C.3       1 RES1    0.0000
      9 C9        -5.0299   13.0329    9.0426 C.3       1 RES1    0.0000
     10 C10       -4.7362   16.0297    9.5045 C.3       1 RES1    0.0000
     11 C11       -5.5790   14.4981   10.0008 Du        2 SUP2    0.0000
     12 O1         0.3866   13.4771   12.2503 O.3       1 RES1    0.0000
     13 C12        0.5497   12.2941   12.8336 C.2       1 RES1    0.0000
     14 O2        -0.2152   11.3835   12.7511 O.2       1 RES1    0.0000
     15 C13        1.8112   12.2278   13.6269 C.ar      1 RES1    0.0000
     16 C14        2.0989   11.0767   14.3107 C.ar      1 RES1    0.0000
     17 C15        3.2138   11.0399   15.1175 C.ar      1 RES1    0.0000
     18 C16        4.0669   12.1100   15.2195 C.ar      1 RES1    0.0000
     19 C17        3.7811   13.2390   14.5147 C.ar      1 RES1    0.0000
     20 C18        2.6542   13.3274   13.7244 C.ar      1 RES1    0.0000
     21 N1         4.7024   14.3852   14.6091 N.pl3     1 RES1    0.0000
     22 O3         5.6273   14.2846   15.3769 O.2       1 RES1    0.0000
     23 O4         4.4471   15.3596   13.9658 O.2       1 RES1    0.0000
     24 N2         3.4592    9.8569   15.9408 N.pl3     1 RES1    0.0000
     25 O5         2.7609    8.9046   15.7833 O.2       1 RES1    0.0000
     26 O6         4.3553    9.8961   16.7296 O.2       1 RES1    0.0000
     27 C19        0.3217   12.5543    9.5120 C.3       1 RES1    0.0000
     28 C20        1.9802   14.4245    9.3905 C.ar      1 RES1    0.0000
     29 C21        1.7011   13.1310    9.6649 C.ar      1 RES1    0.0000
     30 C22        2.7573   12.3211   10.0998 C.ar      1 RES1    0.0000
     31 C23        4.0497   12.7923   10.2708 C.ar      1 RES1    0.0000
     32 C24        4.2343   14.1202   10.0473 C.ar      1 RES1    0.0000
     33 C25        3.2353   14.9890    9.6095 C.ar      1 RES1    0.0000
     34 C26        5.2086   11.8842   10.6292 C.3       1 RES1    0.0000
     35 C27        6.1619   12.5493   11.6024 C.3       1 RES1    0.0000
     36 C28        4.7525   10.5907   11.2455 C.3       1 RES1    0.0000
     37 C29        6.0124   11.5750    9.3665 C.3       1 RES1    0.0000
     38 O7         0.9882   15.2885    8.9076 O.3       1 RES1    0.0000
     39 C30        0.5233   15.1412    7.6480 C.2       1 RES1    0.0000
     40 O8         0.8685   14.2846    6.8772 O.2       1 RES1    0.0000
     41 C31       -0.4779   16.1892    7.3376 C.ar      1 RES1    0.0000
     42 C32       -0.7105   17.2078    8.2598 C.ar      1 RES1    0.0000
     43 C33       -1.6375   18.1454    7.9074 C.ar      1 RES1    0.0000
     44 C34       -2.3499   18.1650    6.7167 C.ar      1 RES1    0.0000
     45 C35       -2.0546   17.1072    5.8664 C.ar      1 RES1    0.0000
     46 C36       -1.1588   16.1328    6.1304 C.ar      1 RES1    0.0000
     47 N3        -2.8641   17.0262    4.6218 N.pl3     1 RES1    0.0000
     48 O9        -2.9279   15.9241    4.1029 O.2       1 RES1    0.0000
     49 O10       -3.3565   18.0521    4.2364 O.2       1 RES1    0.0000
     50 N4        -1.9120   19.2450    8.8791 N.pl3     1 RES1    0.0000
     51 O11       -2.5796   20.1801    8.5087 O.2       1 RES1    0.0000
     52 O12       -1.4406   19.1198    9.9964 O.2       1 RES1    0.0000
     53 C37        3.5546   16.4543    9.4400 C.3       1 RES1    0.0000
     54 C38        2.5526   17.4704   11.5065 C.ar      1 RES1    0.0000
     55 C39        3.6738   17.1955   10.7596 C.ar      1 RES1    0.0000
     56 C40        4.9266   17.5637   11.2605 C.ar      1 RES1    0.0000
     57 C41        5.0643   18.1896   12.4557 C.ar      1 RES1    0.0000
     58 C42        3.9134   18.4399   13.1815 C.ar      1 RES1    0.0000
     59 C43        2.6495   18.0987   12.7556 C.ar      1 RES1    0.0000
     60 C44        6.3970   18.6780   13.0195 C.3       1 RES1    0.0000
     61 C45        6.6323   18.0325   14.4007 C.3       1 RES1    0.0000
     62 C46        6.4056   20.1163   13.2970 C.3       1 RES1    0.0000
     63 C47        7.5217   18.3663   12.1663 C.3       1 RES1    0.0000
     64 O13        1.3693   17.1317   10.9306 O.3       1 RES1    0.0000
     65 C48        1.4040   18.3687   13.5864 C.3       1 RES1    0.0000
     66 C49       -0.2406   16.4420   13.7034 C.ar      1 RES1    0.0000
     67 C50        0.8273   17.1391   14.2447 C.ar      1 RES1    0.0000
     68 C51        1.3704   16.6556   15.4159 C.ar      1 RES1    0.0000
     69 C52        0.8750   15.5364   16.0697 C.ar      1 RES1    0.0000
     70 C53       -0.1578   14.8614   15.4369 C.ar      1 RES1    0.0000
     71 C54       -0.7316   15.2909   14.2567 C.ar      1 RES1    0.0000
     72 C55        1.3629   15.0823   17.4599 C.3       1 RES1    0.0000
     73 C56        2.7643   15.6124   17.7718 C.3       1 RES1    0.0000
     74 C57        1.3694   13.5679   17.5903 C.3       1 RES1    0.0000
     75 C58        0.4170   15.6517   18.4976 C.3       1 RES1    0.0000
     76 O14       -0.8151   17.0237   12.5652 O.3       1 RES1    0.0000
     77 C59       -1.8660   14.5251   13.6539 C.3       1 RES1    0.0000
     78 H1        -3.6008   14.9178   11.7824 H         1 RES1    0.0000
     79 H2        -1.9964   13.3544    8.4922 H         1 RES1    0.0000
     80 H3         1.6652   10.2373   14.1952 H         1 RES1    0.0000
     81 H4         4.7090   12.0266   15.7428 H         1 RES1    0.0000
     82 H5         2.5205   14.1693   13.2505 H         1 RES1    0.0000
     83 H6         2.5352   11.5038   10.3068 H         1 RES1    0.0000
     84 H7         5.0184   14.4981   10.2183 H         1 RES1    0.0000
     85 H8         6.8645   11.9357   11.8304 H         1 RES1    0.0000
     86 H9         5.6855   12.7972   12.3987 H         1 RES1    0.0000
     87 H10        6.5394   13.3323   11.1975 H         1 RES1    0.0000
     88 H11        4.1597   10.1391   10.6397 H         1 RES1    0.0000
     89 H12        4.2919   10.7724   12.0673 H         1 RES1    0.0000
     90 H13        5.5137   10.0336   11.4210 H         1 RES1    0.0000
     91 H14        6.7266   10.9687    9.5825 H         1 RES1    0.0000
     92 H15        6.3780   12.3874    9.0111 H         1 RES1    0.0000
     93 H16        5.4372   11.1700    8.7127 H         1 RES1    0.0000
     94 H17       -0.2373   17.3796    9.1521 H         1 RES1    0.0000
     95 H18       -2.8323   18.7909    6.2533 H         1 RES1    0.0000
     96 H19       -1.0179   15.2664    5.2456 H         1 RES1    0.0000
     97 H20        5.6297   17.3870   10.5467 H         1 RES1    0.0000
     98 H21        3.8647   18.9136   13.9568 H         1 RES1    0.0000
     99 H22        6.7342   17.0851   14.2987 H         1 RES1    0.0000
    100 H23        5.8820   18.2141   14.9705 H         1 RES1    0.0000
    101 H24        7.4283   18.4006   14.7936 H         1 RES1    0.0000
    102 H25        6.2811   20.6022   12.4797 H         1 RES1    0.0000
    103 H26        7.2466   20.3617   13.6899 H         1 RES1    0.0000
    104 H27        5.6938   20.3298   13.9058 H         1 RES1    0.0000
    105 H28        7.3920   18.7713   11.3055 H         1 RES1    0.0000
    106 H29        7.5921   17.4140   12.0643 H         1 RES1    0.0000
    107 H30        8.3279   18.7074   12.5622 H         1 RES1    0.0000
    108 H31        0.7379   17.2373   11.2905 H         1 RES1    0.0000
    109 H32        1.9515   17.2127   15.8313 H         1 RES1    0.0000
    110 H33       -0.4344   14.0220   15.7698 H         1 RES1    0.0000
    111 H34        2.7672   16.5697   17.7043 H         1 RES1    0.0000
    112 H35        3.3907   15.2467   17.1450 H         1 RES1    0.0000
    113 H36        3.0127   15.3523   18.6626 H         1 RES1    0.0000
    114 H37        0.4968   13.2268   17.3864 H         1 RES1    0.0000
    115 H38        1.6068   13.3249   18.4871 H         1 RES1    0.0000
    116 H39        2.0081   13.1973   16.9770 H         1 RES1    0.0000
    117 H40        0.7087   15.3891   19.3734 H         1 RES1    0.0000
    118 H41       -0.4688   15.3155   18.3401 H         1 RES1    0.0000
    119 H42        0.4120   16.6089   18.4346 H         1 RES1    0.0000
    120 H43       -1.2416   16.4911   12.2503 H         1 RES1    0.0000
    121 H44        0.2966   11.7541    9.8659 H         1 RES1    0.0000
    122 H45        0.1131   12.5493    8.4922 H         1 RES1    0.0000
    123 H46        2.8838   16.8838    8.9361 H         1 RES1    0.0000
    124 H47        4.3493   16.6580    8.9451 H         1 RES1    0.0000
    125 H48        0.7437   18.7737   13.0990 H         1 RES1    0.0000
    126 H49        1.6906   19.0707   14.3497 H         1 RES1    0.0000
    127 H50       -1.9354   13.5507   14.1532 H         1 RES1    0.0000
    128 H51       -2.4816   14.9105   13.7664 H         1 RES1    0.0000
@<TRIPOS>BOND
     1    1    2 ar
     2    2    3 ar
     3    3    4 ar
     4    4    5 ar
     5    5    6 ar
     6    6    1 ar
     7    7    4 1
     8    8    7 1
     9    9    7 1
    10   10    7 1
    11   12    1 1
    12   13   12 1
    13   14   13 2
    14   15   13 1
    15   16   15 ar
    16   17   16 ar
    17   18   17 ar
    18   19   18 ar
    19   20   15 ar
    20   21   19 1
    21   22   21 2
    22   23   21 2
    23   24   17 1
    24   25   24 2
    25   26   24 2
    26   27    6 1
    27   28   29 ar
    28   29   27 1
    29   30   29 ar
    30   31   30 ar
    31   32   31 ar
    32   33   28 ar
    33   34   31 1
    34   35   34 1
    35   36   34 1
    36   37   34 1
    37   38   28 1
    38   39   38 1
    39   40   39 2
    40   41   39 1
    41   42   41 ar
    42   43   42 ar
    43   44   43 ar
    44   45   44 ar
    45   46   41 ar
    46   47   45 1
    47   48   47 2
    48   49   47 2
    49   50   43 1
    50   51   50 2
    51   52   50 2
    52   53   33 1
    53   54   55 ar
    54   55   53 1
    55   56   55 ar
    56   57   56 ar
    57   58   57 ar
    58   59   54 ar
    59   60   57 1
    60   61   60 1
    61   62   60 1
    62   63   60 1
    63   64   54 1
    64   65   59 1
    65   66   67 ar
    66   67   65 1
    67   68   67 ar
    68   69   68 ar
    69   70   69 ar
    70   71   66 ar
    71   72   69 1
    72   73   72 1
    73   74   72 1
    74   75   72 1
    75   76   66 1
    76   77    2 1
    77   78    3 1
    78   79    5 1
    79   80   16 1
    80   81   18 1
    81   82   20 1
    82   83   30 1
    83   84   32 1
    84   85   35 1
    85   86   35 1
    86   87   35 1
    87   88   36 1
    88   89   36 1
    89   90   36 1
    90   91   37 1
    91   92   37 1
    92   93   37 1
    93   94   42 1
    94   95   44 1
    95   96   46 1
    96   97   56 1
    97   98   58 1
    98   99   61 1
    99  100   61 1
   100  101   61 1
   101  102   62 1
   102  103   62 1
   103  104   62 1
   104  105   63 1
   105  106   63 1
   106  107   63 1
   107  108   64 1
   108  109   68 1
   109  110   70 1
   110  111   73 1
   111  112   73 1
   112  113   73 1
   113  114   74 1
   114  115   74 1
   115  116   74 1
   116  117   75 1
   117  118   75 1
   118  119   75 1
   119  120   76 1
   120  121   27 1
   121  122   27 1
   122  123   53 1
   123  124   53 1
   124  125   65 1
   125  126   65 1
   126  127   77 1
   127  128   77 1
   128   19   20 ar
   129   32   33 ar
   130   45   46 ar
   131   58   59 ar
   132   70   71 ar
   133   71   77 1
@<TRIPOS>SUBSTRUCTURE
     1 RES1 1
     2 SUP2 11

@<TRIPOS>CRYSIN
  14.9930   24.5440   15.0540  90.0000  95.0300  90.0000  14 1

