# MOL2 file generated by ConQuest
# Please check atom types

@<TRIPOS>MOLECULE
KOPFUQ
    74    74     2
SMALL
NO_CHARGES
****
Generated from CSD

@<TRIPOS>ATOM
      1 O1         4.2353    2.3361    7.6248 O.3       1 RES1    0.0000
      2 H1         4.7530    3.0910    7.6924 H         1 RES1    0.0000
      3 N1         3.8611    2.2170    8.9852 N.2       1 RES1    0.0000
      4 C1         1.1650    1.7219   10.8434 C.3       1 RES1    0.0000
      5 C2         2.6281    1.2645   10.7444 C.3       1 RES1    0.0000
      6 C3         3.0431    1.2697    9.2583 C.2       1 RES1    0.0000
      7 C4         2.4662    0.2874    8.2087 C.3       1 RES1    0.0000
      8 C5         1.5336   -0.8009    8.7717 C.3       1 RES1    0.0000
      9 C6         2.8991   -0.1032   11.3847 C.ar      1 RES1    0.0000
     10 C7         4.1112   -0.7316   11.1691 C.ar      1 RES1    0.0000
     11 C8         4.4094   -1.9472   11.7822 C.ar      1 RES1    0.0000
     12 C9         3.4857   -2.5299   12.6298 C.ar      1 RES1    0.0000
     13 C10        2.2997   -1.9138   12.8610 C.ar      1 RES1    0.0000
     14 C11        1.9982   -0.7125   12.2507 C.ar      1 RES1    0.0000
     15 C12        3.4541    2.2759   11.5641 C.3       1 RES1    0.0000
     16 C13        3.6110   -0.4577    7.5090 C.3       1 RES1    0.0000
     17 C14        1.6457    1.0888    7.1832 C.3       1 RES1    0.0000
     18 O2        -2.6614    7.0673   15.7990 O.3       2 RES2    0.0000
     19 H2        -3.1175    7.4624   16.5018 H         2 RES2    0.0000
     20 N2        -2.0416    5.9985   16.4846 N.2       2 RES2    0.0000
     21 C15        0.9138    4.5883   16.8057 C.3       2 RES2    0.0000
     22 C16       -0.5637    4.1857   16.6552 C.3       2 RES2    0.0000
     23 C17       -1.2677    5.2559   15.7915 C.2       2 RES2    0.0000
     24 C18       -0.9907    5.4653   14.2815 C.3       2 RES2    0.0000
     25 C19       -0.1220    4.3831   13.6181 C.3       2 RES2    0.0000
     26 C20       -0.7664    2.7852   16.0635 C.ar      2 RES2    0.0000
     27 C21        0.2554    1.8664   15.9166 C.ar      2 RES2    0.0000
     28 C22        0.0115    0.6087   15.3841 C.ar      2 RES2    0.0000
     29 C23       -1.2513    0.2399   15.0137 C.ar      2 RES2    0.0000
     30 C24       -2.2819    1.1290   15.1744 C.ar      2 RES2    0.0000
     31 C25       -2.0457    2.3862   15.7043 C.ar      2 RES2    0.0000
     32 C26       -1.1529    4.1323   18.0782 C.3       2 RES2    0.0000
     33 C27       -0.2541    6.8118   14.1255 C.3       2 RES2    0.0000
     34 C28       -2.3087    5.4750   13.4999 C.3       2 RES2    0.0000
     35 H3         0.9096    1.8488   11.7922 H         1 RES1    0.0000
     36 H4         0.5427    1.0588   10.4911 H         1 RES1    0.0000
     37 H5         1.0396    2.5777   10.3712 H         1 RES1    0.0000
     38 H6         1.2260   -1.3472    8.0207 H         1 RES1    0.0000
     39 H7         2.0135   -1.3969    9.4262 H         1 RES1    0.0000
     40 H8         0.7368   -0.4119    9.1986 H         1 RES1    0.0000
     41 H9         0.9568    5.4779   17.2141 H         2 RES2    0.0000
     42 H10        1.3940    4.5957   15.9616 H         2 RES2    0.0000
     43 H11        1.4174    3.9725   17.4226 H         2 RES2    0.0000
     44 H12       -0.9730    5.0006   18.5622 H         2 RES2    0.0000
     45 H13       -2.1503    3.9456   18.0671 H         2 RES2    0.0000
     46 H14       -0.7570    3.3999   18.5570 H         2 RES2    0.0000
     47 H15       -2.7933    4.6291   13.6511 H         2 RES2    0.0000
     48 H16       -2.9202    6.2328   13.7883 H         2 RES2    0.0000
     49 H17       -2.1418    5.5475   12.5549 H         2 RES2    0.0000
     50 H18       -0.8127    7.6005   14.4988 H         2 RES2    0.0000
     51 H19       -0.0708    6.9788   13.2081 H         2 RES2    0.0000
     52 H20        0.6533    6.7748   14.5926 H         2 RES2    0.0000
     53 H21       -0.0035    4.6470   12.6869 H         2 RES2    0.0000
     54 H22       -0.5857    3.4934   13.6215 H         2 RES2    0.0000
     55 H23        0.7349    4.2974   14.0246 H         2 RES2    0.0000
     56 H24        4.7414   -0.3320   10.5588 H         1 RES1    0.0000
     57 H25        5.2305   -2.3234   11.5508 H         1 RES1    0.0000
     58 H26        3.7158   -3.3549   13.0187 H         1 RES1    0.0000
     59 H27        1.6351   -2.3510   13.4756 H         1 RES1    0.0000
     60 H28        1.1335   -0.2869   12.4281 H         1 RES1    0.0000
     61 H29        3.1715    2.2135   12.5149 H         1 RES1    0.0000
     62 H30        3.2635    3.1823   11.2520 H         1 RES1    0.0000
     63 H31        4.4680    2.0941   11.4882 H         1 RES1    0.0000
     64 H32        4.1314   -1.0223    8.1545 H         1 RES1    0.0000
     65 H33        4.2348    0.1282    7.0514 H         1 RES1    0.0000
     66 H34        3.2441   -1.0570    6.8116 H         1 RES1    0.0000
     67 H35        1.2540    0.4795    6.4972 H         1 RES1    0.0000
     68 H36        2.1972    1.7718    6.7317 H         1 RES1    0.0000
     69 H37        0.8752    1.5277    7.6542 H         1 RES1    0.0000
     70 H38        1.1320    2.0887   16.1857 H         2 RES2    0.0000
     71 H39        0.7569    0.0011   15.2667 H         2 RES2    0.0000
     72 H40       -1.4151   -0.6207   14.6274 H         2 RES2    0.0000
     73 H41       -3.1696    0.9247   14.9053 H         2 RES2    0.0000
     74 H42       -2.7524    2.9997   15.7983 H         2 RES2    0.0000
@<TRIPOS>BOND
     1    1    2 1
     2    3    1 1
     3    4    5 1
     4    5    6 1
     5    6    3 2
     6    7    6 1
     7    8    7 1
     8    9    5 1
     9   10    9 ar
    10   11   10 ar
    11   12   11 ar
    12   13   12 ar
    13   14    9 ar
    14   15    5 1
    15   16    7 1
    16   17    7 1
    17   18   19 1
    18   20   18 1
    19   21   22 1
    20   22   23 1
    21   23   20 2
    22   24   23 1
    23   25   24 1
    24   26   22 1
    25   27   26 ar
    26   28   27 ar
    27   29   28 ar
    28   30   29 ar
    29   31   26 ar
    30   32   22 1
    31   33   24 1
    32   34   24 1
    33   35    4 1
    34   36    4 1
    35   37    4 1
    36   38    8 1
    37   39    8 1
    38   40    8 1
    39   41   21 1
    40   42   21 1
    41   43   21 1
    42   44   32 1
    43   45   32 1
    44   46   32 1
    45   47   34 1
    46   48   34 1
    47   49   34 1
    48   50   33 1
    49   51   33 1
    50   52   33 1
    51   53   25 1
    52   54   25 1
    53   55   25 1
    54   56   10 1
    55   57   11 1
    56   58   12 1
    57   59   13 1
    58   60   14 1
    59   61   15 1
    60   62   15 1
    61   63   15 1
    62   64   16 1
    63   65   16 1
    64   66   16 1
    65   67   17 1
    66   68   17 1
    67   69   17 1
    68   70   27 1
    69   71   28 1
    70   72   29 1
    71   73   30 1
    72   74   31 1
    73   13   14 ar
    74   30   31 ar
@<TRIPOS>SUBSTRUCTURE
     1 RES1 1
     2 RES2 18

@<TRIPOS>CRYSIN
   6.2605   12.0422   18.1930 105.6890  95.4770  95.6720   2 1

