# MOL2 file generated by ConQuest
# Please check atom types

@<TRIPOS>MOLECULE
KOPGON
    51    53     1
SMALL
NO_CHARGES
****
Generated from CSD

@<TRIPOS>ATOM
      1 N1         0.7304    1.3704    5.0650 N.pl3     1 RES1    0.0000
      2 N2        -0.5041    2.4832    6.5580 N.2       1 RES1    0.0000
      3 O1         1.5288    0.4935    4.6184 O.2       1 RES1    0.0000
      4 O2         2.0161   -3.3838    9.9453 O.3       1 RES1    0.0000
      5 O3         0.9890   -2.1761   11.5751 O.3       1 RES1    0.0000
      6 C1        -0.1536    2.1992    4.1910 C.3       1 RES1    0.0000
      7 C2        -0.6978    3.1880    5.2568 C.3       1 RES1    0.0000
      8 C3        -1.2095    1.2531    3.6291 C.3       1 RES1    0.0000
      9 H1        -1.7183    0.8757    4.3503 H         1 RES1    0.0000
     10 H2        -0.7796    0.5482    3.1389 H         1 RES1    0.0000
     11 H3        -1.7956    1.7390    3.0450 H         1 RES1    0.0000
     12 C4         0.6515    2.7911    3.0476 C.3       1 RES1    0.0000
     13 H4         1.3161    3.3876    3.3986 H         1 RES1    0.0000
     14 H5         0.0657    3.2739    2.4600 H         1 RES1    0.0000
     15 H6         1.0818    2.0844    2.5604 H         1 RES1    0.0000
     16 C5         0.1156    4.4789    5.3502 C.3       1 RES1    0.0000
     17 H7         1.0466    4.2647    5.4483 H         1 RES1    0.0000
     18 H8        -0.1768    4.9869    6.1096 H         1 RES1    0.0000
     19 H9        -0.0110    4.9951    4.5511 H         1 RES1    0.0000
     20 C6        -2.1706    3.5384    5.1016 C.3       1 RES1    0.0000
     21 H10       -2.6871    2.7312    5.0444 H         1 RES1    0.0000
     22 H11       -2.2941    4.0550    4.3023 H         1 RES1    0.0000
     23 H12       -2.4592    4.0509    5.8608 H         1 RES1    0.0000
     24 C7         0.3278    1.5246    6.3943 C.2       1 RES1    0.0000
     25 C8         0.7859    0.6138    7.4623 C.ar      1 RES1    0.0000
     26 C9         2.0579    0.0530    7.4855 C.ar      1 RES1    0.0000
     27 H13        2.6675    0.2535    6.8125 H         1 RES1    0.0000
     28 C10        2.4159   -0.8054    8.5118 C.ar      1 RES1    0.0000
     29 H14        3.2758   -1.1580    8.5369 H         1 RES1    0.0000
     30 C11        1.5079   -1.1450    9.5021 C.ar      1 RES1    0.0000
     31 C12        0.2468   -0.5826    9.4827 C.ar      1 RES1    0.0000
     32 H15       -0.3676   -0.8031   10.1456 H         1 RES1    0.0000
     33 C13       -0.1094    0.3083    8.4810 C.ar      1 RES1    0.0000
     34 H16       -0.9515    0.7030    8.4911 H         1 RES1    0.0000
     35 C14        1.9145   -2.1419   10.5569 C.3       1 RES1    0.0000
     36 H17        2.7880   -1.8884   10.9227 H         1 RES1    0.0000
     37 C15        2.4606   -4.3701   10.8897 C.3       1 RES1    0.0000
     38 H18        3.3522   -4.1400   11.1934 H         1 RES1    0.0000
     39 H19        2.5100   -5.2322   10.4490 H         1 RES1    0.0000
     40 C16        1.5483   -4.4770   12.0787 C.3       1 RES1    0.0000
     41 C17        1.4007   -3.0941   12.6109 C.3       1 RES1    0.0000
     42 H20        0.7425   -3.0916   13.3238 H         1 RES1    0.0000
     43 H21        2.2465   -2.8011   12.9833 H         1 RES1    0.0000
     44 C18        0.2345   -5.0636   11.6452 C.3       1 RES1    0.0000
     45 H22        0.3762   -5.9516   11.3091 H         1 RES1    0.0000
     46 H23       -0.1487   -4.5168   10.9576 H         1 RES1    0.0000
     47 H24       -0.3629   -5.0979   12.3961 H         1 RES1    0.0000
     48 C19        2.1794   -5.3703   13.1468 C.3       1 RES1    0.0000
     49 H25        2.2779   -6.2614   12.8021 H         1 RES1    0.0000
     50 H26        1.6158   -5.3884   13.9241 H         1 RES1    0.0000
     51 H27        3.0419   -5.0225   13.3849 H         1 RES1    0.0000
@<TRIPOS>BOND
     1    1    3 1
     2    2    7 1
     3    4   35 1
     4    5   35 1
     5    6    1 1
     6    7    6 1
     7    8    6 1
     8    9    8 1
     9   10    8 1
    10   11    8 1
    11   12    6 1
    12   13   12 1
    13   14   12 1
    14   15   12 1
    15   16    7 1
    16   17   16 1
    17   18   16 1
    18   19   16 1
    19   20    7 1
    20   21   20 1
    21   22   20 1
    22   23   20 1
    23   24    1 1
    24   25   24 1
    25   26   25 ar
    26   27   26 1
    27   28   26 ar
    28   29   28 1
    29   30   28 ar
    30   31   30 ar
    31   32   31 1
    32   33   25 ar
    33   34   33 1
    34   35   30 1
    35   36   35 1
    36   37    4 1
    37   38   37 1
    38   39   37 1
    39   40   37 1
    40   41    5 1
    41   42   41 1
    42   43   41 1
    43   44   40 1
    44   45   44 1
    45   46   44 1
    46   47   44 1
    47   48   40 1
    48   49   48 1
    49   50   48 1
    50   51   48 1
    51    2   24 2
    52   31   33 ar
    53   40   41 1
@<TRIPOS>SUBSTRUCTURE
     1 RES1 1

@<TRIPOS>CRYSIN
   6.1770   13.7040   21.8880  90.0000  94.2450  90.0000  14 1

