# MOL2 file generated by ConQuest
# Please check atom types

@<TRIPOS>MOLECULE
KOQGOM
    41    43     1
SMALL
NO_CHARGES
****
Generated from CSD

@<TRIPOS>ATOM
      1 O1         0.7140    5.3037    7.2952 O.3       1 RES1    0.0000
      2 N1         0.5778    4.3507    6.2752 N.2       1 RES1    0.0000
      3 C1         1.0796    3.2332    6.7478 C.2       1 RES1    0.0000
      4 C2         1.5529    3.4051    8.0864 C.2       1 RES1    0.0000
      5 C3         1.2851    4.7003    8.3588 C.2       1 RES1    0.0000
      6 C4         1.0518    2.0158    5.9315 C.ar      1 RES1    0.0000
      7 C5         0.7991    0.7748    6.5057 C.ar      1 RES1    0.0000
      8 H1         0.7173    0.7059    7.4492 H         1 RES1    0.0000
      9 C6         0.6646   -0.3649    5.7266 C.ar      1 RES1    0.0000
     10 H2         0.4911   -1.2063    6.1316 H         1 RES1    0.0000
     11 C7         0.7863   -0.2627    4.3451 C.ar      1 RES1    0.0000
     12 O2         0.6485   -1.2987    3.4823 O.3       1 RES1    0.0000
     13 C8         0.3193   -2.5746    4.0426 C.3       1 RES1    0.0000
     14 H3         0.2533   -3.2390    3.3246 H         1 RES1    0.0000
     15 H4        -0.5390   -2.5135    4.5113 H         1 RES1    0.0000
     16 H5         1.0190   -2.8441    4.6735 H         1 RES1    0.0000
     17 C9         1.0617    0.9730    3.7622 C.ar      1 RES1    0.0000
     18 H6         1.1609    1.0392    2.8194 H         1 RES1    0.0000
     19 C10        1.1911    2.0979    4.5444 C.ar      1 RES1    0.0000
     20 H7         1.3770    2.9365    4.1371 H         1 RES1    0.0000
     21 C11        2.2612    2.4045    8.9432 C.2       1 RES1    0.0000
     22 O3         1.6453    1.8071    9.8184 O.2       1 RES1    0.0000
     23 C12        3.6770    2.1569    8.6628 C.ar      1 RES1    0.0000
     24 C13        4.4005    1.2259    9.4283 C.ar      1 RES1    0.0000
     25 O4         3.8583    0.5546   10.4586 O.3       1 RES1    0.0000
     26 H8         2.9803    0.7936   10.4792 H         1 RES1    0.0000
     27 C14        5.7404    0.9760    9.1346 C.ar      1 RES1    0.0000
     28 H9         6.2323    0.3520    9.6558 H         1 RES1    0.0000
     29 C15        6.3505    1.6329    8.0923 C.ar      1 RES1    0.0000
     30 H10        7.2643    1.4584    7.8984 H         1 RES1    0.0000
     31 C16        5.6476    2.5505    7.3170 C.ar      1 RES1    0.0000
     32 H11        6.0763    2.9934    6.5947 H         1 RES1    0.0000
     33 C17        4.3304    2.8108    7.6046 C.ar      1 RES1    0.0000
     34 H12        3.8530    3.4426    7.0797 H         1 RES1    0.0000
     35 C18        1.5034    5.4939    9.5892 C.2       1 RES1    0.0000
     36 O5         1.9911    5.0177   10.5760 O.2       1 RES1    0.0000
     37 O6         1.1201    6.7538    9.4256 O.3       1 RES1    0.0000
     38 C19        1.2910    7.6206   10.5760 C.3       1 RES1    0.0000
     39 H13        0.9759    8.5219   10.3560 H         1 RES1    0.0000
     40 H14        2.2398    7.6573   10.8191 H         1 RES1    0.0000
     41 H15        0.7731    7.2689   11.3306 H         1 RES1    0.0000
@<TRIPOS>BOND
     1    1    2 1
     2    2    3 2
     3    3    4 1
     4    4    5 2
     5    5    1 1
     6    6    3 1
     7    7    6 ar
     8    8    7 1
     9    9    7 ar
    10   10    9 1
    11   11    9 ar
    12   12   11 1
    13   13   12 1
    14   14   13 1
    15   15   13 1
    16   16   13 1
    17   17   11 ar
    18   18   17 1
    19   19    6 ar
    20   20   19 1
    21   21    4 1
    22   22   21 2
    23   23   21 1
    24   24   23 ar
    25   25   24 1
    26   26   25 1
    27   27   24 ar
    28   28   27 1
    29   29   27 ar
    30   30   29 1
    31   31   29 ar
    32   32   31 1
    33   33   23 ar
    34   34   33 1
    35   35    5 1
    36   36   35 2
    37   37   35 1
    38   38   37 1
    39   39   38 1
    40   40   38 1
    41   41   38 1
    42   17   19 ar
    43   31   33 ar
@<TRIPOS>SUBSTRUCTURE
     1 RES1 1

@<TRIPOS>CRYSIN
  11.1720    9.3370   15.6340  90.0000  94.1000  90.0000 231 1

