# MOL2 file generated by ConQuest
# Please check atom types

@<TRIPOS>MOLECULE
KORNIQ
    45    44     1
SMALL
NO_CHARGES
****
Generated from CSD

@<TRIPOS>ATOM
      1 H1        -1.4213   -0.4186    1.4635 H         1 RES1    0.0000
      2 H2        -0.9735    1.0222    1.4780 H         1 RES1    0.0000
      3 H3        -4.0692    1.5771   -1.0467 H         1 RES1    0.0000
      4 C1         0.0000    0.0000    0.0000 C.3       1 RES1    0.0000
      5 C2        -1.1711    0.3193    0.9274 C.3       1 RES1    0.0000
      6 C3        -3.3676    1.1323    0.7475 C.2       1 RES1    0.0000
      7 N1        -4.2983    1.4833   -0.2182 N.am      1 RES1    0.0000
      8 N2        -5.3996    2.2572    0.0830 N.pl3     1 RES1    0.0000
      9 O1        -2.3019    0.6730    0.0910 O.3       1 RES1    0.0000
     10 O2        -3.5045    1.2087    1.9278 O.2       1 RES1    0.0000
     11 O3        -5.8843    2.1949    1.1900 O.2       1 RES1    0.0000
     12 O4        -5.8192    2.9263   -0.8474 O.2       1 RES1    0.0000
     13 H1A        1.4213    0.4186    1.4635 H         1 RES1    0.0000
     14 H2A        0.9735   -1.0222    1.4780 H         1 RES1    0.0000
     15 H3A        4.0692   -1.5771   -1.0467 H         1 RES1    0.0000
     16 C2A        1.1711   -0.3193    0.9274 C.3       1 RES1    0.0000
     17 C3A        3.3676   -1.1323    0.7475 C.2       1 RES1    0.0000
     18 N1A        4.2983   -1.4833   -0.2182 N.am      1 RES1    0.0000
     19 N2A        5.3996   -2.2572    0.0830 N.pl3     1 RES1    0.0000
     20 O1A        2.3019   -0.6730    0.0910 O.3       1 RES1    0.0000
     21 O2A        3.5045   -1.2087    1.9278 O.2       1 RES1    0.0000
     22 O3A        5.8843   -2.1949    1.1900 O.2       1 RES1    0.0000
     23 O4A        5.8192   -2.9263   -0.8474 O.2       1 RES1    0.0000
     24 H1F        0.4186   -1.4213   -1.4635 H         1 RES1    0.0000
     25 H2F       -1.0222   -0.9735   -1.4780 H         1 RES1    0.0000
     26 H3F       -1.5771   -4.0692    1.0467 H         1 RES1    0.0000
     27 C2F       -0.3193   -1.1711   -0.9274 C.3       1 RES1    0.0000
     28 C3F       -1.1323   -3.3676   -0.7475 C.2       1 RES1    0.0000
     29 N1F       -1.4833   -4.2983    0.2182 N.am      1 RES1    0.0000
     30 N2F       -2.2572   -5.3996   -0.0830 N.pl3     1 RES1    0.0000
     31 O1F       -0.6730   -2.3019   -0.0910 O.3       1 RES1    0.0000
     32 O2F       -1.2087   -3.5045   -1.9278 O.2       1 RES1    0.0000
     33 O3F       -2.1949   -5.8843   -1.1900 O.2       1 RES1    0.0000
     34 O4F       -2.9263   -5.8192    0.8474 O.2       1 RES1    0.0000
     35 H1G       -0.4186    1.4213   -1.4635 H         1 RES1    0.0000
     36 H2G        1.0222    0.9735   -1.4780 H         1 RES1    0.0000
     37 H3G        1.5771    4.0692    1.0467 H         1 RES1    0.0000
     38 C2G        0.3193    1.1711   -0.9274 C.3       1 RES1    0.0000
     39 C3G        1.1323    3.3676   -0.7475 C.2       1 RES1    0.0000
     40 N1G        1.4833    4.2983    0.2182 N.am      1 RES1    0.0000
     41 N2G        2.2572    5.3996   -0.0830 N.pl3     1 RES1    0.0000
     42 O1G        0.6730    2.3019   -0.0910 O.3       1 RES1    0.0000
     43 O2G        1.2087    3.5045   -1.9278 O.2       1 RES1    0.0000
     44 O3G        2.1949    5.8843   -1.1900 O.2       1 RES1    0.0000
     45 O4G        2.9263    5.8192    0.8474 O.2       1 RES1    0.0000
@<TRIPOS>BOND
     1    1    5 1
     2    2    5 1
     3    3    7 1
     4    4    5 1
     5    5    9 1
     6    6    7 1
     7    7    8 1
     8    8   11 2
     9    9    6 1
    10   10    6 2
    11   12    8 2
    12   13   16 1
    13   14   16 1
    14   15   18 1
    15   16    4 1
    16   17   18 1
    17   18   19 1
    18   19   22 2
    19   20   16 1
    20   21   17 2
    21   23   19 2
    22   24   27 1
    23   25   27 1
    24   26   29 1
    25   27    4 1
    26   28   29 1
    27   29   30 1
    28   30   33 2
    29   31   27 1
    30   32   28 2
    31   34   30 2
    32   35   38 1
    33   36   38 1
    34   37   40 1
    35   38    4 1
    36   39   40 1
    37   40   41 1
    38   41   44 2
    39   42   38 1
    40   43   39 2
    41   45   41 2
    42   17   20 1
    43   28   31 1
    44   39   42 1
@<TRIPOS>SUBSTRUCTURE
     1 RES1 1

@<TRIPOS>CRYSIN
   9.7350    9.7350    9.6921  90.0000  90.0000  90.0000 114 1

