# MOL2 file generated by ConQuest
# Please check atom types

@<TRIPOS>MOLECULE
KORWUL
    26    27     1
SMALL
NO_CHARGES
****
Generated from CSD

@<TRIPOS>ATOM
      1 O1         2.8799    1.2027   10.6489 O.3       1 RES1    0.0000
      2 O2         2.9277    2.3534   13.9998 O.2       1 RES1    0.0000
      3 O3         4.3420    1.0468   12.8478 O.3       1 RES1    0.0000
      4 O4        -0.8272    3.5265    9.9984 O.2       1 RES1    0.0000
      5 N1         2.0184    1.5247    9.5963 N.2       1 RES1    0.0000
      6 C1         1.1527    2.3742   10.0926 C.2       1 RES1    0.0000
      7 C2         1.3975    2.6363   11.4489 C.2       1 RES1    0.0000
      8 H1         0.9144    3.1916   12.0164 H         1 RES1    0.0000
      9 C3         2.4818    1.9059   11.7439 C.2       1 RES1    0.0000
     10 C4         3.2608    1.8020   12.9822 C.2       1 RES1    0.0000
     11 C5         5.1716    0.9150   14.0247 C.3       1 RES1    0.0000
     12 H2         5.8921    0.3077   13.8425 H         1 RES1    0.0000
     13 H3         4.6441    0.5754   14.7508 H         1 RES1    0.0000
     14 H4         5.5291    1.7732   14.2612 H         1 RES1    0.0000
     15 C6         0.0200    2.9823    9.3252 C.2       1 RES1    0.0000
     16 C7        -0.0873    2.9487    7.8421 C.ar      1 RES1    0.0000
     17 C8         0.8426    2.3518    7.0066 C.ar      1 RES1    0.0000
     18 H5         1.5822    1.9227    7.3707 H         1 RES1    0.0000
     19 C9         0.6801    2.3885    5.6420 C.ar      1 RES1    0.0000
     20 H6         1.3056    1.9754    5.0928 H         1 RES1    0.0000
     21 C10       -0.3925    3.0270    5.0857 C.ar      1 RES1    0.0000
     22 H7        -0.4968    3.0478    4.1608 H         1 RES1    0.0000
     23 C11       -1.3135    3.6367    5.8977 C.ar      1 RES1    0.0000
     24 H8        -2.0336    4.0882    5.5209 H         1 RES1    0.0000
     25 C12       -1.1830    3.5872    7.2616 C.ar      1 RES1    0.0000
     26 H9        -1.8283    3.9820    7.8036 H         1 RES1    0.0000
@<TRIPOS>BOND
     1    1    5 1
     2    2   10 2
     3    3   10 1
     4    4   15 2
     5    5    6 2
     6    6    7 1
     7    7    8 1
     8    9    1 1
     9   10    9 1
    10   11    3 1
    11   12   11 1
    12   13   11 1
    13   14   11 1
    14   15    6 1
    15   16   15 1
    16   17   16 ar
    17   18   17 1
    18   19   17 ar
    19   20   19 1
    20   21   19 ar
    21   22   21 1
    22   23   21 ar
    23   24   23 1
    24   25   16 ar
    25   26   25 1
    26    7    9 2
    27   23   25 ar
@<TRIPOS>SUBSTRUCTURE
     1 RES1 1

@<TRIPOS>CRYSIN
   5.7282    7.9911   23.6740  90.0000  92.3360  90.0000 231 1

