# MOL2 file generated by ConQuest
# Please check atom types

@<TRIPOS>MOLECULE
KOSLUZ
    71    72     1
SMALL
NO_CHARGES
****
Generated from CSD

@<TRIPOS>ATOM
      1 N1         3.2723    8.7774    5.6487 N.3       1 RES1    0.0000
      2 O1         2.7100    7.6697    6.0330 O.2       1 RES1    0.0000
      3 C1         3.6913    8.7987    4.2234 C.3       1 RES1    0.0000
      4 C2         4.5119   10.0557    3.9476 C.3       1 RES1    0.0000
      5 C3         3.9570   11.3027    4.5549 C.3       1 RES1    0.0000
      6 C4         3.8533   11.1164    6.0578 C.3       1 RES1    0.0000
      7 C5         2.9632    9.9576    6.4823 C.3       1 RES1    0.0000
      8 C6         2.4530    8.7404    3.3155 C.3       1 RES1    0.0000
      9 C7         4.5851    7.5560    4.0003 C.3       1 RES1    0.0000
     10 C8         1.4946   10.3088    6.3335 C.3       1 RES1    0.0000
     11 C9         3.2767    9.6106    7.9510 C.3       1 RES1    0.0000
     12 O2         4.8955   12.3464    4.2637 O.3       1 RES1    0.0000
     13 C10        4.2971   13.5991    4.1242 C.3       1 RES1    0.0000
     14 C11        5.4026   14.6456    4.3752 C.3       1 RES1    0.0000
     15 C12        4.9010   16.0348    4.0189 C.3       1 RES1    0.0000
     16 C13        4.3263   16.0376    2.6276 C.3       1 RES1    0.0000
     17 C14        3.2376   14.9683    2.5440 C.3       1 RES1    0.0000
     18 O3         3.8583   13.7171    2.7670 O.3       1 RES1    0.0000
     19 O4         5.6111   14.6328    5.8006 O.3       1 RES1    0.0000
     20 O5         6.0804   16.8822    4.0251 O.3       1 RES1    0.0000
     21 O6         3.6342   17.3088    2.4634 O.3       1 RES1    0.0000
     22 C15        2.5840   14.8901    1.1744 C.3       1 RES1    0.0000
     23 C16        6.7675   14.0498    6.2716 C.2       1 RES1    0.0000
     24 O7         7.6427   13.7299    5.5589 O.2       1 RES1    0.0000
     25 C17        6.6905   13.8863    7.7496 C.3       1 RES1    0.0000
     26 C18        6.0636   17.9870    4.7254 C.2       1 RES1    0.0000
     27 C19        7.3267   18.7961    4.6355 C.3       1 RES1    0.0000
     28 O8         5.1413   18.3141    5.3761 O.2       1 RES1    0.0000
     29 C20        4.1730   18.1520    1.5555 C.2       1 RES1    0.0000
     30 O9         5.0897   17.9302    0.9048 O.2       1 RES1    0.0000
     31 C21        3.2283   19.3805    1.4408 C.3       1 RES1    0.0000
     32 O10        1.4431   13.9986    1.2859 O.3       1 RES1    0.0000
     33 C22        1.4140   12.9180    0.5608 C.2       1 RES1    0.0000
     34 C23        0.2824   12.0094    0.8738 C.3       1 RES1    0.0000
     35 O11        2.2382   12.7345   -0.2975 O.2       1 RES1    0.0000
     36 H1         4.6428   10.1666    2.8817 H         1 RES1    0.0000
     37 H2         5.5180    9.8964    4.3690 H         1 RES1    0.0000
     38 H3         2.9359   11.4463    4.1521 H         1 RES1    0.0000
     39 H4         3.3270   12.0008    6.5380 H         1 RES1    0.0000
     40 H5         4.8415   10.9628    6.4761 H         1 RES1    0.0000
     41 H6         1.7380    8.0337    3.7183 H         1 RES1    0.0000
     42 H7         1.9304    9.6974    3.3465 H         1 RES1    0.0000
     43 H8         2.6380    8.4887    2.2620 H         1 RES1    0.0000
     44 H9         4.1525    6.6971    4.4930 H         1 RES1    0.0000
     45 H10        4.8911    7.5076    2.9437 H         1 RES1    0.0000
     46 H11        5.5801    7.7494    4.4310 H         1 RES1    0.0000
     47 H12        1.2476   10.7069    5.2056 H         1 RES1    0.0000
     48 H13        1.2538   11.1193    7.0338 H         1 RES1    0.0000
     49 H14        0.8752    9.4272    6.5380 H         1 RES1    0.0000
     50 H15        4.4380    9.4699    8.0564 H         1 RES1    0.0000
     51 H16        2.9421   10.3372    8.7071 H         1 RES1    0.0000
     52 H17        2.7000    8.6736    8.2113 H         1 RES1    0.0000
     53 H18        3.4511   13.8351    4.8028 H         1 RES1    0.0000
     54 H19        6.3808   14.2190    3.8733 H         1 RES1    0.0000
     55 H20        4.2580   16.3234    4.9578 H         1 RES1    0.0000
     56 H21        5.1208   15.9822    1.8901 H         1 RES1    0.0000
     57 H22        2.4952   15.1432    3.5634 H         1 RES1    0.0000
     58 H23        6.2008   14.7593    8.2733 H         1 RES1    0.0000
     59 H24        6.1387   13.0104    8.0254 H         1 RES1    0.0000
     60 H25        7.6967   13.8209    8.1493 H         1 RES1    0.0000
     61 H26        8.1746   18.0866    4.6169 H         1 RES1    0.0000
     62 H27        7.3925   19.4232    5.5465 H         1 RES1    0.0000
     63 H28        7.2994   19.3805    3.7183 H         1 RES1    0.0000
     64 H29        2.4331   19.1530    0.7437 H         1 RES1    0.0000
     65 H30        2.8118   19.5796    2.4479 H         1 RES1    0.0000
     66 H31        3.8111   20.2336    1.0845 H         1 RES1    0.0000
     67 H32        2.3214   15.9111    0.8366 H         1 RES1    0.0000
     68 H33        3.3890   14.4323    0.4958 H         1 RES1    0.0000
     69 H34       -0.1055   12.2710    1.8592 H         1 RES1    0.0000
     70 H35        0.6021   10.9628    0.8676 H         1 RES1    0.0000
     71 H36       -0.5462   12.0435    0.1859 H         1 RES1    0.0000
@<TRIPOS>BOND
     1    1    2 1
     2    3    1 1
     3    4    3 1
     4    5    4 1
     5    6    5 1
     6    7    1 1
     7    8    3 1
     8    9    3 1
     9   10    7 1
    10   11    7 1
    11   12    5 1
    12   13   12 1
    13   14   13 1
    14   15   14 1
    15   16   15 1
    16   17   16 1
    17   18   13 1
    18   19   14 1
    19   20   15 1
    20   21   16 1
    21   22   17 1
    22   23   19 1
    23   24   23 2
    24   25   23 1
    25   26   20 1
    26   27   26 1
    27   28   26 2
    28   29   21 1
    29   30   29 2
    30   31   29 1
    31   32   22 1
    32   33   32 1
    33   34   33 1
    34   35   33 2
    35   36    4 1
    36   37    4 1
    37   38    5 1
    38   39    6 1
    39   40    6 1
    40   41    8 1
    41   42    8 1
    42   43    8 1
    43   44    9 1
    44   45    9 1
    45   46    9 1
    46   47   10 1
    47   48   10 1
    48   49   10 1
    49   50   11 1
    50   51   11 1
    51   52   11 1
    52   53   13 1
    53   54   14 1
    54   55   15 1
    55   56   16 1
    56   57   17 1
    57   58   25 1
    58   59   25 1
    59   60   25 1
    60   61   27 1
    61   62   27 1
    62   63   27 1
    63   64   31 1
    64   65   31 1
    65   66   31 1
    66   67   22 1
    67   68   22 1
    68   69   34 1
    69   70   34 1
    70   71   34 1
    71    6    7 1
    72   17   18 1
@<TRIPOS>SUBSTRUCTURE
     1 RES1 1

@<TRIPOS>CRYSIN
   6.2070   14.2190   30.9860  90.0000  90.0000  90.0000  19 1

