# MOL2 file generated by ConQuest
# Please check atom types

@<TRIPOS>MOLECULE
KOSNUB
    92    98     1
SMALL
NO_CHARGES
****
Generated from CSD

@<TRIPOS>ATOM
      1 C1        11.5773    4.4499    5.7859 C.2       1 RES1    0.0000
      2 C2        10.3054    5.1046    5.5407 C.2       1 RES1    0.0000
      3 C3        10.3527    6.4196    5.8131 C.2       1 RES1    0.0000
      4 C4        11.7311    6.8189    6.3483 C.3       1 RES1    0.0000
      5 C5        12.5288    7.7845    5.3869 C.3       1 RES1    0.0000
      6 C6        12.3406    7.2989    3.9432 C.2       1 RES1    0.0000
      7 C7        13.0586    6.1507    3.8054 C.2       1 RES1    0.0000
      8 C8        13.6840    5.8398    5.1658 C.3       1 RES1    0.0000
      9 C9        12.5683    5.4835    6.2089 C.3       1 RES1    0.0000
     10 C10       13.9352    7.2614    5.5888 C.2       1 RES1    0.0000
     11 N1        11.7161    3.1757    5.6673 N.2       1 RES1    0.0000
     12 O1        13.0562    2.8354    6.0823 O.3       1 RES1    0.0000
     13 C11       13.3779    1.5374    5.8339 C.2       1 RES1    0.0000
     14 O2        12.6820    0.8112    5.1978 O.2       1 RES1    0.0000
     15 C12       14.6937    1.1664    6.4733 C.3       1 RES1    0.0000
     16 C13       15.6501    2.3532    6.5790 C.3       1 RES1    0.0000
     17 C14       15.3294    0.0465    5.6497 C.3       1 RES1    0.0000
     18 C15       14.3344    0.6524    7.8769 C.3       1 RES1    0.0000
     19 C16        9.2351    7.3579    5.6497 C.ar      1 RES1    0.0000
     20 C17        8.1388    6.9948    4.8678 C.ar      1 RES1    0.0000
     21 C18        7.0423    7.8265    4.7556 C.ar      1 RES1    0.0000
     22 C19        7.0255    9.0416    5.3949 C.ar      1 RES1    0.0000
     23 C20        8.1071    9.4365    6.1336 C.ar      1 RES1    0.0000
     24 C21        9.2153    8.6037    6.2602 C.ar      1 RES1    0.0000
     25 C22       11.6958    7.2671    7.8112 C.ar      1 RES1    0.0000
     26 C23       10.9300    6.5387    8.7213 C.ar      1 RES1    0.0000
     27 C24       10.9432    6.8246   10.0752 C.ar      1 RES1    0.0000
     28 C25       11.7095    7.8821   10.5335 C.ar      1 RES1    0.0000
     29 C26       12.4383    8.6230    9.6634 C.ar      1 RES1    0.0000
     30 C27       12.4475    8.3246    8.2919 C.ar      1 RES1    0.0000
     31 C28       11.4533    7.9796    2.9755 C.ar      1 RES1    0.0000
     32 C29       11.3905    9.3639    2.9258 C.ar      1 RES1    0.0000
     33 C30       10.5877    9.9913    1.9740 C.ar      1 RES1    0.0000
     34 C31        9.8302    9.2561    1.1008 C.ar      1 RES1    0.0000
     35 C32        9.8619    7.8900    1.1601 C.ar      1 RES1    0.0000
     36 C33       10.6694    7.2456    2.0798 C.ar      1 RES1    0.0000
     37 C34       13.3418    5.3224    2.6230 C.ar      1 RES1    0.0000
     38 C35       13.4974    3.9495    2.7367 C.ar      1 RES1    0.0000
     39 C36       13.8009    3.1712    1.6295 C.ar      1 RES1    0.0000
     40 C37       13.9960    3.7725    0.4166 C.ar      1 RES1    0.0000
     41 C38       13.8891    5.1250    0.2772 C.ar      1 RES1    0.0000
     42 C39       13.5578    5.9067    1.3652 C.ar      1 RES1    0.0000
     43 N2        14.9683    7.9218    5.9301 N.2       1 RES1    0.0000
     44 O3        16.0917    6.9903    5.9269 O.3       1 RES1    0.0000
     45 C40       17.2848    7.5871    5.7298 C.2       1 RES1    0.0000
     46 O4        17.4151    8.7591    5.5856 O.2       1 RES1    0.0000
     47 C41       18.3912    6.5421    5.6577 C.3       1 RES1    0.0000
     48 C42       18.2427    5.5096    6.7745 C.3       1 RES1    0.0000
     49 C43       19.7413    7.2535    5.8179 C.3       1 RES1    0.0000
     50 C44       18.2886    5.8738    4.2893 C.3       1 RES1    0.0000
     51 H1         9.4836    4.6337    5.2507 H         1 RES1    0.0000
     52 H2        12.3616    8.7217    5.5359 H         1 RES1    0.0000
     53 H3        14.3911    5.2260    5.1305 H         1 RES1    0.0000
     54 H4        12.9866    5.2464    6.9940 H         1 RES1    0.0000
     55 H5        15.8567    2.7843    5.5792 H         1 RES1    0.0000
     56 H6        15.2567    3.0770    7.0917 H         1 RES1    0.0000
     57 H7        16.4755    2.0491    7.0901 H         1 RES1    0.0000
     58 H8        16.1240   -0.3415    6.1832 H         1 RES1    0.0000
     59 H9        15.4670    0.4777    4.7412 H         1 RES1    0.0000
     60 H10       14.6393   -0.7341    5.7891 H         1 RES1    0.0000
     61 H11       15.2446    0.3529    8.2053 H         1 RES1    0.0000
     62 H12       13.6800   -0.1645    7.8865 H         1 RES1    0.0000
     63 H13       13.9306    1.3865    8.4473 H         1 RES1    0.0000
     64 H14        8.1549    6.1336    4.4191 H         1 RES1    0.0000
     65 H15        6.3750    7.5042    4.2076 H         1 RES1    0.0000
     66 H16        6.2326    9.6305    5.3244 H         1 RES1    0.0000
     67 H17        8.1530   10.2999    6.5630 H         1 RES1    0.0000
     68 H18        9.9653    8.8726    6.8546 H         1 RES1    0.0000
     69 H19       10.3817    5.7887    8.3880 H         1 RES1    0.0000
     70 H20       10.4085    6.2857   10.6857 H         1 RES1    0.0000
     71 H21       11.7474    8.0784   11.3939 H         1 RES1    0.0000
     72 H22       12.9553    9.3627    9.8397 H         1 RES1    0.0000
     73 H23       13.0079    8.8771    7.6878 H         1 RES1    0.0000
     74 H24       11.8938    9.8835    3.5411 H         1 RES1    0.0000
     75 H25       10.6280   10.9296    1.9884 H         1 RES1    0.0000
     76 H26        9.2832    9.6827    0.5047 H         1 RES1    0.0000
     77 H27        9.3003    7.3670    0.5912 H         1 RES1    0.0000
     78 H28       10.6707    6.2482    2.0990 H         1 RES1    0.0000
     79 H29       13.3795    3.5297    3.6116 H         1 RES1    0.0000
     80 H30       13.9595    2.2647    1.7898 H         1 RES1    0.0000
     81 H31       14.1654    3.2574   -0.3092 H         1 RES1    0.0000
     82 H32       14.0297    5.5777   -0.6201 H         1 RES1    0.0000
     83 H33       13.5294    6.8848    1.2370 H         1 RES1    0.0000
     84 H34       17.4093    4.9310    6.5358 H         1 RES1    0.0000
     85 H35       18.9823    4.8640    6.7793 H         1 RES1    0.0000
     86 H36       18.2557    5.9532    7.7327 H         1 RES1    0.0000
     87 H37       20.4223    6.5432    5.6144 H         1 RES1    0.0000
     88 H38       19.7916    7.8685    4.9655 H         1 RES1    0.0000
     89 H39       19.7350    7.7062    6.8178 H         1 RES1    0.0000
     90 H40       18.9521    5.1760    4.2733 H         1 RES1    0.0000
     91 H41       17.4232    5.3859    4.2429 H         1 RES1    0.0000
     92 H42       18.2985    6.6567    3.5988 H         1 RES1    0.0000
@<TRIPOS>BOND
     1    1    2 1
     2    2    3 2
     3    3    4 1
     4    4    5 1
     5    5    6 1
     6    6    7 2
     7    7    8 1
     8    8    9 1
     9    9    1 1
    10   10    5 1
    11   11    1 2
    12   12   11 1
    13   13   12 1
    14   14   13 2
    15   15   13 1
    16   16   15 1
    17   17   15 1
    18   18   15 1
    19   19    3 1
    20   20   19 ar
    21   21   20 ar
    22   22   21 ar
    23   23   22 ar
    24   24   19 ar
    25   25    4 1
    26   26   25 ar
    27   27   26 ar
    28   28   27 ar
    29   29   28 ar
    30   30   25 ar
    31   31    6 1
    32   32   31 ar
    33   33   32 ar
    34   34   33 ar
    35   35   34 ar
    36   36   31 ar
    37   37    7 1
    38   38   37 ar
    39   39   38 ar
    40   40   39 ar
    41   41   40 ar
    42   42   37 ar
    43   43   10 2
    44   44   43 1
    45   45   44 1
    46   46   45 2
    47   47   45 1
    48   48   47 1
    49   49   47 1
    50   50   47 1
    51   51    2 1
    52   52    5 1
    53   53    8 1
    54   54    9 1
    55   55   16 1
    56   56   16 1
    57   57   16 1
    58   58   17 1
    59   59   17 1
    60   60   17 1
    61   61   18 1
    62   62   18 1
    63   63   18 1
    64   64   20 1
    65   65   21 1
    66   66   22 1
    67   67   23 1
    68   68   24 1
    69   69   26 1
    70   70   27 1
    71   71   28 1
    72   72   29 1
    73   73   30 1
    74   74   32 1
    75   75   33 1
    76   76   34 1
    77   77   35 1
    78   78   36 1
    79   79   38 1
    80   80   39 1
    81   81   40 1
    82   82   41 1
    83   83   42 1
    84   84   48 1
    85   85   48 1
    86   86   48 1
    87   87   49 1
    88   88   49 1
    89   89   49 1
    90   90   50 1
    91   91   50 1
    92   92   50 1
    93    4    9 1
    94    8   10 1
    95   23   24 ar
    96   29   30 ar
    97   35   36 ar
    98   41   42 ar
@<TRIPOS>SUBSTRUCTURE
     1 RES1 1

@<TRIPOS>CRYSIN
  20.4370   11.3460   17.6650  90.0000 114.9000  90.0000  14 1

