# MOL2 file generated by ConQuest
# Please check atom types

@<TRIPOS>MOLECULE
KOTMOV
    27    28     1
SMALL
NO_CHARGES
****
Generated from CSD

@<TRIPOS>ATOM
      1 C1         1.7868   -2.5585   -1.9596 C.ar      1 RES1    0.0000
      2 C2         0.9090   -2.3402   -0.9105 C.ar      1 RES1    0.0000
      3 C3         1.1264   -1.2469   -0.0671 C.ar      1 RES1    0.0000
      4 C4         2.1940   -0.4028   -0.2876 C.ar      1 RES1    0.0000
      5 C5         3.0693   -0.6329   -1.3382 C.ar      1 RES1    0.0000
      6 C6         2.8592   -1.7057   -2.1698 C.ar      1 RES1    0.0000
      7 N1         2.4007    0.7362    0.5663 N.pl3     1 RES1    0.0000
      8 C7         2.3323    0.7598    1.9283 C.2       1 RES1    0.0000
      9 N2         2.6372    1.9366    2.4141 N.2       1 RES1    0.0000
     10 C8         2.9177    2.7256    1.3114 C.2       1 RES1    0.0000
     11 C9         2.7653    2.0115    0.1699 C.2       1 RES1    0.0000
     12 O1         4.1813    5.8689    2.4976 O.3       1 RES1    0.0000
     13 C10        3.3728    4.1002    1.4470 C.2       1 RES1    0.0000
     14 N3         3.7662    4.5408    2.5736 N.2       1 RES1    0.0000
     15 O2         1.6600   -3.5895   -2.8657 O.3       1 RES1    0.0000
     16 C11        0.5569   -4.4328   -2.7792 C.3       1 RES1    0.0000
     17 H1         0.6834   -5.0713   -3.4841 H         1 RES1    0.0000
     18 H2        -0.2857   -3.9875   -2.8970 H         1 RES1    0.0000
     19 H3         0.5627   -4.8853   -1.9313 H         1 RES1    0.0000
     20 H4         3.4636   -1.8672   -2.9253 H         1 RES1    0.0000
     21 H5         0.3929   -1.0609    0.5827 H         1 RES1    0.0000
     22 H6         0.0658   -2.7264   -0.8271 H         1 RES1    0.0000
     23 H7         2.6360    2.4545   -0.7496 H         1 RES1    0.0000
     24 H8         2.3655   -0.0300    2.4827 H         1 RES1    0.0000
     25 H9         3.7741   -0.0552   -1.4828 H         1 RES1    0.0000
     26 H10        4.4676    6.0652    3.1652 H         1 RES1    0.0000
     27 H11        3.4957    4.5542    0.7600 H         1 RES1    0.0000
@<TRIPOS>BOND
     1    1    2 ar
     2    2    3 ar
     3    3    4 ar
     4    4    5 ar
     5    5    6 ar
     6    6    1 ar
     7    7    4 1
     8    8    7 1
     9    9    8 2
    10   10    9 1
    11   11    7 1
    12   12   14 1
    13   13   10 1
    14   14   13 2
    15   15    1 1
    16   16   15 1
    17   17   16 1
    18   18   16 1
    19   19   16 1
    20   20    6 1
    21   21    3 1
    22   22    2 1
    23   23   11 1
    24   24    8 1
    25   25    5 1
    26   26   12 1
    27   27   13 1
    28   10   11 2
@<TRIPOS>SUBSTRUCTURE
     1 RES1 1

@<TRIPOS>CRYSIN
   9.0090    7.8820   15.0720  90.0000  98.6100  90.0000  14 1

