# MOL2 file generated by ConQuest
# Please check atom types

@<TRIPOS>MOLECULE
KOTWEX
    43    46     1
SMALL
NO_CHARGES
****
Generated from CSD

@<TRIPOS>ATOM
      1 N1        -0.2118    0.4727    2.8952 N.pl3     1 RES1    0.0000
      2 N2         0.5501    0.2518    4.0200 N.2       1 RES1    0.0000
      3 N3        -0.3505    2.1159    1.1438 N.ar      1 RES1    0.0000
      4 N4         1.4194    5.3314    1.0603 N.pl3     1 RES1    0.0000
      5 O1         5.3528    6.3471    5.8922 O.3       1 RES1    0.0000
      6 O2         1.5646    5.4567   -0.1542 O.2       1 RES1    0.0000
      7 O3         1.4717    6.2638    1.8547 O.2       1 RES1    0.0000
      8 C1         1.3325    1.3066    4.1780 C.2       1 RES1    0.0000
      9 C2         1.0878    2.2675    3.1432 C.ar      1 RES1    0.0000
     10 C3         1.5867    3.5371    2.7893 C.ar      1 RES1    0.0000
     11 C4         1.0961    3.9944    1.5663 C.ar      1 RES1    0.0000
     12 C5         0.1803    3.2731    0.7797 C.ar      1 RES1    0.0000
     13 H1        -0.0718    3.6369   -0.0605 H         1 RES1    0.0000
     14 C6         0.1172    1.6604    2.3164 C.ar      1 RES1    0.0000
     15 C7         2.3394    1.3089    5.2760 C.3       1 RES1    0.0000
     16 H2         2.3391    0.4360    5.7210 H         1 RES1    0.0000
     17 H3         2.1121    2.0060    5.9261 H         1 RES1    0.0000
     18 H4         3.2282    1.4858    4.9042 H         1 RES1    0.0000
     19 C8         2.5578    4.2669    3.6323 C.ar      1 RES1    0.0000
     20 C9         2.2841    4.5256    4.9713 C.ar      1 RES1    0.0000
     21 H5         1.4632    4.2279    5.3453 H         1 RES1    0.0000
     22 C10        3.1901    5.2122    5.7743 C.ar      1 RES1    0.0000
     23 H6         2.9909    5.3803    6.6872 H         1 RES1    0.0000
     24 C11        4.3921    5.6492    5.2229 C.ar      1 RES1    0.0000
     25 C12        4.6789    5.3970    3.8818 C.ar      1 RES1    0.0000
     26 H7         5.5024    5.6907    3.5092 H         1 RES1    0.0000
     27 C13        3.7679    4.7216    3.0940 C.ar      1 RES1    0.0000
     28 H8         3.9637    4.5636    2.1784 H         1 RES1    0.0000
     29 C14        5.1777    6.5466    7.2965 C.3       1 RES1    0.0000
     30 H9         4.3396    7.0280    7.4558 H         1 RES1    0.0000
     31 H10        5.9283    7.0709    7.6485 H         1 RES1    0.0000
     32 H11        5.1461    5.6777    7.7486 H         1 RES1    0.0000
     33 C15       -1.1216   -0.5239    2.4505 C.ar      1 RES1    0.0000
     34 C16       -2.3042   -0.1538    1.8289 C.ar      1 RES1    0.0000
     35 H12       -2.5165    0.7635    1.7064 H         1 RES1    0.0000
     36 C17       -3.1750   -1.1430    1.3869 C.ar      1 RES1    0.0000
     37 H13       -3.9844   -0.9009    0.9527 H         1 RES1    0.0000
     38 C18       -2.8660   -2.4813    1.5773 C.ar      1 RES1    0.0000
     39 H14       -3.4618   -3.1545    1.2702 H         1 RES1    0.0000
     40 C19       -1.6909   -2.8355    2.2151 C.ar      1 RES1    0.0000
     41 H15       -1.4898   -3.7538    2.3551 H         1 RES1    0.0000
     42 C20       -0.8032   -1.8642    2.6529 C.ar      1 RES1    0.0000
     43 H16        0.0075   -2.1085    3.0829 H         1 RES1    0.0000
@<TRIPOS>BOND
     1    1    2 1
     2    2    8 2
     3    3   12 ar
     4    4    6 2
     5    5   24 1
     6    7    4 2
     7    8    9 1
     8    9   10 ar
     9   10   11 ar
    10   11    4 1
    11   12   11 ar
    12   13   12 1
    13   14    1 1
    14   15    8 1
    15   16   15 1
    16   17   15 1
    17   18   15 1
    18   19   10 1
    19   20   19 ar
    20   21   20 1
    21   22   20 ar
    22   23   22 1
    23   24   22 ar
    24   25   24 ar
    25   26   25 1
    26   27   19 ar
    27   28   27 1
    28   29    5 1
    29   30   29 1
    30   31   29 1
    31   32   29 1
    32   33    1 1
    33   34   33 ar
    34   35   34 1
    35   36   34 ar
    36   37   36 1
    37   38   36 ar
    38   39   38 1
    39   40   38 ar
    40   41   40 1
    41   42   33 ar
    42   43   42 1
    43    3   14 ar
    44    9   14 ar
    45   25   27 ar
    46   40   42 ar
@<TRIPOS>SUBSTRUCTURE
     1 RES1 1

@<TRIPOS>CRYSIN
   5.8619   11.6586   12.9563  73.8830  83.0730  89.0110   2 1

