# MOL2 file generated by ConQuest
# Please check atom types

@<TRIPOS>MOLECULE
KOTWOH
    33    35     1
SMALL
NO_CHARGES
****
Generated from CSD

@<TRIPOS>ATOM
      1 N1         2.3417    3.4493    1.0198 N.ar      1 RES1    0.0000
      2 N2         2.8368    5.2148    2.4222 N.am      1 RES1    0.0000
      3 N3         2.4478    5.1343    4.7503 N.am      1 RES1    0.0000
      4 N4         0.6795    0.2155    1.5507 N.pl3     1 RES1    0.0000
      5 N5         0.8566   -0.7679    5.6834 N.ar      1 RES1    0.0000
      6 N6        -0.9325    0.7703    5.9784 N.ar      1 RES1    0.0000
      7 O1         3.1884    7.0346    3.7332 O.2       1 RES1    0.0000
      8 O2         1.8293    3.2105    5.7634 O.2       1 RES1    0.0000
      9 O3         1.2881   -0.4999    0.7645 O.2       1 RES1    0.0000
     10 O4        -0.3976   -0.0734    2.0553 O.2       1 RES1    0.0000
     11 C1         2.3242    3.9474    2.2667 C.ar      1 RES1    0.0000
     12 C2         1.8307    3.2461    3.3817 C.ar      1 RES1    0.0000
     13 C3         1.2591    1.9877    3.1872 C.ar      1 RES1    0.0000
     14 C4         1.2751    1.5069    1.8813 C.ar      1 RES1    0.0000
     15 C5         1.8378    2.2356    0.8476 C.ar      1 RES1    0.0000
     16 H1         1.8643    1.8502   -0.0202 H         1 RES1    0.0000
     17 C6         2.8373    5.8737    3.6349 C.2       1 RES1    0.0000
     18 C7         2.0228    3.8179    4.7228 C.2       1 RES1    0.0000
     19 C8         3.2861    5.9934    1.2519 C.3       1 RES1    0.0000
     20 H2         3.5120    5.3820    0.5208 H         1 RES1    0.0000
     21 H3         4.0754    6.5203    1.4939 H         1 RES1    0.0000
     22 H4         2.5672    6.5945    0.9638 H         1 RES1    0.0000
     23 C9         2.5624    5.7790    6.0703 C.3       1 RES1    0.0000
     24 H5         1.8219    5.4877    6.6412 H         1 RES1    0.0000
     25 H6         2.5286    6.7525    5.9618 H         1 RES1    0.0000
     26 H7         3.4141    5.5257    6.4841 H         1 RES1    0.0000
     27 C10        0.7121    1.1619    4.3029 C.ar      1 RES1    0.0000
     28 C11        1.3243   -0.0084    4.6842 C.ar      1 RES1    0.0000
     29 H8         2.1064   -0.2874    4.2238 H         1 RES1    0.0000
     30 C12       -0.2325   -0.3216    6.2825 C.ar      1 RES1    0.0000
     31 H9        -0.5535   -0.8375    7.0127 H         1 RES1    0.0000
     32 C13       -0.4421    1.5046    4.9802 C.ar      1 RES1    0.0000
     33 H10       -0.9046    2.2946    4.7244 H         1 RES1    0.0000
@<TRIPOS>BOND
     1    1   11 ar
     2    2   11 1
     3    3   17 1
     4    4    9 2
     5    5   28 ar
     6    6   30 ar
     7    7   17 2
     8    8   18 2
     9   10    4 2
    10   11   12 ar
    11   12   13 ar
    12   13   14 ar
    13   14    4 1
    14   15    1 ar
    15   16   15 1
    16   17    2 1
    17   18    3 1
    18   19    2 1
    19   20   19 1
    20   21   19 1
    21   22   19 1
    22   23    3 1
    23   24   23 1
    24   25   23 1
    25   26   23 1
    26   27   13 1
    27   28   27 ar
    28   29   28 1
    29   30    5 ar
    30   31   30 1
    31   32    6 ar
    32   33   32 1
    33   12   18 1
    34   14   15 ar
    35   27   32 ar
@<TRIPOS>SUBSTRUCTURE
     1 RES1 1

@<TRIPOS>CRYSIN
   8.9906    9.5173   15.7437  90.0000  99.0950  90.0000  14 1

