# MOL2 file generated by ConQuest
# Please check atom types

@<TRIPOS>MOLECULE
KOTXAS
    80    84     1
SMALL
NO_CHARGES
****
Generated from CSD

@<TRIPOS>ATOM
      1 O1        13.2970    8.0434    1.6352 O.3       1 RES1    0.0000
      2 N1        12.1907    8.9000    2.0386 N.3       1 RES1    0.0000
      3 C1        11.0627    8.0925    2.6262 C.3       1 RES1    0.0000
      4 C2         9.8976    8.9971    2.2473 C.ar      1 RES1    0.0000
      5 C3         8.6085    8.9845    2.7617 C.ar      1 RES1    0.0000
      6 C4         7.6943    9.9052    2.2531 C.ar      1 RES1    0.0000
      7 C5         8.0631   10.7949    1.2934 C.ar      1 RES1    0.0000
      8 C6         9.3522   10.8006    0.7634 C.ar      1 RES1    0.0000
      9 C7        10.2601    9.8789    1.2572 C.ar      1 RES1    0.0000
     10 C8        11.7042    9.6516    0.8406 C.3       1 RES1    0.0000
     11 C9        14.3753    8.1359    2.6056 C.3       1 RES1    0.0000
     12 C10       15.0199    9.5271    2.6516 C.3       1 RES1    0.0000
     13 C11       15.4940    7.2541    2.0543 C.2       1 RES1    0.0000
     14 C12       15.4940    5.9326    2.0543 C.2       1 RES1    0.0000
     15 C13       16.6189    5.0919    1.4676 C.3       1 RES1    0.0000
     16 C14       10.8737    6.6899    2.0304 C.3       1 RES1    0.0000
     17 C15       11.2548    7.9977    4.1192 C.3       1 RES1    0.0000
     18 C16       12.4820   10.9663    0.6943 C.3       1 RES1    0.0000
     19 C17       11.7568    8.8909   -0.4955 C.3       1 RES1    0.0000
     20 H1         8.3482    8.3563    3.4396 H         1 RES1    0.0000
     21 H2         6.7957    9.9211    2.5884 H         1 RES1    0.0000
     22 H3         7.4247   11.4368    0.9762 H         1 RES1    0.0000
     23 H4         9.6001   11.4220    0.0740 H         1 RES1    0.0000
     24 H5        14.0283    7.9086    3.4709 H         1 RES1    0.0000
     25 H6        15.5405    9.7030    3.4750 H         1 RES1    0.0000
     26 H7        14.3691   10.2570    2.6023 H         1 RES1    0.0000
     27 H8        16.3988    4.1645    1.5818 H         1 RES1    0.0000
     28 H9        17.4400    5.2838    1.9236 H         1 RES1    0.0000
     29 H10       16.7180    5.2838    0.5316 H         1 RES1    0.0000
     30 H11       10.7528    6.7584    1.0805 H         1 RES1    0.0000
     31 H12       10.0990    6.2810    2.4240 H         1 RES1    0.0000
     32 H13       11.6484    6.1519    2.2161 H         1 RES1    0.0000
     33 H14       10.5421    7.4860    4.5054 H         1 RES1    0.0000
     34 H15       11.2548    8.8829    4.4922 H         1 RES1    0.0000
     35 H16       12.0946    7.5716    4.3098 H         1 RES1    0.0000
     36 H17       12.1628   11.4483   -0.0731 H         1 RES1    0.0000
     37 H18       13.4147   10.7709    0.5842 H         1 RES1    0.0000
     38 H19       12.3580   11.5020    1.4815 H         1 RES1    0.0000
     39 H20       11.2672    8.0685   -0.4182 H         1 RES1    0.0000
     40 H21       12.6710    8.7013   -0.7198 H         1 RES1    0.0000
     41 H22       11.3633    9.4334   -1.1832 H         1 RES1    0.0000
     42 C10F      15.9681    9.5271    1.4569 C.3       1 RES1    0.0000
     43 C9F       16.6127    8.1359    1.5029 C.3       1 RES1    0.0000
     44 C13F      14.3691    5.0919    2.6409 C.3       1 RES1    0.0000
     45 H6F       15.4475    9.7030    0.6335 H         1 RES1    0.0000
     46 H7F       16.6189   10.2570    1.5062 H         1 RES1    0.0000
     47 O1F       17.6910    8.0434    2.4733 O.3       1 RES1    0.0000
     48 H5F       16.9597    7.9086    0.6376 H         1 RES1    0.0000
     49 H8F       14.5892    4.1645    2.5267 H         1 RES1    0.0000
     50 H9F       13.5480    5.2838    2.1849 H         1 RES1    0.0000
     51 H10F      14.2700    5.2838    3.5769 H         1 RES1    0.0000
     52 N1F       18.7973    8.9000    2.0699 N.3       1 RES1    0.0000
     53 C1F       19.9253    8.0925    1.4823 C.3       1 RES1    0.0000
     54 C8F       19.2838    9.6516    3.2679 C.3       1 RES1    0.0000
     55 C2F       21.0904    8.9971    1.8612 C.ar      1 RES1    0.0000
     56 C14F      20.1143    6.6899    2.0781 C.3       1 RES1    0.0000
     57 C15F      19.7332    7.9977   -0.0107 C.3       1 RES1    0.0000
     58 C7F       20.7279    9.8789    2.8513 C.ar      1 RES1    0.0000
     59 C16F      18.5060   10.9663    3.4142 C.3       1 RES1    0.0000
     60 C17F      19.2312    8.8909    4.6040 C.3       1 RES1    0.0000
     61 C3F       22.3795    8.9845    1.3468 C.ar      1 RES1    0.0000
     62 H11F      20.2352    6.7584    3.0280 H         1 RES1    0.0000
     63 H12F      20.8890    6.2810    1.6845 H         1 RES1    0.0000
     64 H13F      19.3396    6.1519    1.8924 H         1 RES1    0.0000
     65 H14F      20.4459    7.4860   -0.3969 H         1 RES1    0.0000
     66 H15F      19.7332    8.8829   -0.3837 H         1 RES1    0.0000
     67 H16F      18.8934    7.5716   -0.2013 H         1 RES1    0.0000
     68 C6F       21.6358   10.8006    3.3451 C.ar      1 RES1    0.0000
     69 H17F      18.8252   11.4483    4.1816 H         1 RES1    0.0000
     70 H18F      17.5733   10.7709    3.5243 H         1 RES1    0.0000
     71 H19F      18.6300   11.5020    2.6270 H         1 RES1    0.0000
     72 H20F      19.7208    8.0685    4.5267 H         1 RES1    0.0000
     73 H21F      18.3170    8.7013    4.8283 H         1 RES1    0.0000
     74 H22F      19.6247    9.4334    5.2917 H         1 RES1    0.0000
     75 C4F       23.2937    9.9052    1.8554 C.ar      1 RES1    0.0000
     76 H1F       22.6398    8.3563    0.6689 H         1 RES1    0.0000
     77 C5F       22.9249   10.7949    2.8151 C.ar      1 RES1    0.0000
     78 H4F       21.3879   11.4220    4.0345 H         1 RES1    0.0000
     79 H2F       24.1923    9.9211    1.5201 H         1 RES1    0.0000
     80 H3F       23.5633   11.4368    3.1323 H         1 RES1    0.0000
@<TRIPOS>BOND
     1    1    2 1
     2    2    3 1
     3    3    4 1
     4    4    5 ar
     5    5    6 ar
     6    6    7 ar
     7    7    8 ar
     8    8    9 ar
     9    9    4 ar
    10   10    2 1
    11   11    1 1
    12   12   11 1
    13   13   11 1
    14   14   13 2
    15   15   14 1
    16   16    3 1
    17   17    3 1
    18   18   10 1
    19   19   10 1
    20   20    5 1
    21   21    6 1
    22   22    7 1
    23   23    8 1
    24   24   11 1
    25   25   12 1
    26   26   12 1
    27   27   15 1
    28   28   15 1
    29   29   15 1
    30   30   16 1
    31   31   16 1
    32   32   16 1
    33   33   17 1
    34   34   17 1
    35   35   17 1
    36   36   18 1
    37   37   18 1
    38   38   18 1
    39   39   19 1
    40   40   19 1
    41   41   19 1
    42   42   12 1
    43   43   13 1
    44   44   14 1
    45   45   42 1
    46   46   42 1
    47   47   43 1
    48   48   43 1
    49   49   44 1
    50   50   44 1
    51   51   44 1
    52   52   47 1
    53   53   52 1
    54   54   52 1
    55   55   53 1
    56   56   53 1
    57   57   53 1
    58   58   54 1
    59   59   54 1
    60   60   54 1
    61   61   55 ar
    62   62   56 1
    63   63   56 1
    64   64   56 1
    65   65   57 1
    66   66   57 1
    67   67   57 1
    68   68   58 ar
    69   69   59 1
    70   70   59 1
    71   71   59 1
    72   72   60 1
    73   73   60 1
    74   74   60 1
    75   75   61 ar
    76   76   61 1
    77   77   68 ar
    78   78   68 1
    79   79   75 1
    80   80   77 1
    81    9   10 1
    82   42   43 1
    83   55   58 ar
    84   75   77 ar
@<TRIPOS>SUBSTRUCTURE
     1 RES1 1

@<TRIPOS>CRYSIN
  30.9880   11.4220    8.2170  90.0000  90.0000  90.0000  60 1

