# MOL2 file generated by ConQuest
# Please check atom types

@<TRIPOS>MOLECULE
KOTZEY
   136   142     2
SMALL
NO_CHARGES
****
Generated from CSD

@<TRIPOS>ATOM
      1 O1         2.6070   -1.9805    7.0509 O.2       1 RES1    0.0000
      2 O2         1.2765   -2.2281    5.3708 O.2       1 RES1    0.0000
      3 O3        -2.8572   -1.1866    9.8900 O.3       1 RES1    0.0000
      4 O4        -4.7895   -3.0734    8.6952 O.3       1 RES1    0.0000
      5 O5        -5.6102   -0.6153    9.6976 O.3       1 RES1    0.0000
      6 O6        -5.1939    1.4034   11.7913 O.3       1 RES1    0.0000
      7 O7        -1.9046    1.1075   13.1598 O.3       1 RES1    0.0000
      8 O8         0.3959    1.4136   11.3174 O.3       1 RES1    0.0000
      9 O9        14.5640   -2.2633    7.0093 O.2       2 RES2    0.0000
     10 O10       13.3233   -2.3175    5.2387 O.2       2 RES2    0.0000
     11 O11        9.0386   -0.9580    9.5511 O.3       2 RES2    0.0000
     12 O12        6.4719   -1.2818    8.3793 O.3       2 RES2    0.0000
     13 O13        6.3673    0.4805   10.5060 O.3       2 RES2    0.0000
     14 O14        7.5225    1.4327   12.9904 O.3       2 RES2    0.0000
     15 O15       10.5660    1.7520   12.7822 O.3       2 RES2    0.0000
     16 O16       12.5850    1.4136   10.8909 O.3       2 RES2    0.0000
     17 N1         1.4843   -1.9996    6.5569 N.pl3     1 RES1    0.0000
     18 N2        13.4706   -2.1695    6.4521 N.pl3     2 RES2    0.0000
     19 C1        -0.5618   -1.3902    9.5956 C.ar      1 RES1    0.0000
     20 C2         0.5200   -1.6114    8.7842 C.ar      1 RES1    0.0000
     21 C3         0.3315   -1.7476    7.4143 C.ar      1 RES1    0.0000
     22 C4        -0.9139   -1.6451    6.8327 C.ar      1 RES1    0.0000
     23 C5        -2.0235   -1.4327    7.6340 C.ar      1 RES1    0.0000
     24 C6        -1.8406   -1.3404    9.0183 C.ar      1 RES1    0.0000
     25 C7        -3.3820   -1.3375    6.9590 C.3       1 RES1    0.0000
     26 C8        -3.8965   -2.6910    6.5210 C.ar      1 RES1    0.0000
     27 C9        -3.6094   -3.1847    5.2588 C.ar      1 RES1    0.0000
     28 C10       -4.0366   -4.4357    4.8653 C.ar      1 RES1    0.0000
     29 C11       -4.7694   -5.2224    5.7240 C.ar      1 RES1    0.0000
     30 C12       -5.0758   -4.7507    6.9935 C.ar      1 RES1    0.0000
     31 C13       -4.6342   -3.4953    7.3841 C.ar      1 RES1    0.0000
     32 C14       -6.1445   -2.8463    9.1432 C.3       1 RES1    0.0000
     33 C15       -6.5310   -1.4166    8.9594 C.3       1 RES1    0.0000
     34 C16       -5.8861    0.7793    9.5626 C.3       1 RES1    0.0000
     35 C17       -4.9374    1.5660   10.3969 C.3       1 RES1    0.0000
     36 C18       -4.1244    0.8760   12.4418 C.3       1 RES1    0.0000
     37 C19       -2.9428    1.8253   12.6745 C.3       1 RES1    0.0000
     38 C20       -0.7441    1.8707   13.4341 C.3       1 RES1    0.0000
     39 C21        0.0333    2.4229   12.2709 C.3       1 RES1    0.0000
     40 C22        1.3026    0.4570   11.7482 C.ar      1 RES1    0.0000
     41 C23        2.5497    0.8130   12.2551 C.ar      1 RES1    0.0000
     42 C24        3.4522   -0.1773   12.5869 C.ar      1 RES1    0.0000
     43 C25        3.1190   -1.5074   12.4203 C.ar      1 RES1    0.0000
     44 C26        1.8756   -1.8428   11.9320 C.ar      1 RES1    0.0000
     45 C27        0.9335   -0.8731   11.5902 C.ar      1 RES1    0.0000
     46 C28       -0.4395   -1.2334   11.0977 C.3       1 RES1    0.0000
     47 C29       11.3291   -1.3726    9.3773 C.ar      2 RES2    0.0000
     48 C30       12.4366   -1.6861    8.6162 C.ar      2 RES2    0.0000
     49 C31       12.2949   -1.8721    7.2534 C.ar      2 RES2    0.0000
     50 C32       11.0760   -1.7271    6.6173 C.ar      2 RES2    0.0000
     51 C33        9.9439   -1.4166    7.3525 C.ar      2 RES2    0.0000
     52 C34       10.0888   -1.2540    8.7440 C.ar      2 RES2    0.0000
     53 C35        8.6230   -1.2452    6.6388 C.3       2 RES2    0.0000
     54 C36        7.7142   -2.4537    6.7752 C.ar      2 RES2    0.0000
     55 C37        7.9159   -3.5890    6.0069 C.ar      2 RES2    0.0000
     56 C38        7.0814   -4.7038    6.1218 C.ar      2 RES2    0.0000
     57 C39        6.0305   -4.6569    7.0165 C.ar      2 RES2    0.0000
     58 C40        5.7910   -3.5333    7.7862 C.ar      2 RES2    0.0000
     59 C41        6.6332   -2.4478    7.6598 C.ar      2 RES2    0.0000
     60 C42        5.2764   -1.0957    9.1533 C.3       2 RES2    0.0000
     61 C43        5.2800    0.3208    9.6143 C.3       2 RES2    0.0000
     62 C44        6.6000    1.8399   10.8306 C.3       2 RES2    0.0000
     63 C45        7.8262    1.9029   11.6836 C.3       2 RES2    0.0000
     64 C46        8.5815    0.7178   13.6165 C.3       2 RES2    0.0000
     65 C47        9.8022    1.5352   13.9554 C.3       2 RES2    0.0000
     66 C48       11.8408    2.2955   13.0363 C.3       2 RES2    0.0000
     67 C49       12.4944    2.5885   11.7181 C.3       2 RES2    0.0000
     68 C50       13.3900    0.3823   11.3432 C.ar      2 RES2    0.0000
     69 C51       14.7159    0.5991   11.6994 C.ar      2 RES2    0.0000
     70 C52       15.5114   -0.4790   12.0469 C.ar      2 RES2    0.0000
     71 C53       14.9979   -1.7637   12.0297 C.ar      2 RES2    0.0000
     72 C54       13.6767   -1.9600   11.6735 C.ar      2 RES2    0.0000
     73 C55       12.8457   -0.9009   11.3275 C.ar      2 RES2    0.0000
     74 C56       11.4281   -1.1294   10.8751 C.3       2 RES2    0.0000
     75 H1         1.3972   -1.6407    9.1476 H         1 RES1    0.0000
     76 H2        -1.0001   -1.7286    5.8877 H         1 RES1    0.0000
     77 H3        -3.6728   -1.2598    9.5209 H         1 RES1    0.0000
     78 H4        -3.3289   -0.7764    6.1893 H         1 RES1    0.0000
     79 H5        -3.9928   -0.9668    7.5679 H         1 RES1    0.0000
     80 H6        -3.0813   -2.6661    4.6528 H         1 RES1    0.0000
     81 H7        -3.8490   -4.7756    4.0065 H         1 RES1    0.0000
     82 H8        -5.0366   -6.0940    5.4713 H         1 RES1    0.0000
     83 H9        -5.6446   -5.2590    7.5679 H         1 RES1    0.0000
     84 H10       -6.2270   -3.0763   10.0666 H         1 RES1    0.0000
     85 H11       -6.7400   -3.3839    8.6306 H         1 RES1    0.0000
     86 H12       -7.4125   -1.2745    9.2912 H         1 RES1    0.0000
     87 H13       -6.4960   -1.1866    8.0418 H         1 RES1    0.0000
     88 H14       -6.7818    0.9522    9.8512 H         1 RES1    0.0000
     89 H15       -5.7968    1.0401    8.6449 H         1 RES1    0.0000
     90 H16       -5.0289    2.4903   10.1671 H         1 RES1    0.0000
     91 H17       -4.0637    1.2745   10.2102 H         1 RES1    0.0000
     92 H18       -3.8281    0.1025   11.9765 H         1 RES1    0.0000
     93 H19       -4.4424    0.6153   13.3121 H         1 RES1    0.0000
     94 H20       -3.1910    2.5196   13.2977 H         1 RES1    0.0000
     95 H21       -2.7120    2.2266   11.8473 H         1 RES1    0.0000
     96 H22       -0.1548    1.2452   13.8865 H         1 RES1    0.0000
     97 H23       -0.9869    2.5782   14.0014 H         1 RES1    0.0000
     98 H24        0.8112    2.8712   12.5940 H         1 RES1    0.0000
     99 H25       -0.5395    3.0470   11.8186 H         1 RES1    0.0000
    100 H26        2.7563    1.7286   12.4074 H         1 RES1    0.0000
    101 H27        4.3104    0.0586   12.9100 H         1 RES1    0.0000
    102 H28        3.7351   -2.1827   12.6371 H         1 RES1    0.0000
    103 H29        1.6551   -2.7687   11.8186 H         1 RES1    0.0000
    104 H30       -0.6877   -2.0509   11.5026 H         1 RES1    0.0000
    105 H31       -1.0584   -0.5420   11.3734 H         1 RES1    0.0000
    106 H32       13.2968   -1.7579    9.0327 H         2 RES2    0.0000
    107 H33       11.0228   -1.8311    5.6723 H         2 RES2    0.0000
    108 H34        8.1691   -0.8643    9.1619 H         2 RES2    0.0000
    109 H35        8.1895   -0.4834    7.0222 H         2 RES2    0.0000
    110 H36        8.7787   -1.0840    5.7154 H         2 RES2    0.0000
    111 H37        8.6084   -3.5890    5.3708 H         2 RES2    0.0000
    112 H38        7.2266   -5.4934    5.6149 H         2 RES2    0.0000
    113 H39        5.4475   -5.4201    7.1084 H         2 RES2    0.0000
    114 H40        5.0485   -3.5011    8.3865 H         2 RES2    0.0000
    115 H41        5.2509   -1.6700    9.8943 H         2 RES2    0.0000
    116 H42        4.5178   -1.2452    8.6019 H         2 RES2    0.0000
    117 H43        4.4636    0.5420   10.0523 H         2 RES2    0.0000
    118 H44        5.4007    0.8936    8.8603 H         2 RES2    0.0000
    119 H45        5.8361    2.1974   11.3016 H         2 RES2    0.0000
    120 H46        6.7298    2.3438   10.0379 H         2 RES2    0.0000
    121 H47        8.1256    2.8126   11.7324 H         2 RES2    0.0000
    122 H48        8.5027    1.3624   11.3016 H         2 RES2    0.0000
    123 H49        8.8586    0.0293   13.0248 H         2 RES2    0.0000
    124 H50        8.2648    0.3369   14.4178 H         2 RES2    0.0000
    125 H51       10.3321    1.0694   14.5901 H         2 RES2    0.0000
    126 H52        9.5444    2.3731   14.3173 H         2 RES2    0.0000
    127 H53       12.3706    1.6700   13.5418 H         2 RES2    0.0000
    128 H54       11.7578    3.1056   13.5275 H         2 RES2    0.0000
    129 H55       13.3803    2.9152   11.8760 H         2 RES2    0.0000
    130 H56       11.9975    3.2521   11.2585 H         2 RES2    0.0000
    131 H57       15.0673    1.4795   11.6606 H         2 RES2    0.0000
    132 H58       16.4005   -0.3223   12.3212 H         2 RES2    0.0000
    133 H59       15.5541   -2.5050   12.2637 H         2 RES2    0.0000
    134 H60       13.3203   -2.8419   11.6750 H         2 RES2    0.0000
    135 H61       11.0733   -1.8897   11.3303 H         2 RES2    0.0000
    136 H62       10.9212   -0.3516   11.0862 H         2 RES2    0.0000
@<TRIPOS>BOND
     1    1   17 2
     2    2   17 2
     3    3   24 1
     4    4   31 1
     5    5   33 1
     6    6   35 1
     7    7   37 1
     8    8   39 1
     9    9   18 2
    10   10   18 2
    11   11   52 1
    12   12   59 1
    13   13   61 1
    14   14   63 1
    15   15   65 1
    16   16   67 1
    17   17   21 1
    18   18   49 1
    19   19   20 ar
    20   20   21 ar
    21   21   22 ar
    22   22   23 ar
    23   23   24 ar
    24   24   19 ar
    25   25   23 1
    26   26   25 1
    27   27   26 ar
    28   28   27 ar
    29   29   28 ar
    30   30   29 ar
    31   31   26 ar
    32   32    4 1
    33   33   32 1
    34   34    5 1
    35   35   34 1
    36   36    6 1
    37   37   36 1
    38   38    7 1
    39   39   38 1
    40   40    8 1
    41   41   40 ar
    42   42   41 ar
    43   43   42 ar
    44   44   43 ar
    45   45   40 ar
    46   46   19 1
    47   47   48 ar
    48   48   49 ar
    49   49   50 ar
    50   50   51 ar
    51   51   52 ar
    52   52   47 ar
    53   53   51 1
    54   54   53 1
    55   55   54 ar
    56   56   55 ar
    57   57   56 ar
    58   58   57 ar
    59   59   54 ar
    60   60   12 1
    61   61   60 1
    62   62   13 1
    63   63   62 1
    64   64   14 1
    65   65   64 1
    66   66   15 1
    67   67   66 1
    68   68   16 1
    69   69   68 ar
    70   70   69 ar
    71   71   70 ar
    72   72   71 ar
    73   73   68 ar
    74   74   47 1
    75   75   20 1
    76   76   22 1
    77   77    3 1
    78   78   25 1
    79   79   25 1
    80   80   27 1
    81   81   28 1
    82   82   29 1
    83   83   30 1
    84   84   32 1
    85   85   32 1
    86   86   33 1
    87   87   33 1
    88   88   34 1
    89   89   34 1
    90   90   35 1
    91   91   35 1
    92   92   36 1
    93   93   36 1
    94   94   37 1
    95   95   37 1
    96   96   38 1
    97   97   38 1
    98   98   39 1
    99   99   39 1
   100  100   41 1
   101  101   42 1
   102  102   43 1
   103  103   44 1
   104  104   46 1
   105  105   46 1
   106  106   48 1
   107  107   50 1
   108  108   11 1
   109  109   53 1
   110  110   53 1
   111  111   55 1
   112  112   56 1
   113  113   57 1
   114  114   58 1
   115  115   60 1
   116  116   60 1
   117  117   61 1
   118  118   61 1
   119  119   62 1
   120  120   62 1
   121  121   63 1
   122  122   63 1
   123  123   64 1
   124  124   64 1
   125  125   65 1
   126  126   65 1
   127  127   66 1
   128  128   66 1
   129  129   67 1
   130  130   67 1
   131  131   69 1
   132  132   70 1
   133  133   71 1
   134  134   72 1
   135  135   74 1
   136  136   74 1
   137   30   31 ar
   138   44   45 ar
   139   45   46 1
   140   58   59 ar
   141   72   73 ar
   142   73   74 1
@<TRIPOS>SUBSTRUCTURE
     1 RES1 1
     2 RES2 9

@<TRIPOS>CRYSIN
  23.5980   14.6490   14.3810  90.0000  93.0700  90.0000 231 1

