# MOL2 file generated by ConQuest
# Please check atom types

@<TRIPOS>MOLECULE
KOVHEI
    28    37     1
SMALL
NO_CHARGES
****
Generated from CSD

@<TRIPOS>ATOM
      1 C1         0.7093    5.9992    1.3338 C.2       1 RES1    0.0000
      2 N1         0.2169    4.7794    1.7610 N.2       1 RES1    0.0000
      3 O1         0.7884    3.7667    1.3014 O.2       1 RES1    0.0000
      4 O2        -0.7364    4.6834    2.5481 O.2       1 RES1    0.0000
      5 C2         1.8727    5.9992    0.4309 C.2       1 RES1    0.0000
      6 N2         1.6814    5.9992   -0.8519 N.2       1 RES1    0.0000
      7 C3         2.7710    5.9992   -1.8170 C.3       1 RES1    0.0000
      8 C4         3.9924    6.4160   -1.2417 C.3       1 RES1    0.0000
      9 C5         4.2906    5.9992    0.1420 C.3       1 RES1    0.0000
     10 N3         3.0730    5.9992    0.9440 N.2       1 RES1    0.0000
     11 H1         0.8961    5.9992   -1.1221 H         1 RES1    0.0000
     12 H2         2.5482    6.5776   -2.5506 H         1 RES1    0.0000
     13 H3         2.8832    5.1114   -2.1658 H         1 RES1    0.0000
     14 H4         4.0060    7.3767   -1.2616 H         1 RES1    0.0000
     15 H5         4.7070    6.1104   -1.8046 H         1 RES1    0.0000
     16 H6         4.9359    6.5944    0.5318 H         1 RES1    0.0000
     17 H7         4.6678    5.1162    0.1308 H         1 RES1    0.0000
     18 H8         3.0828    5.9992    1.7236 H         1 RES1    0.0000
     19 N1B        0.2169    7.2191    1.7610 N.2       1 RES1    0.0000
     20 O1B        0.7884    8.2318    1.3014 O.2       1 RES1    0.0000
     21 O2B       -0.7364    7.3151    2.5481 O.2       1 RES1    0.0000
     22 C4B        3.9924    5.5825   -1.2417 C.3       1 RES1    0.0000
     23 H3B        2.8832    6.8871   -2.1658 H         1 RES1    0.0000
     24 H2B        2.5482    5.4209   -2.5506 H         1 RES1    0.0000
     25 H4B        4.0060    4.6218   -1.2616 H         1 RES1    0.0000
     26 H5B        4.7070    5.8881   -1.8046 H         1 RES1    0.0000
     27 H7B        4.6678    6.8823    0.1308 H         1 RES1    0.0000
     28 H6B        4.9359    5.4041    0.5318 H         1 RES1    0.0000
@<TRIPOS>BOND
     1    1    2 1
     2    2    3 1
     3    4    2 1
     4    5    1 1
     5    6    5 1
     6    7    6 1
     7    8    7 1
     8    9    8 1
     9   10    5 1
    10   11    6 1
    11   12    7 1
    12   13    7 1
    13   14    8 1
    14   15    8 1
    15   16    9 1
    16   17    9 1
    17   18   10 1
    18   19    1 1
    19   20   19 1
    20   21   19 1
    21   22    7 1
    22   23    7 1
    23   24    7 1
    24   25   22 1
    25   26    8 1
    26   27    9 1
    27   28    9 1
    28    8   22 1
    29    9   22 1
    30    9   10 1
    31   12   23 1
    32   13   24 1
    33   15   22 1
    34   15   26 1
    35   16   27 1
    36   17   28 1
    37   22   26 1
@<TRIPOS>SUBSTRUCTURE
     1 RES1 1

@<TRIPOS>CRYSIN
   7.5300    7.9990   12.4540  90.0000  90.0000  90.0000  62 1

