# MOL2 file generated by ConQuest
# Please check atom types

@<TRIPOS>MOLECULE
KOVHIM
    24    24     1
SMALL
NO_CHARGES
****
Generated from CSD

@<TRIPOS>ATOM
      1 C1         0.7715    1.6327    8.4151 C.2       1 RES1    0.0000
      2 N1         1.6573    0.6681    7.9865 N.pl3     1 RES1    0.0000
      3 O1         1.8985    0.6441    6.7617 O.2       1 RES1    0.0000
      4 O2         2.1959   -0.1430    8.7686 O.2       1 RES1    0.0000
      5 N2         0.4364    1.8404    9.7328 N.pl3     1 RES1    0.0000
      6 O3         0.8995    1.1535   10.6594 O.2       1 RES1    0.0000
      7 O4        -0.3701    2.7663    9.9506 O.2       1 RES1    0.0000
      8 C2         0.0617    2.4020    7.3777 C.2       1 RES1    0.0000
      9 N3        -0.9382    1.7913    6.7831 N.3       1 RES1    0.0000
     10 C3        -1.5845    2.1379    5.5047 C.3       1 RES1    0.0000
     11 C4        -0.6390    2.7830    4.5512 C.3       1 RES1    0.0000
     12 C5        -0.3158    4.2528    4.8494 C.3       1 RES1    0.0000
     13 C6        -0.3305    4.5785    6.3189 C.3       1 RES1    0.0000
     14 N4         0.4419    3.6244    7.1170 N.3       1 RES1    0.0000
     15 H1        -1.0542    1.0533    7.0884 H         1 RES1    0.0000
     16 H2        -1.9049    1.2589    5.1119 H         1 RES1    0.0000
     17 H3        -2.3901    2.7997    5.6672 H         1 RES1    0.0000
     18 H4        -1.0487    2.7204    3.6817 H         1 RES1    0.0000
     19 H5         0.2477    2.1692    4.5334 H         1 RES1    0.0000
     20 H6        -0.9382    4.7915    4.4209 H         1 RES1    0.0000
     21 H7         0.5506    4.4408    4.5084 H         1 RES1    0.0000
     22 H8        -1.2301    4.5754    6.6742 H         1 RES1    0.0000
     23 H9         0.1178    5.4011    6.4921 H         1 RES1    0.0000
     24 H10        1.0864    3.9031    7.5437 H         1 RES1    0.0000
@<TRIPOS>BOND
     1    1    2 1
     2    2    3 2
     3    4    2 2
     4    5    1 1
     5    6    5 2
     6    7    5 2
     7    8    1 2
     8    9    8 1
     9   10    9 1
    10   11   10 1
    11   12   11 1
    12   13   12 1
    13   14    8 1
    14   15    9 1
    15   16   10 1
    16   17   10 1
    17   18   11 1
    18   19   11 1
    19   20   12 1
    20   21   12 1
    21   22   13 1
    22   23   13 1
    23   24   14 1
    24   13   14 1
@<TRIPOS>SUBSTRUCTURE
     1 RES1 1

@<TRIPOS>CRYSIN
   9.2070   10.4390   17.8550  90.0000  90.0000  90.0000  61 1

