# MOL2 file generated by ConQuest
# Please check atom types

@<TRIPOS>MOLECULE
KOVHAE
    36    36     2
SMALL
NO_CHARGES
****
Generated from CSD

@<TRIPOS>ATOM
      1 C1         1.0862    3.7012    2.6381 C.2       1 RES1    0.0000
      2 C2         1.1267    3.8623    1.2179 C.2       1 RES1    0.0000
      3 N1         1.2722    2.8813    0.3439 N.3       1 RES1    0.0000
      4 C3         1.3317    3.3931   -1.0180 C.3       1 RES1    0.0000
      5 C4         1.0662    4.8504   -0.8405 C.3       1 RES1    0.0000
      6 N2         1.0424    5.0233    0.5952 N.3       1 RES1    0.0000
      7 N3         0.8995    4.8148    3.4906 N.pl3     1 RES1    0.0000
      8 O1         0.4864    5.8621    2.9735 O.2       1 RES1    0.0000
      9 O2         1.1589    4.7603    4.6776 O.2       1 RES1    0.0000
     10 N4         1.2400    2.4358    3.2299 N.pl3     1 RES1    0.0000
     11 O3         1.4972    1.4833    2.4846 O.2       1 RES1    0.0000
     12 O4         1.1093    2.2652    4.4392 O.2       1 RES1    0.0000
     13 C5         4.7315    1.7226    1.5747 C.2       2 RES2    0.0000
     14 C6         4.6367    1.9193    2.9975 C.2       2 RES2    0.0000
     15 N5         4.4547    3.0969    3.5781 N.3       2 RES2    0.0000
     16 C7         4.4344    2.9974    5.0404 C.3       2 RES2    0.0000
     17 C8         4.6122    1.5023    5.2823 C.3       2 RES2    0.0000
     18 N6         4.7459    0.9739    3.9229 N.3       2 RES2    0.0000
     19 N7         4.9429    0.4289    1.0438 N.pl3     2 RES2    0.0000
     20 O5         5.0505   -0.5023    1.8148 O.2       2 RES2    0.0000
     21 O6         5.0102    0.2369   -0.1347 O.2       2 RES2    0.0000
     22 N8         4.5948    2.7865    0.6844 N.pl3     2 RES2    0.0000
     23 O7         4.3902    3.9120    1.1501 O.2       2 RES2    0.0000
     24 O8         4.6816    2.6396   -0.5129 O.2       2 RES2    0.0000
     25 H1         1.3709    2.0733    0.5120 H         1 RES1    0.0000
     26 H2         2.1971    3.2462   -1.4048 H         1 RES1    0.0000
     27 H3         0.6600    2.9856   -1.5704 H         1 RES1    0.0000
     28 H4         0.2224    5.0944   -1.2282 H         1 RES1    0.0000
     29 H5         1.7648    5.3764   -1.2367 H         1 RES1    0.0000
     30 H6         0.8578    5.8100    0.9323 H         1 RES1    0.0000
     31 H7         4.2969    3.8575    3.0481 H         2 RES2    0.0000
     32 H8         5.1537    3.4998    5.4307 H         2 RES2    0.0000
     33 H9         3.5984    3.3078    5.3964 H         2 RES2    0.0000
     34 H10        3.8468    1.1279    5.7248 H         2 RES2    0.0000
     35 H11        5.4004    1.3269    5.8012 H         2 RES2    0.0000
     36 H12        4.8386    0.1706    3.6888 H         2 RES2    0.0000
@<TRIPOS>BOND
     1    1    2 2
     2    2    3 1
     3    3    4 1
     4    4    5 1
     5    5    6 1
     6    6    2 1
     7    7    1 1
     8    8    7 2
     9    9    7 2
    10   10    1 1
    11   11   10 2
    12   12   10 2
    13   13   14 2
    14   14   15 1
    15   15   16 1
    16   16   17 1
    17   17   18 1
    18   18   14 1
    19   19   13 1
    20   20   19 2
    21   21   19 2
    22   22   13 1
    23   23   22 2
    24   24   22 2
    25   25    3 1
    26   26    4 1
    27   27    4 1
    28   28    5 1
    29   29    5 1
    30   30    6 1
    31   31   15 1
    32   32   16 1
    33   33   16 1
    34   34   17 1
    35   35   17 1
    36   36   18 1
@<TRIPOS>SUBSTRUCTURE
     1 RES1 1
     2 RES2 13

@<TRIPOS>CRYSIN
   6.6870   23.6950    8.5840  90.0000  92.3900  90.0000  14 2

