# MOL2 file generated by ConQuest
# Please check atom types

@<TRIPOS>MOLECULE
KOWRUJ
    31    32     1
SMALL
NO_CHARGES
****
Generated from CSD

@<TRIPOS>ATOM
      1 C1         4.2042   13.5544   13.0056 C.3       1 RES1    0.0000
      2 H1         4.4518   14.1089   12.2621 H         1 RES1    0.0000
      3 C2         4.7104   12.1953   12.6746 C.2       1 RES1    0.0000
      4 H2         4.4320   11.7600   11.8656 H         1 RES1    0.0000
      5 C3         5.4547   11.4652   13.4683 C.2       1 RES1    0.0000
      6 H3         5.7542   10.6134   13.1418 H         1 RES1    0.0000
      7 C4         5.8797   11.9076   14.8761 C.3       1 RES1    0.0000
      8 H4         6.8243   11.7472   14.9338 H         1 RES1    0.0000
      9 C5         6.3424   14.0361   16.1234 C.ar      1 RES1    0.0000
     10 H5         6.9402   13.5224   16.6715 H         1 RES1    0.0000
     11 C6         6.1914   15.3878   16.3157 C.ar      1 RES1    0.0000
     12 H6         6.6016   15.8321   17.0615 H         1 RES1    0.0000
     13 C7         5.4048   16.1544   15.4945 C.ar      1 RES1    0.0000
     14 H7         5.2947   17.0985   15.6298 H         1 RES1    0.0000
     15 C8         4.7462   15.5270   14.4383 C.ar      1 RES1    0.0000
     16 H8         4.2310   16.0659   13.8331 H         1 RES1    0.0000
     17 C9         4.8243   14.1448   14.2379 C.ar      1 RES1    0.0000
     18 C10        5.6416   13.3928   15.1086 C.ar      1 RES1    0.0000
     19 C11        5.1770   11.0172   15.8444 C.3       1 RES1    0.0000
     20 N1         2.6579   13.4928   13.1529 N.pl3     1 RES1    0.0000
     21 N2         3.6634   10.9141   15.5799 N.pl3     1 RES1    0.0000
     22 N3         5.6960    9.5469   15.8981 N.pl3     1 RES1    0.0000
     23 N4         5.4035   11.4185   17.3291 N.pl3     1 RES1    0.0000
     24 O1         2.0991   14.4643   13.5769 O.2       1 RES1    0.0000
     25 O2         2.0902   12.5122   12.8645 O.2       1 RES1    0.0000
     26 O3         3.0572   11.9486   15.7295 O.2       1 RES1    0.0000
     27 O4         3.2572    9.8602   15.1574 O.2       1 RES1    0.0000
     28 O5         5.2902    8.8453   16.7944 O.2       1 RES1    0.0000
     29 O6         6.4954    9.2495   15.0294 O.2       1 RES1    0.0000
     30 O7         6.5766   11.3827   17.6470 O.2       1 RES1    0.0000
     31 O8         4.4462   11.7569   17.9801 O.2       1 RES1    0.0000
@<TRIPOS>BOND
     1    1    2 1
     2    3    1 1
     3    4    3 1
     4    5    3 2
     5    6    5 1
     6    7    5 1
     7    8    7 1
     8    9   10 1
     9   11    9 ar
    10   12   11 1
    11   13   11 ar
    12   14   13 1
    13   15   13 ar
    14   16   15 1
    15   17    1 1
    16   18    7 1
    17   19    7 1
    18   20    1 1
    19   21   19 1
    20   22   19 1
    21   23   19 1
    22   24   20 2
    23   25   20 2
    24   26   21 2
    25   27   21 2
    26   28   22 2
    27   29   22 2
    28   30   23 2
    29   31   23 2
    30    9   18 ar
    31   15   17 ar
    32   17   18 ar
@<TRIPOS>SUBSTRUCTURE
     1 RES1 1

@<TRIPOS>CRYSIN
   6.4000   12.0850   17.3210  90.0000  90.0000  90.0000  19 1

