# MOL2 file generated by ConQuest
# Please check atom types

@<TRIPOS>MOLECULE
KOWXOJ02
    18    18     1
SMALL
NO_CHARGES
****
Generated from CSD

@<TRIPOS>ATOM
      1 O1        -0.3768    1.8266    5.3512 O.3       1 RES1    0.0000
      2 H1        -0.1147    1.2940    5.9456 H         1 RES1    0.0000
      3 N1         1.5594    3.8372    1.7540 N.ar      1 RES1    0.0000
      4 N2         0.7316    2.4536    4.7636 N.2       1 RES1    0.0000
      5 C1         0.3970    3.1662    3.7507 C.2       1 RES1    0.0000
      6 C2         2.5215    4.5049    3.8466 C.ar      1 RES1    0.0000
      7 H2         2.4680    4.5303    4.7946 H         1 RES1    0.0000
      8 C3         1.5354    3.8619    3.0971 C.ar      1 RES1    0.0000
      9 C4         3.6062    5.0783    1.7963 C.ar      1 RES1    0.0000
     10 H3         4.3181    5.4859    1.3169 H         1 RES1    0.0000
     11 C5         2.5756    4.4458    1.1301 C.ar      1 RES1    0.0000
     12 H4         2.5879    4.4423    0.1801 H         1 RES1    0.0000
     13 C6        -0.9751    3.3149    3.1772 C.3       1 RES1    0.0000
     14 H5        -1.1863    2.5299    2.6295 H         1 RES1    0.0000
     15 H6        -1.0110    4.1206    2.6209 H         1 RES1    0.0000
     16 H7        -1.6267    3.3904    3.9050 H         1 RES1    0.0000
     17 C7         3.5780    5.1039    3.1836 C.ar      1 RES1    0.0000
     18 H8         4.2742    5.5267    3.6718 H         1 RES1    0.0000
@<TRIPOS>BOND
     1    1    2 1
     2    3    8 ar
     3    4    1 1
     4    5    4 2
     5    6    7 1
     6    8    5 1
     7    9   10 1
     8   11    3 ar
     9   12   11 1
    10   13    5 1
    11   14   13 1
    12   15   13 1
    13   16   13 1
    14   17    6 ar
    15   18   17 1
    16    6    8 ar
    17    9   11 ar
    18    9   17 ar
@<TRIPOS>SUBSTRUCTURE
     1 RES1 1

@<TRIPOS>CRYSIN
   7.9610    7.9974   10.5890  90.0000  95.4230  90.0000  14 1

