# MOL2 file generated by ConQuest
# Please check atom types

@<TRIPOS>MOLECULE
KOXBUW
    34    35     1
SMALL
NO_CHARGES
****
Generated from CSD

@<TRIPOS>ATOM
      1 O1         6.0864    7.6433    0.2259 O.3       1 RES1    0.0000
      2 H1         6.3840    8.1711   -0.4874 H         1 RES1    0.0000
      3 O2         4.1269   10.3528    2.2267 O.2       1 RES1    0.0000
      4 N1         3.8534    6.3936    3.5425 N.ar      1 RES1    0.0000
      5 N2         5.4013    8.5179    1.0261 N.2       1 RES1    0.0000
      6 N3         3.4875    8.9549    3.9054 N.am      1 RES1    0.0000
      7 H2         3.4478    8.0962    4.1214 H         1 RES1    0.0000
      8 N4         2.9280    9.9702    4.6496 N.2       1 RES1    0.0000
      9 N5         1.0819   10.3372    7.6502 N.ar      1 RES1    0.0000
     10 C1         3.6124    5.1392    3.9358 C.ar      1 RES1    0.0000
     11 H3         3.1202    5.0047    4.7373 H         1 RES1    0.0000
     12 C2         4.0437    4.0269    3.2361 C.ar      1 RES1    0.0000
     13 H4         3.8470    3.1477    3.5368 H         1 RES1    0.0000
     14 C3         4.7675    4.2420    2.0907 C.ar      1 RES1    0.0000
     15 H5         5.0828    3.5024    1.5847 H         1 RES1    0.0000
     16 C4         5.0407    5.5332    1.6673 C.ar      1 RES1    0.0000
     17 H6         5.5500    5.6851    0.8788 H         1 RES1    0.0000
     18 C5         4.5562    6.6086    2.4180 C.ar      1 RES1    0.0000
     19 C6         4.7407    8.0377    2.0201 C.2       1 RES1    0.0000
     20 C7         4.0838    9.2349    2.7305 C.2       1 RES1    0.0000
     21 C8         2.2777    9.5953    5.6936 C.2       1 RES1    0.0000
     22 C9         2.0679    8.1679    6.1223 C.3       1 RES1    0.0000
     23 H7         1.7421    7.6432    5.3616 H         1 RES1    0.0000
     24 H8         1.4081    8.1374    6.8454 H         1 RES1    0.0000
     25 H9         2.9165    7.7939    6.4384 H         1 RES1    0.0000
     26 C10        1.7027   10.6963    6.5186 C.ar      1 RES1    0.0000
     27 C11        1.8027   12.0286    6.1158 C.ar      1 RES1    0.0000
     28 H10        2.2529   12.2557    5.3111 H         1 RES1    0.0000
     29 C12        1.2363   13.0133    6.9058 C.ar      1 RES1    0.0000
     30 H11        1.2914   13.9264    6.6497 H         1 RES1    0.0000
     31 C13        0.5896   12.6528    8.0720 C.ar      1 RES1    0.0000
     32 H12        0.1858   13.3059    8.6318 H         1 RES1    0.0000
     33 C14        0.5484   11.3142    8.3974 C.ar      1 RES1    0.0000
     34 H13        0.1134   11.0670    9.2044 H         1 RES1    0.0000
@<TRIPOS>BOND
     1    1    2 1
     2    3   20 2
     3    4   10 ar
     4    5    1 1
     5    6    7 1
     6    8    6 1
     7    9   26 ar
     8   10   11 1
     9   12   10 ar
    10   13   12 1
    11   14   12 ar
    12   15   14 1
    13   16   14 ar
    14   17   16 1
    15   18    4 ar
    16   19    5 2
    17   20    6 1
    18   21    8 2
    19   22   21 1
    20   23   22 1
    21   24   22 1
    22   25   22 1
    23   26   21 1
    24   27   26 ar
    25   28   27 1
    26   29   27 ar
    27   30   29 1
    28   31   29 ar
    29   32   31 1
    30   33    9 ar
    31   34   33 1
    32   16   18 ar
    33   18   19 1
    34   19   20 1
    35   31   33 ar
@<TRIPOS>SUBSTRUCTURE
     1 RES1 1

@<TRIPOS>CRYSIN
  11.4319    9.3598   12.4297  90.0000 105.0160  90.0000 231 1

