# MOL2 file generated by ConQuest
# Please check atom types

@<TRIPOS>MOLECULE
KOXBOO
    20    21     1
SMALL
NO_CHARGES
****
Generated from CSD

@<TRIPOS>ATOM
      1 O1         2.3049    0.3739    7.5824 O.2       1 RES1    0.0000
      2 O2         0.4576    0.1982    6.2817 O.3       1 RES1    0.0000
      3 N1         1.8596    0.2277    6.4287 N.pl3     1 RES1    0.0000
      4 N2         0.1804    0.0323    4.9258 N.2       1 RES1    0.0000
      5 N3         1.4291    0.2720    2.9838 N.3       1 RES1    0.0000
      6 C1         2.4306    0.0696    5.2385 C.2       1 RES1    0.0000
      7 C2         1.3499   -0.0520    4.3224 C.2       1 RES1    0.0000
      8 C3         3.8778    0.0450    5.0582 C.ar      1 RES1    0.0000
      9 C4         4.4349   -0.6965    4.0184 C.ar      1 RES1    0.0000
     10 C5         5.8033   -0.7330    3.8341 C.ar      1 RES1    0.0000
     11 C6         6.6381   -0.0323    4.6750 C.ar      1 RES1    0.0000
     12 C7         6.1045    0.7155    5.7096 C.ar      1 RES1    0.0000
     13 C8         4.7278    0.7569    5.9012 C.ar      1 RES1    0.0000
     14 H1         3.9005   -1.1596    3.4529 H         1 RES1    0.0000
     15 H2         6.2095   -1.3002    3.1003 H         1 RES1    0.0000
     16 H3         7.5915   -0.1054    4.5706 H         1 RES1    0.0000
     17 H4         6.7651    1.2440    6.3137 H         1 RES1    0.0000
     18 H5         4.3135    1.2791    6.5931 H         1 RES1    0.0000
     19 H6         2.1787   -0.0281    2.6346 H         1 RES1    0.0000
     20 H7         0.4696   -0.2600    2.4283 H         1 RES1    0.0000
@<TRIPOS>BOND
     1    1    3 1
     2    2    3 1
     3    3    6 2
     4    4    2 1
     5    5    7 1
     6    6    7 1
     7    7    4 2
     8    8    6 1
     9    9    8 ar
    10   10    9 ar
    11   11   10 ar
    12   12   11 ar
    13   13    8 ar
    14   14    9 1
    15   15   10 1
    16   16   11 1
    17   17   12 1
    18   18   13 1
    19   19    5 1
    20   20    5 1
    21   12   13 ar
@<TRIPOS>SUBSTRUCTURE
     1 RES1 1

@<TRIPOS>CRYSIN
  17.2820    7.0280    6.7560  90.0000 100.0200  90.0000  14 1

