# MOL2 file generated by ConQuest
# Please check atom types

@<TRIPOS>MOLECULE
KOXHUC
    90    94     2
SMALL
NO_CHARGES
****
Generated from CSD

@<TRIPOS>ATOM
      1 O1         3.7971   -0.2771   14.2792 O.2       1 RES1    0.0000
      2 O2         7.7508    3.2544   13.8003 O.2       1 RES1    0.0000
      3 O3         7.9658    4.1349   11.8476 O.2       1 RES1    0.0000
      4 N1         4.0144   -2.7144   12.7543 N.pl3     1 RES1    0.0000
      5 N2         4.1423   -1.4248   10.9368 N.2       1 RES1    0.0000
      6 N3         7.3444    3.4756   12.6760 N.pl3     1 RES1    0.0000
      7 C1         5.0009   -2.8523   14.9922 C.ar      1 RES1    0.0000
      8 H1         5.7028   -2.3074   14.7176 H         1 RES1    0.0000
      9 C2         4.9623   -3.3442   16.2839 C.ar      1 RES1    0.0000
     10 H2         5.6347   -3.1184   16.8849 H         1 RES1    0.0000
     11 C3         3.9273   -4.1715   16.6894 C.ar      1 RES1    0.0000
     12 H3         3.9090   -4.5020   17.5585 H         1 RES1    0.0000
     13 C4         2.9239   -4.5061   15.8028 C.ar      1 RES1    0.0000
     14 H4         2.2325   -5.0658   16.0761 H         1 RES1    0.0000
     15 C5         2.9417   -4.0119   14.5077 C.ar      1 RES1    0.0000
     16 H5         2.2642   -4.2331   13.9099 H         1 RES1    0.0000
     17 C6         3.9841   -3.1811   14.1120 C.ar      1 RES1    0.0000
     18 C7         3.9780   -3.5387   11.6619 C.2       1 RES1    0.0000
     19 H6         3.9127   -4.4673   11.6668 H         1 RES1    0.0000
     20 C8         4.0565   -2.7342   10.5699 C.2       1 RES1    0.0000
     21 H7         4.0524   -3.0360    9.6909 H         1 RES1    0.0000
     22 C9         4.1128   -1.4332   12.2628 C.2       1 RES1    0.0000
     23 C10        4.0571   -0.2188   13.0959 C.2       1 RES1    0.0000
     24 C11        4.3049    1.1194   12.4159 C.3       1 RES1    0.0000
     25 H8         4.3214    0.9910   11.4446 H         1 RES1    0.0000
     26 C12        3.1622    2.0753   12.7817 C.3       1 RES1    0.0000
     27 H9         2.3194    1.6395   12.6302 H         1 RES1    0.0000
     28 H10        3.2172    2.8625   12.2360 H         1 RES1    0.0000
     29 H11        3.2338    2.3204   13.7061 H         1 RES1    0.0000
     30 C13        5.7007    1.6015   12.8940 C.3       1 RES1    0.0000
     31 H12        5.6745    1.7067   13.8679 H         1 RES1    0.0000
     32 C14        5.9930    2.9627   12.2696 C.3       1 RES1    0.0000
     33 H13        5.9560    2.8864   11.3034 H         1 RES1    0.0000
     34 H14        5.3129    3.5955   12.5472 H         1 RES1    0.0000
     35 C15        6.7680    0.5706   12.5504 C.ar      1 RES1    0.0000
     36 C16        7.0554    0.2578   11.2259 C.ar      1 RES1    0.0000
     37 H15        6.6319    0.7243   10.5417 H         1 RES1    0.0000
     38 C17        7.9689   -0.7436   10.9125 C.ar      1 RES1    0.0000
     39 H16        8.1580   -0.9390   10.0226 H         1 RES1    0.0000
     40 C18        8.5974   -1.4495   11.9237 C.ar      1 RES1    0.0000
     41 H17        9.2000   -2.1252   11.7149 H         1 RES1    0.0000
     42 C19        8.3253   -1.1452   13.2453 C.ar      1 RES1    0.0000
     43 H18        8.7492   -1.6178   13.9262 H         1 RES1    0.0000
     44 C20        7.4195   -0.1347   13.5600 C.ar      1 RES1    0.0000
     45 H19        7.2486    0.0716   14.4504 H         1 RES1    0.0000
     46 O4         5.3742    2.3210    9.0397 O.2       2 RES2    0.0000
     47 O5         2.1455   -1.7440    8.1845 O.2       2 RES2    0.0000
     48 O6         1.4094   -1.8268    6.2104 O.2       2 RES2    0.0000
     49 N4         5.3976    4.8789    7.6739 N.pl3     2 RES2    0.0000
     50 N5         5.7258    3.6970    5.8052 N.2       2 RES2    0.0000
     51 N6         2.2370   -1.4870    7.0018 N.pl3     2 RES2    0.0000
     52 C21        5.7438    6.1636    9.7032 C.ar      2 RES2    0.0000
     53 H20        6.5537    6.4689    9.3613 H         2 RES2    0.0000
     54 C22        5.2911    6.6023   10.9450 C.ar      2 RES2    0.0000
     55 H21        5.7932    7.2192   11.4283 H         2 RES2    0.0000
     56 C23        4.1059    6.1315   11.4641 C.ar      2 RES2    0.0000
     57 H22        3.8180    6.4169   12.3005 H         2 RES2    0.0000
     58 C24        3.3417    5.2293   10.7362 C.ar      2 RES2    0.0000
     59 H23        2.5418    4.9097   11.0863 H         2 RES2    0.0000
     60 C25        3.7713    4.8021    9.4836 C.ar      2 RES2    0.0000
     61 H24        3.2544    4.2092    8.9866 H         2 RES2    0.0000
     62 C26        4.9728    5.2675    8.9853 C.ar      2 RES2    0.0000
     63 C27        5.7461    5.7648    6.6831 C.2       2 RES2    0.0000
     64 H25        5.8266    6.6879    6.7630 H         2 RES2    0.0000
     65 C28        5.9493    5.0227    5.5662 C.2       2 RES2    0.0000
     66 H26        6.2071    5.3716    4.7431 H         2 RES2    0.0000
     67 C29        5.4038    3.6309    7.0872 C.2       2 RES2    0.0000
     68 C30        5.2831    2.3590    7.8280 C.2       2 RES2    0.0000
     69 C31        5.0794    1.1047    6.9974 C.3       2 RES2    0.0000
     70 H27        4.9634    1.3554    6.0566 H         2 RES2    0.0000
     71 C32        6.3370    0.2331    7.1387 C.3       2 RES2    0.0000
     72 H28        6.4186   -0.0651    8.0468 H         2 RES2    0.0000
     73 H29        7.1115    0.7482    6.9002 H         2 RES2    0.0000
     74 H30        6.2665   -0.5270    6.5562 H         2 RES2    0.0000
     75 C33        3.7987    0.3962    7.4987 C.3       2 RES2    0.0000
     76 H31        3.9913   -0.0195    8.3652 H         2 RES2    0.0000
     77 C34        3.4101   -0.6989    6.5112 C.3       2 RES2    0.0000
     78 H32        3.1925   -0.2971    5.6553 H         2 RES2    0.0000
     79 H33        4.1647   -1.2946    6.3791 H         2 RES2    0.0000
     80 C35        2.6650    1.3903    7.6818 C.ar      2 RES2    0.0000
     81 C36        2.0576    1.5130    8.9315 C.ar      2 RES2    0.0000
     82 H34        2.3092    0.9498    9.6275 H         2 RES2    0.0000
     83 C37        1.0763    2.4748    9.1401 C.ar      2 RES2    0.0000
     84 H35        0.6781    2.5568    9.9755 H         2 RES2    0.0000
     85 C38        0.6945    3.3067    8.1123 C.ar      2 RES2    0.0000
     86 H36        0.0442    3.9555    8.2618 H         2 RES2    0.0000
     87 C39        1.2683    3.1878    6.8613 C.ar      2 RES2    0.0000
     88 H37        0.9991    3.7473    6.1682 H         2 RES2    0.0000
     89 C40        2.2522    2.2256    6.6455 C.ar      2 RES2    0.0000
     90 H38        2.6364    2.1404    5.8027 H         2 RES2    0.0000
@<TRIPOS>BOND
     1    1   23 2
     2    2    6 2
     3    3    6 2
     4    4   17 1
     5    5   20 1
     6    6   32 1
     7    7    8 1
     8    9    7 ar
     9   10    9 1
    10   11    9 ar
    11   12   11 1
    12   13   11 ar
    13   14   13 1
    14   15   13 ar
    15   16   15 1
    16   17    7 ar
    17   18    4 1
    18   19   18 1
    19   20   18 2
    20   21   20 1
    21   22    4 1
    22   23   22 1
    23   24   23 1
    24   25   24 1
    25   26   24 1
    26   27   26 1
    27   28   26 1
    28   29   26 1
    29   30   24 1
    30   31   30 1
    31   32   30 1
    32   33   32 1
    33   34   32 1
    34   35   30 1
    35   36   35 ar
    36   37   36 1
    37   38   36 ar
    38   39   38 1
    39   40   38 ar
    40   41   40 1
    41   42   40 ar
    42   43   42 1
    43   44   35 ar
    44   45   44 1
    45   46   68 2
    46   47   51 2
    47   48   51 2
    48   49   62 1
    49   50   65 1
    50   51   77 1
    51   52   53 1
    52   54   52 ar
    53   55   54 1
    54   56   54 ar
    55   57   56 1
    56   58   56 ar
    57   59   58 1
    58   60   58 ar
    59   61   60 1
    60   62   52 ar
    61   63   49 1
    62   64   63 1
    63   65   63 2
    64   66   65 1
    65   67   49 1
    66   68   67 1
    67   69   68 1
    68   70   69 1
    69   71   69 1
    70   72   71 1
    71   73   71 1
    72   74   71 1
    73   75   69 1
    74   76   75 1
    75   77   75 1
    76   78   77 1
    77   79   77 1
    78   80   75 1
    79   81   80 ar
    80   82   81 1
    81   83   81 ar
    82   84   83 1
    83   85   83 ar
    84   86   85 1
    85   87   85 ar
    86   88   87 1
    87   89   80 ar
    88   90   89 1
    89    5   22 2
    90   15   17 ar
    91   42   44 ar
    92   50   67 2
    93   60   62 ar
    94   87   89 ar
@<TRIPOS>SUBSTRUCTURE
     1 RES1 1
     2 RES2 46

@<TRIPOS>CRYSIN
   7.8891   21.6859   10.3215  90.0000  97.3074  90.0000   4 1

