# MOL2 file generated by ConQuest
# Please check atom types

@<TRIPOS>MOLECULE
KOYLIT
    16    17     1
SMALL
NO_CHARGES
****
Generated from CSD

@<TRIPOS>ATOM
      1 N1         4.5267    1.8024    8.9050 N.2       1 RES1    0.0000
      2 N2         4.6179    3.0923    9.0067 N.pl3     1 RES1    0.0000
      3 N3         5.1116    3.9855    8.0771 N.2       1 RES1    0.0000
      4 N4         5.4857    3.4542    6.9258 N.pl3     1 RES1    0.0000
      5 O1         4.2520    3.6525   10.0695 O.2       1 RES1    0.0000
      6 O2         5.9767    4.2215    6.0874 O.2       1 RES1    0.0000
      7 C1         4.8777    1.3044    7.6771 C.ar      1 RES1    0.0000
      8 C2         5.3483    2.0861    6.6345 C.ar      1 RES1    0.0000
      9 C3         5.6503    1.5664    5.3738 C.ar      1 RES1    0.0000
     10 C4         5.4979    0.2273    5.2051 C.ar      1 RES1    0.0000
     11 C5         5.0586   -0.5820    6.2477 C.ar      1 RES1    0.0000
     12 C6         4.7512   -0.0738    7.4659 C.ar      1 RES1    0.0000
     13 H1         5.8761    2.2295    4.6483 H         1 RES1    0.0000
     14 H2         5.5496   -0.1592    4.3487 H         1 RES1    0.0000
     15 H3         4.9647   -1.5346    6.0979 H         1 RES1    0.0000
     16 H4         4.4479   -0.6515    8.2234 H         1 RES1    0.0000
@<TRIPOS>BOND
     1    1    2 un
     2    2    3 un
     3    3    4 un
     4    4    6 un
     5    5    2 un
     6    7    1 1
     7    8    4 1
     8    9    8 ar
     9   10    9 ar
    10   11   10 ar
    11   12    7 ar
    12   13    9 1
    13   14   10 1
    14   15   11 1
    15   16   12 1
    16    7    8 ar
    17   11   12 ar
@<TRIPOS>SUBSTRUCTURE
     1 RES1 1

@<TRIPOS>CRYSIN
  13.6020   14.4770    6.9690  90.0000  90.0000  90.0000  61 3

