# MOL2 file generated by ConQuest
# Please check atom types

@<TRIPOS>MOLECULE
KOZTOK01
    26    28     1
SMALL
NO_CHARGES
****
Generated from CSD

@<TRIPOS>ATOM
      1 O1         2.1328    8.4661    1.7074 O.2       1 RES1    0.0000
      2 O2         5.0322    5.6796    1.8542 O.3       1 RES1    0.0000
      3 N1         3.7900    5.3788    2.3608 N.2       1 RES1    0.0000
      4 C1         3.0494    7.6976    1.8267 C.2       1 RES1    0.0000
      5 C2         4.8711    9.2833    1.1300 C.ar      1 RES1    0.0000
      6 C3         4.4399    8.0150    1.4704 C.ar      1 RES1    0.0000
      7 C4         2.8525    6.3332    2.3545 C.2       1 RES1    0.0000
      8 C5         6.7029    7.1852    1.2416 C.ar      1 RES1    0.0000
      9 C6         1.5581    5.9176    2.9524 C.ar      1 RES1    0.0000
     10 C7         5.3487    6.9778    1.5270 C.ar      1 RES1    0.0000
     11 C8         0.8561    6.7676    3.8038 C.ar      1 RES1    0.0000
     12 C9         7.1117    8.4612    0.9043 C.ar      1 RES1    0.0000
     13 C10        1.1030    4.6082    2.7504 C.ar      1 RES1    0.0000
     14 C11        6.1821    9.5144    0.8475 C.ar      1 RES1    0.0000
     15 C12       -0.0473    4.1787    3.3847 C.ar      1 RES1    0.0000
     16 C13       -0.7384    5.0308    4.2366 C.ar      1 RES1    0.0000
     17 C14       -0.2776    6.3137    4.4469 C.ar      1 RES1    0.0000
     18 H1         4.2611    9.9843    1.0942 H         1 RES1    0.0000
     19 H2         7.3113    6.4836    1.2787 H         1 RES1    0.0000
     20 H3         1.1507    7.6398    3.9392 H         1 RES1    0.0000
     21 H4         8.0068    8.6241    0.7126 H         1 RES1    0.0000
     22 H5         1.5725    4.0305    2.1921 H         1 RES1    0.0000
     23 H6         6.4638   10.3706    0.6167 H         1 RES1    0.0000
     24 H7        -0.3600    3.3149    3.2411 H         1 RES1    0.0000
     25 H8        -1.5108    4.7370    4.6645 H         1 RES1    0.0000
     26 H9        -0.7348    6.8783    5.0280 H         1 RES1    0.0000
@<TRIPOS>BOND
     1    1    4 2
     2    2    3 1
     3    3    7 2
     4    4    6 1
     5    5    6 ar
     6    6   10 ar
     7    7    4 1
     8    8   10 ar
     9    9    7 1
    10   10    2 1
    11   11    9 ar
    12   12    8 ar
    13   13    9 ar
    14   14    5 ar
    15   15   13 ar
    16   16   15 ar
    17   17   11 ar
    18   18    5 1
    19   19    8 1
    20   20   11 1
    21   21   12 1
    22   22   13 1
    23   23   14 1
    24   24   15 1
    25   25   16 1
    26   26   17 1
    27   12   14 ar
    28   16   17 ar
@<TRIPOS>SUBSTRUCTURE
     1 RES1 1

@<TRIPOS>CRYSIN
   8.3040    6.9611   18.0870  90.0000  90.4630  90.0000 231 1

