# MOL2 file generated by ConQuest
# Please check atom types

@<TRIPOS>MOLECULE
KUBPAY
    22    22     1
SMALL
NO_CHARGES
****
Generated from CSD

@<TRIPOS>ATOM
      1 N1         1.2370   -0.0288    6.8056 N.3       1 RES1    0.0000
      2 N2         0.7533    1.0579    7.4403 N.pl3     1 RES1    0.0000
      3 O1        -0.4098    0.9906    7.7836 O.2       1 RES1    0.0000
      4 O2         1.4974    2.0165    7.5990 O.2       1 RES1    0.0000
      5 C1         2.5564   -0.2455    6.3911 C.2       1 RES1    0.0000
      6 C2         3.6456    0.7697    6.5476 C.3       1 RES1    0.0000
      7 N3         4.9523    0.1815    6.0015 N.pl3     1 RES1    0.0000
      8 O3         5.5452   -0.5540    6.7506 O.2       1 RES1    0.0000
      9 O4         5.2529    0.4825    4.8789 O.2       1 RES1    0.0000
     10 N4         3.3760    2.0453    5.7456 N.pl3     1 RES1    0.0000
     11 O5         2.6470    1.8628    4.8076 O.2       1 RES1    0.0000
     12 O6         3.9160    3.0616    6.0576 O.2       1 RES1    0.0000
     13 N5         3.9605    1.0269    8.0286 N.pl3     1 RES1    0.0000
     14 O7         4.7583    1.8937    8.2747 O.2       1 RES1    0.0000
     15 O8         3.4062    0.2818    8.7928 O.2       1 RES1    0.0000
     16 N6         2.7713   -1.3525    5.8687 N.2       1 RES1    0.0000
     17 C3         1.5116   -2.1222    5.9162 C.3       1 RES1    0.0000
     18 C4         0.4543   -1.2351    6.5628 C.3       1 RES1    0.0000
     19 H1         1.6494   -2.9548    6.4872 H         1 RES1    0.0000
     20 H2         1.2799   -2.3763    4.9922 H         1 RES1    0.0000
     21 H3         0.0537   -1.5393    7.4414 H         1 RES1    0.0000
     22 H4        -0.2696   -1.0494    5.9810 H         1 RES1    0.0000
@<TRIPOS>BOND
     1    1    2 1
     2    2    3 2
     3    4    2 2
     4    5    1 1
     5    6    5 1
     6    7    6 1
     7    8    7 2
     8    9    7 2
     9   10    6 1
    10   11   10 2
    11   12   10 2
    12   13    6 1
    13   14   13 2
    14   15   13 2
    15   16    5 2
    16   17   16 1
    17   18    1 1
    18   19   17 1
    19   20   17 1
    20   21   18 1
    21   22   18 1
    22   17   18 1
@<TRIPOS>SUBSTRUCTURE
     1 RES1 1

@<TRIPOS>CRYSIN
   8.3980   10.6750   10.7940  90.0000  90.0000  90.0000  19 1

