# MOL2 file generated by ConQuest
# Please check atom types

@<TRIPOS>MOLECULE
KUBPEC
    45    46     1
SMALL
NO_CHARGES
****
Generated from CSD

@<TRIPOS>ATOM
      1 C1         0.6897   12.5661    9.2455 C.3       1 RES1    0.0000
      2 N1         1.0764   12.1717    7.9377 N.2       1 RES1    0.0000
      3 C2         1.8109   11.1713    7.7444 C.2       1 RES1    0.0000
      4 C3         2.2424   10.9006    6.3373 C.3       1 RES1    0.0000
      5 N2         3.6792   11.4072    6.0768 N.pl3     1 RES1    0.0000
      6 O1         4.2255   10.9599    5.0698 O.2       1 RES1    0.0000
      7 O2         4.0855   12.1279    6.8905 O.2       1 RES1    0.0000
      8 N3         1.9876    9.5148    5.7492 N.pl3     1 RES1    0.0000
      9 O3         2.2516    9.3241    4.5945 O.2       1 RES1    0.0000
     10 O4         1.4024    8.8007    6.5092 O.2       1 RES1    0.0000
     11 N4         1.3255   11.8842    5.3733 N.pl3     1 RES1    0.0000
     12 O5         0.2226   11.4330    5.1934 O.2       1 RES1    0.0000
     13 O6         1.8649   12.8433    4.9839 O.2       1 RES1    0.0000
     14 N5         2.2206   10.2445    8.7594 N.3       1 RES1    0.0000
     15 N6         3.3269    9.4298    8.7380 N.pl3     1 RES1    0.0000
     16 O7         3.9191    9.4001    7.6397 O.2       1 RES1    0.0000
     17 O8         3.6379    8.8355    9.7369 O.2       1 RES1    0.0000
     18 C4         1.4976   10.3940   10.0215 C.3       1 RES1    0.0000
     19 C5         1.3966   11.8520   10.4055 C.3       1 RES1    0.0000
     20 C6         0.6702   12.0789   11.6999 C.3       1 RES1    0.0000
     21 N7         1.4058   11.6548   12.9190 N.2       1 RES1    0.0000
     22 C7         2.6372   11.4292   12.8492 C.2       1 RES1    0.0000
     23 C8         3.2615   10.9470   14.1113 C.3       1 RES1    0.0000
     24 N8         2.2195   11.0992   15.2955 N.pl3     1 RES1    0.0000
     25 O9         1.5493   10.1040   15.4754 O.2       1 RES1    0.0000
     26 O10        2.1839   12.1833   15.7735 O.2       1 RES1    0.0000
     27 N9         4.4401   11.8210   14.6322 N.pl3     1 RES1    0.0000
     28 O11        4.4906   12.8936   14.1139 O.2       1 RES1    0.0000
     29 O12        5.1550   11.3428   15.4593 O.2       1 RES1    0.0000
     30 N10        3.5989    9.4555   14.0441 N.pl3     1 RES1    0.0000
     31 O13        3.1066    8.8845   13.1392 O.2       1 RES1    0.0000
     32 O14        4.2094    8.9773   15.0055 O.2       1 RES1    0.0000
     33 N11        3.4589   11.7257   11.7052 N.3       1 RES1    0.0000
     34 N12        4.7316   11.2036   11.5119 N.pl3     1 RES1    0.0000
     35 O15        5.2434   11.4627   10.4539 O.2       1 RES1    0.0000
     36 O16        5.2147   10.5448   12.4652 O.2       1 RES1    0.0000
     37 C9         2.7898   12.4527   10.6499 C.3       1 RES1    0.0000
     38 H1         0.8607   13.5072    9.3287 H         1 RES1    0.0000
     39 H2        -0.2525   12.4037    9.3314 H         1 RES1    0.0000
     40 H3         0.6140   10.0318    9.9249 H         1 RES1    0.0000
     41 H4         1.9647    9.9170   10.7117 H         1 RES1    0.0000
     42 H5        -0.1526   11.5851   11.6649 H         1 RES1    0.0000
     43 H6         0.4774   13.0160   11.7804 H         1 RES1    0.0000
     44 H7         2.7049   13.3744   10.9077 H         1 RES1    0.0000
     45 H8         3.3074   12.3921    9.8443 H         1 RES1    0.0000
@<TRIPOS>BOND
     1    1    2 1
     2    2    3 2
     3    3    4 1
     4    4    5 1
     5    5    6 2
     6    7    5 2
     7    8    4 1
     8    9    8 2
     9   10    8 2
    10   11    4 1
    11   12   11 2
    12   13   11 2
    13   14    3 1
    14   15   14 1
    15   16   15 2
    16   17   15 2
    17   18   14 1
    18   19    1 1
    19   20   19 1
    20   21   20 1
    21   22   21 2
    22   23   22 1
    23   24   23 1
    24   25   24 2
    25   26   24 2
    26   27   23 1
    27   28   27 2
    28   29   27 2
    29   30   23 1
    30   31   30 2
    31   32   30 2
    32   33   22 1
    33   34   33 1
    34   35   34 2
    35   36   34 2
    36   37   19 1
    37   38    1 1
    38   39    1 1
    39   40   18 1
    40   41   18 1
    41   42   20 1
    42   43   20 1
    43   44   37 1
    44   45   37 1
    45   18   19 1
    46   33   37 1
@<TRIPOS>SUBSTRUCTURE
     1 RES1 1

@<TRIPOS>CRYSIN
  11.4760   12.8910   26.8530  90.0000  90.0000  90.0000  61 3

