# MOL2 file generated by ConQuest
# Please check atom types

@<TRIPOS>MOLECULE
KUBPOM
    23    23     1
SMALL
NO_CHARGES
****
Generated from CSD

@<TRIPOS>ATOM
      1 N1        -0.6979    2.8204    8.6316 N.3       1 RES1    0.0000
      2 N2        -1.4780    1.7111    9.0003 N.pl3     1 RES1    0.0000
      3 O1        -1.6379    0.8266    8.1999 O.2       1 RES1    0.0000
      4 O2        -1.9280    1.7342   10.1245 O.2       1 RES1    0.0000
      5 C1        -0.0104    2.8600    7.4435 C.2       1 RES1    0.0000
      6 C2         0.1459    1.7334    6.5216 C.2       1 RES1    0.0000
      7 N3         0.9327    0.6819    6.8977 N.pl3     1 RES1    0.0000
      8 O3         1.3849    0.7382    8.0690 O.2       1 RES1    0.0000
      9 O4         1.1694   -0.2835    6.1444 O.2       1 RES1    0.0000
     10 N4        -0.6531    1.7491    5.3870 N.pl3     1 RES1    0.0000
     11 O5        -0.4554    0.9927    4.4294 O.2       1 RES1    0.0000
     12 O6        -1.5763    2.5848    5.4153 O.2       1 RES1    0.0000
     13 N5         0.5782    3.9602    7.1292 N.3       1 RES1    0.0000
     14 C3         0.5076    5.2365    7.8469 C.3       1 RES1    0.0000
     15 C4        -0.6995    5.2324    8.7300 C.3       1 RES1    0.0000
     16 C5        -0.6997    3.9718    9.5451 C.3       1 RES1    0.0000
     17 H1         1.0729    3.9569    6.4147 H         1 RES1    0.0000
     18 H2         1.4066    5.3051    8.3958 H         1 RES1    0.0000
     19 H3         0.4573    5.8780    7.1806 H         1 RES1    0.0000
     20 H4        -0.6634    6.0350    9.3722 H         1 RES1    0.0000
     21 H5        -1.5110    5.2638    8.1779 H         1 RES1    0.0000
     22 H6        -1.4477    3.8495   10.0427 H         1 RES1    0.0000
     23 H7         0.1004    3.8966   10.1119 H         1 RES1    0.0000
@<TRIPOS>BOND
     1    1    2 1
     2    2    3 2
     3    4    2 2
     4    5    1 1
     5    6    5 2
     6    7    6 1
     7    8    7 2
     8    9    7 2
     9   10    6 1
    10   11   10 2
    11   12   10 2
    12   13    5 1
    13   14   13 1
    14   15   14 1
    15   16    1 1
    16   17   13 1
    17   18   14 1
    18   19   14 1
    19   20   15 1
    20   21   15 1
    21   22   16 1
    22   23   16 1
    23   15   16 1
@<TRIPOS>SUBSTRUCTURE
     1 RES1 1

@<TRIPOS>CRYSIN
   9.9720    8.2660   10.7710  90.0000 103.4300  90.0000  14 2

