# MOL2 file generated by ConQuest
# Please check atom types

@<TRIPOS>MOLECULE
KUCKUQ
    45    47     2
SMALL
NO_CHARGES
****
Generated from CSD

@<TRIPOS>ATOM
      1 O1        -1.0874    7.7048   12.6491 O.3       1 RES1    0.0000
      2 H1        -0.5203    8.3487   12.2944 H         1 RES1    0.0000
      3 O2        -2.5247    8.2101   15.1021 O.2       1 RES1    0.0000
      4 N1        -1.6227    9.0474   15.1396 N.pl3     1 RES1    0.0000
      5 O3        -0.6539    8.9739   15.8947 O.2       1 RES1    0.0000
      6 N2        -4.1993    9.0281   11.8013 N.2       1 RES1    0.0000
      7 N3        -2.3348    7.9841   12.2085 N.pl3     1 RES1    0.0000
      8 O4         0.6354    2.9593    9.7921 O.2       1 RES1    0.0000
      9 C1        -4.2015    7.8742   11.0556 C.2       1 RES1    0.0000
     10 N4        -0.0792    3.3678   10.7108 N.pl3     1 RES1    0.0000
     11 N5        -1.7189    5.1020   11.3506 N.pl3     1 RES1    0.0000
     12 O5        -0.0457    2.9047   11.8533 O.2       1 RES1    0.0000
     13 N6        -2.0277    6.0706    9.3543 N.2       1 RES1    0.0000
     14 C2        -5.3428    7.5260   10.1980 C.ar      1 RES1    0.0000
     15 C3        -3.0494    9.0781   12.4951 C.2       1 RES1    0.0000
     16 C4        -2.3223    6.0991   10.6584 C.2       1 RES1    0.0000
     17 C5        -6.1399    8.5387    9.6594 C.ar      1 RES1    0.0000
     18 H2        -5.9107    9.4495    9.7971 H         1 RES1    0.0000
     19 C6        -0.9827    4.4183   10.4096 C.2       1 RES1    0.0000
     20 C7        -5.6745    6.1934    9.9574 C.ar      1 RES1    0.0000
     21 H3        -5.1246    5.4996   10.3021 H         1 RES1    0.0000
     22 C8        -1.1948    5.0153    9.1978 C.2       1 RES1    0.0000
     23 H4        -0.8159    4.7334    8.3734 H         1 RES1    0.0000
     24 C9        -2.5473   10.2574   13.2101 C.ar      1 RES1    0.0000
     25 C10       -6.7999    5.8784    9.2172 C.ar      1 RES1    0.0000
     26 H5        -7.0219    4.9687    9.0581 H         1 RES1    0.0000
     27 C11       -7.2693    8.2089    8.9209 C.ar      1 RES1    0.0000
     28 H6        -7.8140    8.8991    8.5608 H         1 RES1    0.0000
     29 C12       -7.6087    6.8861    8.7041 C.ar      1 RES1    0.0000
     30 H7        -8.3884    6.6679    8.2076 H         1 RES1    0.0000
     31 C13       -3.0227    7.2048   11.2928 C.2       1 RES1    0.0000
     32 C14       -1.9112    4.8130   12.7831 C.3       1 RES1    0.0000
     33 H8        -2.5667    5.4383   13.1573 H         1 RES1    0.0000
     34 H9        -1.0573    4.9148   13.2533 H         1 RES1    0.0000
     35 H10       -2.2365    3.8960   12.8908 H         1 RES1    0.0000
     36 C15       -1.7381   10.2403   14.3285 C.ar      1 RES1    0.0000
     37 C16       -2.7528   11.4981   12.6002 C.ar      1 RES1    0.0000
     38 H11       -3.3336   11.5545   11.8498 H         1 RES1    0.0000
     39 C17       -2.1355   12.6443   13.0581 C.ar      1 RES1    0.0000
     40 H12       -2.3176   13.4804   12.6460 H         1 RES1    0.0000
     41 C18       -1.0531   11.3988   14.7638 C.ar      1 RES1    0.0000
     42 H13       -0.4569   11.3608   15.5012 H         1 RES1    0.0000
     43 C19       -1.2682   12.5745   14.0992 C.ar      1 RES1    0.0000
     44 H14       -0.8005   13.3554   14.3703 H         1 RES1    0.0000
     45 O6        -0.9247    8.0054   15.8327 Du        2 SUP2    0.0000
@<TRIPOS>BOND
     1    1    2 1
     2    3    4 2
     3    4    5 2
     4    6    9 1
     5    7    1 1
     6    8   10 2
     7    9   14 1
     8   10   12 2
     9   11   16 1
    10   13   16 2
    11   14   17 ar
    12   15    6 2
    13   16   31 1
    14   17   18 1
    15   19   10 1
    16   20   14 ar
    17   21   20 1
    18   22   13 1
    19   23   22 1
    20   24   15 1
    21   25   20 ar
    22   26   25 1
    23   27   17 ar
    24   28   27 1
    25   29   25 ar
    26   30   29 1
    27   31    7 1
    28   32   11 1
    29   33   32 1
    30   34   32 1
    31   35   32 1
    32   36    4 1
    33   37   24 ar
    34   38   37 1
    35   39   37 ar
    36   40   39 1
    37   41   36 ar
    38   42   41 1
    39   43   39 ar
    40   44   43 1
    41    7   15 1
    42    9   31 2
    43   11   19 1
    44   19   22 2
    45   24   36 ar
    46   27   29 ar
    47   41   43 ar
@<TRIPOS>SUBSTRUCTURE
     1 RES1 1
     2 SUP2 45

@<TRIPOS>CRYSIN
   9.5761   12.2594   15.6831  90.0000  98.9560  90.0000  14 2

