# MOL2 file generated by ConQuest
# Please check atom types

@<TRIPOS>MOLECULE
KUCLAX
    84    90     2
SMALL
USER_CHARGES
****
Generated from CSD

@<TRIPOS>ATOM
      1 O1         4.3959    4.6754    4.5270 O.2       1 RES1   -1.0000
      2 O2         9.6781    3.1261    3.9622 O.2       1 RES1    0.0000
      3 O3         9.9507    4.3815    2.2076 O.2       1 RES1    0.0000
      4 N1         3.8981    3.4798    4.1918 N.pl3     1 RES1    1.0000
      5 N2         9.2474    3.6926    2.9502 N.pl3     1 RES1    0.0000
      6 N3         2.5714    1.7979    3.8833 N.pl3     1 RES1    0.0000
      7 H1         1.9718    1.1974    4.1368 H         1 RES1    0.0000
      8 N4         6.9381    2.9143    3.3540 N.3       1 RES1    0.0000
      9 N5         5.9250    3.7810    1.5546 N.2       1 RES1    0.0000
     10 C1         2.7324    2.9456    4.5865 C.2       1 RES1    0.0000
     11 C2         3.6522    1.5962    3.0585 C.2       1 RES1    0.0000
     12 C3         4.4952    2.6637    3.2465 C.2       1 RES1    0.0000
     13 C4         1.8129    3.4807    5.5846 C.ar      1 RES1    0.0000
     14 C5         0.4647    3.1105    5.5520 C.ar      1 RES1    0.0000
     15 H2         0.1492    2.5127    4.8854 H         1 RES1    0.0000
     16 C6        -0.4122    3.6226    6.5004 C.ar      1 RES1    0.0000
     17 H3        -1.3277    3.3702    6.4817 H         1 RES1    0.0000
     18 C7         0.0453    4.5003    7.4732 C.ar      1 RES1    0.0000
     19 H4        -0.5607    4.8550    8.1149 H         1 RES1    0.0000
     20 C8         1.3741    4.8596    7.5129 C.ar      1 RES1    0.0000
     21 H5         1.6803    5.4629    8.1801 H         1 RES1    0.0000
     22 C9         2.2704    4.3447    6.5832 C.ar      1 RES1    0.0000
     23 H6         3.1900    4.5796    6.6263 H         1 RES1    0.0000
     24 C10        5.7751    3.0874    2.6797 C.2       1 RES1    0.0000
     25 C11        7.2487    4.0942    1.5042 C.2       1 RES1    0.0000
     26 H7         7.6708    4.5906    0.8138 H         1 RES1    0.0000
     27 C12        7.8754    3.5811    2.6023 C.2       1 RES1    0.0000
     28 C13        3.7518    0.4449    2.1691 C.ar      1 RES1    0.0000
     29 C14        2.5947   -0.1501    1.6655 C.ar      1 RES1    0.0000
     30 H8         1.7427    0.2091    1.8884 H         1 RES1    0.0000
     31 C15        3.9169   -1.7740    0.4985 C.ar      1 RES1    0.0000
     32 H9         3.9733   -2.5320   -0.0709 H         1 RES1    0.0000
     33 C16        5.0689   -1.1900    0.9748 C.ar      1 RES1    0.0000
     34 H10        5.9150   -1.5437    0.7315 H         1 RES1    0.0000
     35 C17        2.6818   -1.2628    0.8432 C.ar      1 RES1    0.0000
     36 H11        1.8909   -1.6736    0.5160 H         1 RES1    0.0000
     37 C18        4.9963   -0.0857    1.8110 C.ar      1 RES1    0.0000
     38 H12        5.7936    0.3113    2.1407 H         1 RES1    0.0000
     39 C19        7.0963    2.1433    4.5868 C.3       1 RES1    0.0000
     40 H13        6.2185    1.8311    4.8910 H         1 RES1    0.0000
     41 H14        7.4999    2.7098    5.2767 H         1 RES1    0.0000
     42 H15        7.6763    1.3715    4.4175 H         1 RES1    0.0000
     43 O4         0.8404    9.2881    4.7096 O.2       2 RES2   -1.0000
     44 O5        -5.1352    8.3127    2.8028 O.2       2 RES2    0.0000
     45 O6        -4.6586    6.6907    4.1737 O.2       2 RES2    0.0000
     46 N6         1.2726    8.0695    4.3546 N.pl3     2 RES2    1.0000
     47 N7         2.5604    6.3876    3.9109 N.pl3     2 RES2    0.0000
     48 H16        3.2071    5.8120    4.0404 H         2 RES2    0.0000
     49 N8        -4.3332    7.5684    3.3775 N.pl3     2 RES2    0.0000
     50 N9        -1.9259    7.1309    3.7334 N.3       2 RES2    0.0000
     51 N10       -1.0575    8.4315    2.1243 N.2       2 RES2    0.0000
     52 C20        2.4845    7.5509    4.5888 C.2       2 RES2    0.0000
     53 C21        1.3743    6.1463    3.2658 C.2       2 RES2    0.0000
     54 C22        0.5482    7.2138    3.5465 C.2       2 RES2    0.0000
     55 C23        3.5349    8.1220    5.4210 C.ar      2 RES2    0.0000
     56 C24        3.2306    9.0173    6.4567 C.ar      2 RES2    0.0000
     57 H17        2.3271    9.2586    6.6263 H         2 RES2    0.0000
     58 C25        4.2417    9.5487    7.2325 C.ar      2 RES2    0.0000
     59 H18        4.0321   10.1612    7.9277 H         2 RES2    0.0000
     60 C26        5.5662    9.1914    6.9986 C.ar      2 RES2    0.0000
     61 H19        6.2609    9.5616    7.5308 H         2 RES2    0.0000
     62 C27        5.8670    8.3016    5.9954 C.ar      2 RES2    0.0000
     63 H20        6.7710    8.0502    5.8466 H         2 RES2    0.0000
     64 C28        4.8701    7.7674    5.1987 C.ar      2 RES2    0.0000
     65 H21        5.0904    7.1613    4.5026 H         2 RES2    0.0000
     66 C29       -0.7974    7.5822    3.1121 C.2       2 RES2    0.0000
     67 C30       -2.4142    8.5438    2.1084 C.2       2 RES2    0.0000
     68 H22       -2.9072    9.0919    1.5084 H         2 RES2    0.0000
     69 C31       -2.9574    7.7591    3.0750 C.2       2 RES2    0.0000
     70 C32        1.1709    4.9765    2.3962 C.ar      2 RES2    0.0000
     71 C33        2.2305    4.4736    1.6462 C.ar      2 RES2    0.0000
     72 H23        3.0907    4.8725    1.7097 H         2 RES2    0.0000
     73 C34        2.0307    3.3877    0.8050 C.ar      2 RES2    0.0000
     74 H24        2.7539    3.0497    0.2892 H         2 RES2    0.0000
     75 C35        0.7847    2.7973    0.7131 C.ar      2 RES2    0.0000
     76 H25        0.6511    2.0512    0.1389 H         2 RES2    0.0000
     77 C36       -0.2752    3.3011    1.4656 C.ar      2 RES2    0.0000
     78 H26       -1.1332    2.8977    1.4064 H         2 RES2    0.0000
     79 C37       -0.0799    4.3843    2.2984 C.ar      2 RES2    0.0000
     80 H27       -0.8063    4.7260    2.8070 H         2 RES2    0.0000
     81 C38       -1.9727    6.2200    4.8783 C.3       2 RES2    0.0000
     82 H28       -1.0612    6.0339    5.1859 H         2 RES2    0.0000
     83 H29       -2.4054    5.3818    4.6132 H         2 RES2    0.0000
     84 H30       -2.4840    6.6345    5.6056 H         2 RES2    0.0000
@<TRIPOS>BOND
     1    1    4 1
     2    2    5 2
     3    3    5 2
     4    4   10 2
     5    5   27 1
     6    6    7 1
     7    8   24 1
     8    9   24 2
     9   10    6 1
    10   11    6 1
    11   12    4 1
    12   13   10 1
    13   14   13 ar
    14   15   14 1
    15   16   14 ar
    16   17   16 1
    17   18   16 ar
    18   19   18 1
    19   20   18 ar
    20   21   20 1
    21   22   13 ar
    22   23   22 1
    23   24   12 1
    24   25    9 1
    25   26   25 1
    26   27    8 1
    27   28   11 1
    28   29   28 ar
    29   30   29 1
    30   31   32 1
    31   33   31 ar
    32   34   33 1
    33   35   29 ar
    34   36   35 1
    35   37   28 ar
    36   38   37 1
    37   39    8 1
    38   40   39 1
    39   41   39 1
    40   42   39 1
    41   43   46 1
    42   44   49 2
    43   45   49 2
    44   46   52 2
    45   47   48 1
    46   49   69 1
    47   50   66 1
    48   51   66 2
    49   52   47 1
    50   53   47 1
    51   54   46 1
    52   55   52 1
    53   56   55 ar
    54   57   56 1
    55   58   56 ar
    56   59   58 1
    57   60   58 ar
    58   61   60 1
    59   62   60 ar
    60   63   62 1
    61   64   55 ar
    62   65   64 1
    63   66   54 1
    64   67   51 1
    65   68   67 1
    66   69   50 1
    67   70   53 1
    68   71   70 ar
    69   72   71 1
    70   73   71 ar
    71   74   73 1
    72   75   73 ar
    73   76   75 1
    74   77   75 ar
    75   78   77 1
    76   79   70 ar
    77   80   79 1
    78   81   50 1
    79   82   81 1
    80   83   81 1
    81   84   81 1
    82   11   12 2
    83   20   22 ar
    84   25   27 2
    85   31   35 ar
    86   33   37 ar
    87   53   54 2
    88   62   64 ar
    89   67   69 2
    90   77   79 ar
@<TRIPOS>SUBSTRUCTURE
     1 RES1 1
     2 RES2 43

@<TRIPOS>CRYSIN
  13.3169    9.2107   28.5128  90.0000  96.0520  90.0000  14 1

