# MOL2 file generated by ConQuest
# Please check atom types

@<TRIPOS>MOLECULE
KUCVUB
    79    84     1
SMALL
NO_CHARGES
****
Generated from CSD

@<TRIPOS>ATOM
      1 N1         8.6025    7.8872    9.0402 N.pl3     1 RES1    0.0000
      2 N2         5.4383    5.5265   10.4740 N.2       1 RES1    0.0000
      3 N3         5.3827    4.8636   11.6677 N.am      1 RES1    0.0000
      4 N4         9.0993   -0.1022    9.7786 N.3       1 RES1    0.0000
      5 N5        10.3779    8.2534   13.8385 N.3       1 RES1    0.0000
      6 O1         9.3923    8.6716    8.5858 O.2       1 RES1    0.0000
      7 O2         8.7020    7.4873   10.1558 O.2       1 RES1    0.0000
      8 O3         3.0760    4.9890   11.7762 O.2       1 RES1    0.0000
      9 O4         9.3896    3.7990   12.4881 O.3       1 RES1    0.0000
     10 C1         7.5059    7.4102    8.1743 C.ar      1 RES1    0.0000
     11 C2         7.4386    7.9623    6.9080 C.ar      1 RES1    0.0000
     12 H1         8.0836    8.5714    6.6301 H         1 RES1    0.0000
     13 C3         6.4128    7.6075    6.0590 C.ar      1 RES1    0.0000
     14 H2         6.3661    7.9716    5.2055 H         1 RES1    0.0000
     15 C4         5.4525    6.7057    6.4840 C.ar      1 RES1    0.0000
     16 H3         4.7543    6.4673    5.9194 H         1 RES1    0.0000
     17 C5         5.5370    6.1619    7.7490 C.ar      1 RES1    0.0000
     18 H4         4.8848    5.5561    8.0194 H         1 RES1    0.0000
     19 C6         6.5592    6.4835    8.6365 C.ar      1 RES1    0.0000
     20 C7         6.5735    5.8088    9.9553 C.2       1 RES1    0.0000
     21 H5         7.3703    5.5990   10.3865 H         1 RES1    0.0000
     22 C8         4.1342    4.6475   12.2443 C.2       1 RES1    0.0000
     23 C9         4.3957    3.9506   13.5147 C.ar      1 RES1    0.0000
     24 C10        3.4963    3.5652   14.5021 C.ar      1 RES1    0.0000
     25 H6         2.5840    3.7183   14.4054 H         1 RES1    0.0000
     26 C11        4.0027    2.9452   15.6319 C.ar      1 RES1    0.0000
     27 H7         3.4251    2.6824   16.3120 H         1 RES1    0.0000
     28 C12        5.3620    2.7117   15.7563 C.ar      1 RES1    0.0000
     29 H8         5.6842    2.2946   16.5223 H         1 RES1    0.0000
     30 C13        6.2515    3.0850   14.7641 C.ar      1 RES1    0.0000
     31 H9         7.1613    2.9140   14.8506 H         1 RES1    0.0000
     32 C14        5.7522    3.7193   13.6401 C.ar      1 RES1    0.0000
     33 C15        6.5163    4.2698   12.4432 C.3       1 RES1    0.0000
     34 C16        7.2034    3.1621   11.6576 C.ar      1 RES1    0.0000
     35 C17        6.5011    2.2652   10.8602 C.ar      1 RES1    0.0000
     36 H10        5.5848    2.3845   10.7519 H         1 RES1    0.0000
     37 C18        7.1142    1.2049   10.2238 C.ar      1 RES1    0.0000
     38 H11        6.6101    0.6411    9.6850 H         1 RES1    0.0000
     39 C19        8.4789    0.9687   10.3794 C.ar      1 RES1    0.0000
     40 C20        9.2033    1.8801   11.1760 C.ar      1 RES1    0.0000
     41 H12       10.1162    1.7596   11.3014 H         1 RES1    0.0000
     42 C21        8.5605    2.9538   11.7742 C.ar      1 RES1    0.0000
     43 C22        8.8830    5.0510   12.8347 C.ar      1 RES1    0.0000
     44 C23        9.8406    5.9978   13.1380 C.ar      1 RES1    0.0000
     45 H13       10.7426    5.7815   13.0760 H         1 RES1    0.0000
     46 C24        9.4525    7.2841   13.5390 C.ar      1 RES1    0.0000
     47 C25        8.0806    7.5442   13.6271 C.ar      1 RES1    0.0000
     48 H14        7.7901    8.3785   13.9172 H         1 RES1    0.0000
     49 C26        7.1511    6.5821   13.2901 C.ar      1 RES1    0.0000
     50 H15        6.2462    6.7886   13.3492 H         1 RES1    0.0000
     51 C27        7.5266    5.3094   12.8629 C.ar      1 RES1    0.0000
     52 C28        8.1918   -0.6058    7.5251 C.3       1 RES1    0.0000
     53 H16        7.7060    0.2223    7.5051 H         1 RES1    0.0000
     54 H17        7.7013   -1.2759    7.0446 H         1 RES1    0.0000
     55 H18        9.0513   -0.4822    7.1167 H         1 RES1    0.0000
     56 C29        8.3731   -1.0413    8.9404 C.3       1 RES1    0.0000
     57 H19        7.4984   -1.1919    9.3319 H         1 RES1    0.0000
     58 H20        8.8448   -1.8879    8.9450 H         1 RES1    0.0000
     59 C30       10.5753   -0.2259    9.8032 C.3       1 RES1    0.0000
     60 H21       10.8760   -0.6965    9.0110 H         1 RES1    0.0000
     61 H22       10.9748    0.6585    9.8001 H         1 RES1    0.0000
     62 C31       10.9745   -0.8979   10.9084 C.3       1 RES1    0.0000
     63 H23       10.6185   -0.4693   11.6898 H         1 RES1    0.0000
     64 H24       11.9328   -0.9002   10.9514 H         1 RES1    0.0000
     65 H25       10.6541   -1.8021   10.8655 H         1 RES1    0.0000
     66 C32       12.3108    8.2455   12.4589 C.3       1 RES1    0.0000
     67 H26       11.8187    7.7150   11.8280 H         1 RES1    0.0000
     68 H27       13.2427    8.0183   12.4113 H         1 RES1    0.0000
     69 H28       12.1976    9.1756   12.2532 H         1 RES1    0.0000
     70 C33       11.8313    7.9902   13.7591 C.3       1 RES1    0.0000
     71 H29       12.2990    8.5566   14.3931 H         1 RES1    0.0000
     72 H30       12.0068    7.0655   13.9940 H         1 RES1    0.0000
     73 C34        9.9621    9.6005   14.1767 C.3       1 RES1    0.0000
     74 H31       10.7074   10.0567   14.5973 H         1 RES1    0.0000
     75 H32        9.2470    9.5470   14.8306 H         1 RES1    0.0000
     76 C35        9.4866   10.4284   13.0177 C.3       1 RES1    0.0000
     77 H33       10.1994   10.5258   12.3821 H         1 RES1    0.0000
     78 H34        9.2184   11.2949   13.3324 H         1 RES1    0.0000
     79 H35        8.7403    9.9933   12.5986 H         1 RES1    0.0000
@<TRIPOS>BOND
     1    1    6 2
     2    2    3 1
     3    3   22 1
     4    4   39 1
     5    5   46 1
     6    7    1 2
     7    8   22 2
     8    9   42 1
     9   10    1 1
    10   11   10 ar
    11   12   11 1
    12   13   11 ar
    13   14   13 1
    14   15   13 ar
    15   16   15 1
    16   17   15 ar
    17   18   17 1
    18   19   10 ar
    19   20    2 2
    20   21   20 1
    21   22   23 1
    22   23   24 ar
    23   24   25 1
    24   26   24 ar
    25   27   26 1
    26   28   26 ar
    27   29   28 1
    28   30   28 ar
    29   31   30 1
    30   32   23 ar
    31   33    3 1
    32   34   33 1
    33   35   34 ar
    34   36   35 1
    35   37   35 ar
    36   38   37 1
    37   39   37 ar
    38   40   39 ar
    39   41   40 1
    40   42   34 ar
    41   43    9 1
    42   44   43 ar
    43   45   44 1
    44   46   44 ar
    45   47   46 ar
    46   48   47 1
    47   49   47 ar
    48   50   49 1
    49   51   33 1
    50   52   53 1
    51   54   52 1
    52   55   52 1
    53   56    4 1
    54   57   56 1
    55   58   56 1
    56   59    4 1
    57   60   59 1
    58   61   59 1
    59   62   59 1
    60   63   62 1
    61   64   62 1
    62   65   62 1
    63   66   67 1
    64   68   66 1
    65   69   66 1
    66   70    5 1
    67   71   70 1
    68   72   70 1
    69   73    5 1
    70   74   73 1
    71   75   73 1
    72   76   73 1
    73   77   76 1
    74   78   76 1
    75   79   76 1
    76   17   19 ar
    77   19   20 1
    78   30   32 ar
    79   32   33 1
    80   40   42 ar
    81   43   51 ar
    82   49   51 ar
    83   52   56 1
    84   66   70 1
@<TRIPOS>SUBSTRUCTURE
     1 RES1 1

@<TRIPOS>CRYSIN
   9.7380   11.4720   15.6710  80.1490  80.4100  65.7230   2 1

