# MOL2 file generated by ConQuest
# Please check atom types

@<TRIPOS>MOLECULE
KUFGAT
    41    44     1
SMALL
NO_CHARGES
****
Generated from CSD

@<TRIPOS>ATOM
      1 O1         1.2790    4.3351    3.0532 O.3       1 RES1    0.0000
      2 O2         0.2806    3.2653    3.0283 O.3       1 RES1    0.0000
      3 O3         1.0792    2.5820    0.9887 O.3       1 RES1    0.0000
      4 N1         2.0745    3.6423    0.9752 N.3       1 RES1    0.0000
      5 C1         0.8745    2.2002    2.3374 C.3       1 RES1    0.0000
      6 C2         1.4648    4.7559    1.7104 C.3       1 RES1    0.0000
      7 C3         0.2089   -0.0676    3.1368 C.ar      1 RES1    0.0000
      8 C4        -0.7142   -1.1130    3.1968 C.ar      1 RES1    0.0000
      9 C5        -1.9197   -1.0165    2.5008 C.ar      1 RES1    0.0000
     10 C6        -2.2021    0.1190    1.7451 C.ar      1 RES1    0.0000
     11 C7        -1.2784    1.1644    1.6854 C.ar      1 RES1    0.0000
     12 C8        -0.0735    1.0712    2.3811 C.ar      1 RES1    0.0000
     13 C9         3.6790    5.7254    2.6461 C.ar      1 RES1    0.0000
     14 C10        4.5335    6.8181    2.5965 C.ar      1 RES1    0.0000
     15 C11        4.1412    8.0768    2.1398 C.ar      1 RES1    0.0000
     16 C12        2.8950    8.2425    1.5360 C.ar      1 RES1    0.0000
     17 C13        2.0399    7.1498    1.3893 C.ar      1 RES1    0.0000
     18 C14        2.4322    5.8914    1.8460 C.ar      1 RES1    0.0000
     19 C15        3.4956    4.4690   -0.8150 C.ar      1 RES1    0.0000
     20 C16        3.7076    4.8260   -2.1467 C.ar      1 RES1    0.0000
     21 C17        2.6855    4.6649   -3.0831 C.ar      1 RES1    0.0000
     22 C18        1.4521    4.1470   -2.6874 C.ar      1 RES1    0.0000
     23 C19        1.2407    3.7902   -1.3553 C.ar      1 RES1    0.0000
     24 C20        2.2622    3.9511   -0.4193 C.ar      1 RES1    0.0000
     25 H1         1.8037    2.0941    2.7779 H         1 RES1    0.0000
     26 H2         0.5994    5.1725    1.1722 H         1 RES1    0.0000
     27 H3         1.0300   -0.1319    3.6102 H         1 RES1    0.0000
     28 H4        -0.5223   -1.8882    3.7108 H         1 RES1    0.0000
     29 H5        -2.5482   -1.7306    2.5420 H         1 RES1    0.0000
     30 H6        -3.0225    0.1834    1.2728 H         1 RES1    0.0000
     31 H7        -1.4709    1.9397    1.1722 H         1 RES1    0.0000
     32 H8         3.9456    4.8701    2.7605 H         1 RES1    0.0000
     33 H9         5.3825    6.7068    3.0068 H         1 RES1    0.0000
     34 H10        4.7236    8.8202    2.2403 H         1 RES1    0.0000
     35 H11        2.6278    9.1000    1.2242 H         1 RES1    0.0000
     36 H12        1.1909    7.2633    0.9780 H         1 RES1    0.0000
     37 H13        4.1910    4.5774   -0.1769 H         1 RES1    0.0000
     38 H14        4.5475    5.1789   -2.4172 H         1 RES1    0.0000
     39 H15        2.8300    4.9087   -3.9917 H         1 RES1    0.0000
     40 H16        0.7567    4.0370   -3.3258 H         1 RES1    0.0000
     41 H17        0.4002    3.4387   -1.0855 H         1 RES1    0.0000
@<TRIPOS>BOND
     1    1    2 1
     2    2    5 1
     3    3    4 1
     4    4    6 1
     5    5    3 1
     6    6    1 1
     7    7    8 ar
     8    8    9 ar
     9    9   10 ar
    10   10   11 ar
    11   11   12 ar
    12   12    5 1
    13   13   14 ar
    14   14   15 ar
    15   15   16 ar
    16   16   17 ar
    17   17   18 ar
    18   18    6 1
    19   19   20 ar
    20   20   21 ar
    21   21   22 ar
    22   22   23 ar
    23   23   24 ar
    24   24    4 1
    25   25    5 1
    26   26    6 1
    27   27    7 1
    28   28    8 1
    29   29    9 1
    30   30   10 1
    31   31   11 1
    32   32   13 1
    33   33   14 1
    34   34   15 1
    35   35   16 1
    36   36   17 1
    37   37   19 1
    38   38   20 1
    39   39   21 1
    40   40   22 1
    41   41   23 1
    42    7   12 ar
    43   13   18 ar
    44   19   24 ar
@<TRIPOS>SUBSTRUCTURE
     1 RES1 1

@<TRIPOS>CRYSIN
   6.0730   32.1670   34.6800  90.0000  90.0000  90.0000  43 2

