# MOL2 file generated by ConQuest
# Please check atom types

@<TRIPOS>MOLECULE
KUFLUU02
    33    33     2
SMALL
NO_CHARGES
****
Generated from CSD

@<TRIPOS>ATOM
      1 H1         6.1483    4.1397   18.0232 H         1 RES1    0.0000
      2 O1         4.6752    1.0723   18.6226 O.3       1 RES1    0.0000
      3 O2         5.8068    3.3938   18.2878 O.3       1 RES1    0.0000
      4 C1         7.2564    7.2942   15.3980 C.ar      1 RES1    0.0000
      5 H2         6.9590    6.9332   14.5945 H         1 RES1    0.0000
      6 N1         7.9472    9.3074   14.1898 N.pl3     1 RES1    0.0000
      7 N2         6.5269    5.3104   16.7190 N.2       1 RES1    0.0000
      8 C2         6.0053    4.6834   15.7267 C.2       1 RES1    0.0000
      9 O3         8.3893   10.4540   14.2427 O.2       1 RES1    0.0000
     10 O4         7.5786    8.7719   13.1465 O.2       1 RES1    0.0000
     11 C3         4.6848    1.5443   17.3367 C.ar      1 RES1    0.0000
     12 C4         7.8379    8.5446   15.4433 C.ar      1 RES1    0.0000
     13 C5         4.1349    0.9085   16.2384 C.ar      1 RES1    0.0000
     14 H3         3.7237    0.0805   16.3429 H         1 RES1    0.0000
     15 C6         5.3060    2.7985   17.1830 C.ar      1 RES1    0.0000
     16 C7         7.1289    6.5875   16.5962 C.ar      1 RES1    0.0000
     17 C8         7.6038    7.1524   17.7840 C.ar      1 RES1    0.0000
     18 H4         7.5249    6.6810   18.5807 H         1 RES1    0.0000
     19 C9         4.8047    2.7194   14.8041 C.ar      1 RES1    0.0000
     20 H5         4.8430    3.1065   13.9584 H         1 RES1    0.0000
     21 C10        4.1322   -0.2321   18.8260 C.3       1 RES1    0.0000
     22 H6         3.1978   -0.2279   18.6069 H         1 RES1    0.0000
     23 H7         4.2434   -0.4847   19.7454 H         1 RES1    0.0000
     24 H8         4.5906   -0.8608   18.2640 H         1 RES1    0.0000
     25 C11        5.3777    3.3877   15.9102 C.ar      1 RES1    0.0000
     26 C12        4.1923    1.5039   14.9682 C.ar      1 RES1    0.0000
     27 H9         3.8137    1.0727   14.2359 H         1 RES1    0.0000
     28 C13        8.3100    9.1292   16.6070 C.ar      1 RES1    0.0000
     29 H10        8.6941    9.9759   16.5994 H         1 RES1    0.0000
     30 C14        8.1892    8.4040   17.7853 C.ar      1 RES1    0.0000
     31 H11        8.5055    8.7641   18.5833 H         1 RES1    0.0000
     32 H12        5.9934    5.0293   14.8300 H         1 RES1    0.0000
     33 H13        6.4968    5.0263   17.5599 Du        2 SUP2    0.0000
@<TRIPOS>BOND
     1    1    3 1
     2    2   11 1
     3    3   15 1
     4    4    5 1
     5    6    9 2
     6    7    8 2
     7    8   25 1
     8   10    6 2
     9   11   13 ar
    10   12    4 ar
    11   13   14 1
    12   15   11 ar
    13   16    4 ar
    14   17   16 ar
    15   18   17 1
    16   19   20 1
    17   21    2 1
    18   22   21 1
    19   23   21 1
    20   24   21 1
    21   25   15 ar
    22   26   13 ar
    23   27   26 1
    24   28   12 ar
    25   29   28 1
    26   30   17 ar
    27   31   30 1
    28   32    8 1
    29    6   12 1
    30    7   16 1
    31   19   25 ar
    32   19   26 ar
    33   28   30 ar
@<TRIPOS>SUBSTRUCTURE
     1 RES1 1
     2 SUP2 33

@<TRIPOS>CRYSIN
  12.4915    7.5972   26.1737  90.0000  90.0000  90.0000  61 1

