# MOL2 file generated by ConQuest
# Please check atom types

@<TRIPOS>MOLECULE
KUFYOB
    49    51     1
SMALL
NO_CHARGES
****
Generated from CSD

@<TRIPOS>ATOM
      1 C1         6.8341    1.7305   14.9762 C.ar      1 RES1    0.0000
      2 C2         7.0732    0.5747   14.2290 C.ar      1 RES1    0.0000
      3 H1         6.5002   -0.1538   14.3046 H         1 RES1    0.0000
      4 C3         8.1630    0.5134   13.3734 C.ar      1 RES1    0.0000
      5 H2         8.3138   -0.2588   12.8778 H         1 RES1    0.0000
      6 C4         9.0247    1.5798   13.2484 C.ar      1 RES1    0.0000
      7 H3         9.7559    1.5319   12.6759 H         1 RES1    0.0000
      8 C5         8.7828    2.7313   13.9922 C.ar      1 RES1    0.0000
      9 H4         9.3558    3.4599   13.9144 H         1 RES1    0.0000
     10 C6         7.7068    2.7978   14.8370 C.ar      1 RES1    0.0000
     11 H5         7.5597    3.5752   15.3276 H         1 RES1    0.0000
     12 C7         5.7056    1.8084   15.9903 C.3       1 RES1    0.0000
     13 H6         5.5548    2.7531   16.2030 H         1 RES1    0.0000
     14 C8         6.1213    1.0902   17.2833 C.3       1 RES1    0.0000
     15 H7         6.5002    0.2266   17.0552 H         1 RES1    0.0000
     16 H8         6.8129    1.6089   17.7230 H         1 RES1    0.0000
     17 C9         4.9920    0.8855   18.2364 C.2       1 RES1    0.0000
     18 H9         5.2081    0.6589   19.1129 H         1 RES1    0.0000
     19 C10        3.6989    0.9998   17.9377 C.2       1 RES1    0.0000
     20 C11        2.6422    0.7504   18.9479 C.2       1 RES1    0.0000
     21 C12        1.3556    0.6516   18.5781 C.2       1 RES1    0.0000
     22 C13        0.8838    0.8252   17.1544 C.3       1 RES1    0.0000
     23 H10        0.5104    1.7138   17.0474 H         1 RES1    0.0000
     24 H11        0.1812    0.1829   16.9698 H         1 RES1    0.0000
     25 C14        2.0058    0.6340   16.1594 C.3       1 RES1    0.0000
     26 H12        1.7069    0.9125   15.2790 H         1 RES1    0.0000
     27 H13        2.2376   -0.3066   16.1137 H         1 RES1    0.0000
     28 C15        3.2418    1.4405   16.5519 C.3       1 RES1    0.0000
     29 C16        4.3868    1.2118   15.5442 C.3       1 RES1    0.0000
     30 H14        4.5101    0.2453   15.4401 H         1 RES1    0.0000
     31 C17        3.0901    0.5540   20.3684 C.3       1 RES1    0.0000
     32 H15        2.3341    0.3274   20.9143 H         1 RES1    0.0000
     33 H16        3.4892    1.3646   20.6930 H         1 RES1    0.0000
     34 H17        3.7348   -0.1569   20.4057 H         1 RES1    0.0000
     35 C18        0.2888    0.3804   19.5778 C.2       1 RES1    0.0000
     36 C19       -1.3767   -1.0674   20.2950 C.3       1 RES1    0.0000
     37 H18       -1.0024   -1.0809   21.1899 H         1 RES1    0.0000
     38 H19       -2.0886   -0.4084   20.2756 H         1 RES1    0.0000
     39 C20       -1.8596   -2.2449   20.0039 C.3       1 RES1    0.0000
     40 H20       -1.9626   -2.3218   19.0527 H         1 RES1    0.0000
     41 H21       -2.7139   -2.3540   20.4270 H         1 RES1    0.0000
     42 H22       -1.2581   -2.9236   20.3164 H         1 RES1    0.0000
     43 H23        3.5131    3.1907   17.0824 H         1 RES1    0.0000
     44 N1         3.9803    1.7772   14.2026 N.pl3     1 RES1    0.0000
     45 O1         2.8510    2.8120   16.5726 O.3       1 RES1    0.0000
     46 O2         4.2231    2.9412   13.9672 O.2       1 RES1    0.0000
     47 O3         3.4083    1.0237   13.4279 O.2       1 RES1    0.0000
     48 O4         0.0644    1.0362   20.5555 O.2       1 RES1    0.0000
     49 O5        -0.3467   -0.7015   19.3404 O.3       1 RES1    0.0000
@<TRIPOS>BOND
     1    1    2 ar
     2    2    3 1
     3    4    2 ar
     4    5    4 1
     5    6    4 ar
     6    7    6 1
     7    8    6 ar
     8    9    8 1
     9   10    1 ar
    10   11   10 1
    11   12    1 1
    12   13   12 1
    13   14   12 1
    14   15   14 1
    15   16   14 1
    16   17   14 1
    17   18   17 1
    18   19   17 2
    19   20   19 1
    20   21   20 2
    21   22   21 1
    22   23   22 1
    23   24   22 1
    24   25   22 1
    25   26   25 1
    26   27   25 1
    27   28   19 1
    28   29   12 1
    29   30   29 1
    30   31   20 1
    31   32   31 1
    32   33   31 1
    33   34   31 1
    34   35   21 1
    35   36   37 1
    36   38   36 1
    37   39   36 1
    38   40   39 1
    39   41   39 1
    40   42   39 1
    41   43   45 1
    42   44   29 1
    43   45   28 1
    44   46   44 2
    45   47   44 2
    46   48   35 2
    47   49   35 1
    48    8   10 ar
    49   25   28 1
    50   28   29 1
    51   36   49 1
@<TRIPOS>SUBSTRUCTURE
     1 RES1 1

@<TRIPOS>CRYSIN
   9.1967   10.3931   19.4118  90.0000  90.0000  90.0000  19 1

