# MOL2 file generated by ConQuest
# Please check atom types

@<TRIPOS>MOLECULE
KUGSEM
    37    40     1
SMALL
NO_CHARGES
****
Generated from CSD

@<TRIPOS>ATOM
      1 O1         5.4207    4.3310    1.4467 O.2       1 RES1    0.0000
      2 O2         4.3088    4.7040    3.2305 O.2       1 RES1    0.0000
      3 N1         2.2820    9.1874    4.2243 N.pl3     1 RES1    0.0000
      4 C1         1.4375    8.0502    4.0540 C.ar      1 RES1    0.0000
      5 C2         1.9084   10.2723    5.0154 C.ar      1 RES1    0.0000
      6 C3         5.4634    6.9871    0.7729 C.ar      1 RES1    0.0000
      7 H1         5.9438    6.4135    0.2203 H         1 RES1    0.0000
      8 C4         5.4056    8.3442    0.5210 C.ar      1 RES1    0.0000
      9 H2         5.8690    8.6939   -0.2050 H         1 RES1    0.0000
     10 C5         4.6732    9.1896    1.3253 C.ar      1 RES1    0.0000
     11 H3         4.6398   10.0969    1.1248 H         1 RES1    0.0000
     12 C6         3.9794    8.7069    2.4381 C.ar      1 RES1    0.0000
     13 C7         3.2599    9.6268    3.3204 C.2       1 RES1    0.0000
     14 C8         1.1946    7.2128    5.1220 C.ar      1 RES1    0.0000
     15 H4         1.5771    7.3728    5.9542 H         1 RES1    0.0000
     16 C9         0.3709    6.1375    4.9150 C.ar      1 RES1    0.0000
     17 H5         0.1900    5.5441    5.6086 H         1 RES1    0.0000
     18 C10       -0.1844    5.9458    3.6754 C.ar      1 RES1    0.0000
     19 H6        -0.7454    5.2223    3.5125 H         1 RES1    0.0000
     20 N2         4.8372    5.0841    2.2016 N.pl3     1 RES1    0.0000
     21 C11        4.7825    6.5177    1.8747 C.ar      1 RES1    0.0000
     22 C12        4.0583    7.3413    2.7059 C.ar      1 RES1    0.0000
     23 H7         3.6221    6.9861    3.4457 H         1 RES1    0.0000
     24 C13        0.1070    6.8442    2.6806 C.ar      1 RES1    0.0000
     25 H8        -0.2776    6.7133    1.8441 H         1 RES1    0.0000
     26 N3         0.9135    7.8989    2.8453 N.ar      1 RES1    0.0000
     27 C14        0.9799   10.3378    6.0447 C.ar      1 RES1    0.0000
     28 H9         0.4892    9.5913    6.3022 H         1 RES1    0.0000
     29 C15        0.8155   11.5561    6.6706 C.ar      1 RES1    0.0000
     30 H10        0.2112   11.6299    7.3730 H         1 RES1    0.0000
     31 C16        1.5345   12.6741    6.2725 C.ar      1 RES1    0.0000
     32 H11        1.3983   13.4836    6.7110 H         1 RES1    0.0000
     33 C17        2.4391   12.6113    5.2498 C.ar      1 RES1    0.0000
     34 H12        2.9111   13.3686    4.9888 H         1 RES1    0.0000
     35 C18        2.6445   11.3870    4.6007 C.ar      1 RES1    0.0000
     36 C19        3.4912   10.9512    3.5438 C.2       1 RES1    0.0000
     37 H13        4.1011   11.4810    3.0825 H         1 RES1    0.0000
@<TRIPOS>BOND
     1    1   20 2
     2    2   20 2
     3    3    4 1
     4    4   14 ar
     5    5    3 1
     6    6    7 1
     7    8    6 ar
     8    9    8 1
     9   10    8 ar
    10   11   10 1
    11   12   10 ar
    12   13    3 1
    13   14   15 1
    14   16   14 ar
    15   17   16 1
    16   18   16 ar
    17   19   18 1
    18   20   21 1
    19   21    6 ar
    20   22   12 ar
    21   23   22 1
    22   24   18 ar
    23   25   24 1
    24   26    4 ar
    25   27    5 ar
    26   28   27 1
    27   29   27 ar
    28   30   29 1
    29   31   29 ar
    30   32   31 1
    31   33   31 ar
    32   34   33 1
    33   35    5 ar
    34   36   13 2
    35   37   36 1
    36   12   13 1
    37   21   22 ar
    38   24   26 ar
    39   33   35 ar
    40   35   36 1
@<TRIPOS>SUBSTRUCTURE
     1 RES1 1

@<TRIPOS>CRYSIN
  12.9765    9.9930   11.8482  90.0000  98.5600  90.0000  14 1

