# MOL2 file generated by ConQuest
# Please check atom types

@<TRIPOS>MOLECULE
KUGSOU
    29    29     1
SMALL
NO_CHARGES
****
Generated from CSD

@<TRIPOS>ATOM
      1 C1         4.3069    4.6793    4.4153 C.2       1 RES1    0.0000
      2 C2         3.5730    3.3657    4.4469 C.3       1 RES1    0.0000
      3 C3         2.0708    3.6244    4.5941 C.3       1 RES1    0.0000
      4 C4         1.2357    2.3544    4.3294 C.3       1 RES1    0.0000
      5 C5         1.6034    1.2185    5.2496 C.2       1 RES1    0.0000
      6 C6         1.4242    1.3556    6.6992 C.ar      1 RES1    0.0000
      7 C7         0.3070    2.0101    7.2356 C.ar      1 RES1    0.0000
      8 C8         0.1137    2.0786    8.6115 C.ar      1 RES1    0.0000
      9 C9         1.0284    1.5021    9.4634 C.ar      1 RES1    0.0000
     10 C10        2.1581    0.8804    8.9586 C.ar      1 RES1    0.0000
     11 C11        2.3544    0.8212    7.5861 C.ar      1 RES1    0.0000
     12 N1         2.0973    0.1122    4.8710 N.2       1 RES1    0.0000
     13 N2         4.8834    5.1202    5.5091 N.am      1 RES1    0.0000
     14 O1         2.2906    0.0312    3.4776 O.3       1 RES1    0.0000
     15 O2         4.3053    5.3711    3.3671 O.2       1 RES1    0.0000
     16 H1         4.9239    4.5811    6.1523 H         1 RES1    0.0000
     17 H2         5.3446    5.9523    5.5388 H         1 RES1    0.0000
     18 H3         2.7580   -0.6389    3.3654 H         1 RES1    0.0000
     19 H4         3.7568    2.8281    3.5284 H         1 RES1    0.0000
     20 H5         3.9204    2.7798    5.2847 H         1 RES1    0.0000
     21 H6         1.8730    3.9687    5.5984 H         1 RES1    0.0000
     22 H7         1.7779    4.3879    3.8877 H         1 RES1    0.0000
     23 H8         1.3977    2.0397    3.3093 H         1 RES1    0.0000
     24 H9         0.1917    2.5913    4.4714 H         1 RES1    0.0000
     25 H10       -0.4114    2.4666    6.5730 H         1 RES1    0.0000
     26 H11       -0.7542    2.5819    9.0094 H         1 RES1    0.0000
     27 H12        0.8648    1.5348   10.5291 H         1 RES1    0.0000
     28 H13        2.8827    0.4425    9.6299 H         1 RES1    0.0000
     29 H14        3.2457    0.3506    7.1987 H         1 RES1    0.0000
@<TRIPOS>BOND
     1    1    2 1
     2    2    3 1
     3    3    4 1
     4    4    5 1
     5    5    6 1
     6    6    7 ar
     7    7    8 ar
     8    8    9 ar
     9    9   10 ar
    10   10   11 ar
    11   11    6 ar
    12   12    5 2
    13   13    1 1
    14   14   12 1
    15   15    1 2
    16   16   13 1
    17   17   13 1
    18   18   14 1
    19   19    2 1
    20   20    2 1
    21   21    3 1
    22   22    3 1
    23   23    4 1
    24   24    4 1
    25   25    7 1
    26   26    8 1
    27   27    9 1
    28   28   10 1
    29   29   11 1
@<TRIPOS>SUBSTRUCTURE
     1 RES1 1

@<TRIPOS>CRYSIN
  15.5820   15.5820   17.5280  90.0000  90.0000  90.0000 110 1

