# MOL2 file generated by ConQuest
# Please check atom types

@<TRIPOS>MOLECULE
KUGVEP
    24    26     1
SMALL
NO_CHARGES
****
Generated from CSD

@<TRIPOS>ATOM
      1 C1         0.9271    1.0313   13.6765 C.2       1 RES1    0.0000
      2 C2         0.4517   -0.3900   13.5794 C.2       1 RES1    0.0000
      3 C3         0.7146   -1.0258   14.8857 C.ar      1 RES1    0.0000
      4 C4         0.4620   -2.2615   15.4349 C.ar      1 RES1    0.0000
      5 H1         0.0437   -2.9269   14.9376 H         1 RES1    0.0000
      6 C5         0.8527   -2.4947   16.7721 C.ar      1 RES1    0.0000
      7 H2         0.6743   -3.3247   17.1518 H         1 RES1    0.0000
      8 C6         1.4858   -1.5461   17.5296 C.ar      1 RES1    0.0000
      9 H3         1.7296   -1.7451   18.4041 H         1 RES1    0.0000
     10 C7         1.7738   -0.2621   16.9944 C.ar      1 RES1    0.0000
     11 C8         2.4221    0.8277   17.6324 C.ar      1 RES1    0.0000
     12 H4         2.7263    0.7325   18.5065 H         1 RES1    0.0000
     13 C9         2.6061    2.0220   16.9782 C.ar      1 RES1    0.0000
     14 H5         3.0402    2.7147   17.4224 H         1 RES1    0.0000
     15 C10        2.1610    2.2350   15.6606 C.ar      1 RES1    0.0000
     16 H6         2.2872    3.0556   15.2419 H         1 RES1    0.0000
     17 C11        1.5355    1.1982   15.0063 C.ar      1 RES1    0.0000
     18 C12        1.3622   -0.0374   15.6751 C.ar      1 RES1    0.0000
     19 N1         0.6899    1.8671   12.7296 N.2       1 RES1    0.0000
     20 N2        -0.0862   -0.8187   12.4926 N.2       1 RES1    0.0000
     21 O1         1.1514    3.1606   13.0382 O.3       1 RES1    0.0000
     22 H7         0.7801    3.7062   12.5523 H         1 RES1    0.0000
     23 O2        -0.4605   -2.1630   12.5925 O.3       1 RES1    0.0000
     24 H8        -0.8845   -2.3793   11.9253 H         1 RES1    0.0000
@<TRIPOS>BOND
     1    1    2 1
     2    2    3 1
     3    3    4 ar
     4    4    5 1
     5    6    4 ar
     6    7    6 1
     7    8    6 ar
     8    9    8 1
     9   10    8 ar
    10   11   10 ar
    11   12   11 1
    12   13   11 ar
    13   14   13 1
    14   15   13 ar
    15   16   15 1
    16   17    1 1
    17   18    3 ar
    18   19    1 2
    19   20    2 2
    20   21   19 1
    21   22   21 1
    22   23   20 1
    23   24   23 1
    24   10   18 ar
    25   15   17 ar
    26   17   18 ar
@<TRIPOS>SUBSTRUCTURE
     1 RES1 1

@<TRIPOS>CRYSIN
   7.8440    7.8009   15.3089  90.0000  92.7816  90.0000  14 1

