# MOL2 file generated by ConQuest
# Please check atom types

@<TRIPOS>MOLECULE
KUGXOZ
    43    46     1
SMALL
NO_CHARGES
****
Generated from CSD

@<TRIPOS>ATOM
      1 C1         3.1887    2.5866   13.0110 C.3       1 RES1    0.0000
      2 N1         3.7542    3.8954   12.7374 N.am      1 RES1    0.0000
      3 C2         2.7402    4.9357   12.6220 C.3       1 RES1    0.0000
      4 C3         1.5108    4.5328   11.8710 C.2       1 RES1    0.0000
      5 O1         0.7160    5.4109   11.5504 O.2       1 RES1    0.0000
      6 N2         1.3071    3.2250   11.5960 N.am      1 RES1    0.0000
      7 C4         0.1497    2.8160   10.8152 C.3       1 RES1    0.0000
      8 C5        -0.6495    1.7902   11.5860 C.3       1 RES1    0.0000
      9 C6         0.2310    0.6591   12.0292 C.ar      1 RES1    0.0000
     10 C7        -0.3065   -0.5971   12.2999 C.ar      1 RES1    0.0000
     11 C8         0.4803   -1.6652   12.6490 C.ar      1 RES1    0.0000
     12 C9         1.8461   -1.4906   12.7246 C.ar      1 RES1    0.0000
     13 C10        2.4008   -0.2644   12.4652 C.ar      1 RES1    0.0000
     14 C11        1.6057    0.8326   12.1375 C.ar      1 RES1    0.0000
     15 C12        2.2893    2.1724   11.8639 C.3       1 RES1    0.0000
     16 C13        5.0559    4.2508   12.8229 C.2       1 RES1    0.0000
     17 O2         5.4017    5.4284   12.8286 O.2       1 RES1    0.0000
     18 C14        6.0796    3.1641   12.8799 C.ar      1 RES1    0.0000
     19 C15        6.1109    2.1393   11.9423 C.ar      1 RES1    0.0000
     20 C16        7.0751    1.1621   12.0092 C.ar      1 RES1    0.0000
     21 C17        8.0055    1.2231   13.0224 C.ar      1 RES1    0.0000
     22 N3         9.0006    0.1374   13.1406 N.pl3     1 RES1    0.0000
     23 O3         8.9113   -0.7706   12.3484 O.2       1 RES1    0.0000
     24 O4         9.8074    0.1911   14.0127 O.2       1 RES1    0.0000
     25 C18        8.0183    2.2457   13.9486 C.ar      1 RES1    0.0000
     26 C19        7.0462    3.2240   13.8616 C.ar      1 RES1    0.0000
     27 H1         3.8988    1.9472   13.1093 H         1 RES1    0.0000
     28 H2         2.6779    2.6238   13.8218 H         1 RES1    0.0000
     29 H3         2.4763    5.1960   13.5068 H         1 RES1    0.0000
     30 H4         3.1309    5.6877   12.1717 H         1 RES1    0.0000
     31 H5        -0.4042    3.5814   10.6385 H         1 RES1    0.0000
     32 H6         0.4410    2.4337    9.9859 H         1 RES1    0.0000
     33 H7        -1.3463    1.4452   11.0232 H         1 RES1    0.0000
     34 H8        -1.0382    2.2086   12.3584 H         1 RES1    0.0000
     35 H9        -1.2571   -0.7190   12.2415 H         1 RES1    0.0000
     36 H10        0.0865   -2.5205   12.8371 H         1 RES1    0.0000
     37 H11        2.4108   -2.2313   12.9597 H         1 RES1    0.0000
     38 H12        3.3551   -0.1591   12.5108 H         1 RES1    0.0000
     39 H13        2.8325    2.0515   11.0830 H         1 RES1    0.0000
     40 H14        5.4528    2.1125   11.2426 H         1 RES1    0.0000
     41 H15        7.1014    0.4525   11.3623 H         1 RES1    0.0000
     42 H16        8.6838    2.2757   14.6382 H         1 RES1    0.0000
     43 H17        7.0464    3.9523   14.4872 H         1 RES1    0.0000
@<TRIPOS>BOND
     1    1    2 1
     2    2    3 1
     3    3    4 1
     4    4    5 2
     5    6    4 1
     6    7    6 1
     7    8    7 1
     8    9    8 1
     9   10    9 ar
    10   11   10 ar
    11   12   11 ar
    12   13   12 ar
    13   14    9 ar
    14   15    1 1
    15   16    2 1
    16   17   16 2
    17   18   16 1
    18   19   18 ar
    19   20   19 ar
    20   21   20 ar
    21   22   21 1
    22   23   22 2
    23   24   22 2
    24   25   21 ar
    25   26   18 ar
    26   27    1 1
    27   28    1 1
    28   29    3 1
    29   30    3 1
    30   31    7 1
    31   32    7 1
    32   33    8 1
    33   34    8 1
    34   35   10 1
    35   36   11 1
    36   37   12 1
    37   38   13 1
    38   39   15 1
    39   40   19 1
    40   41   20 1
    41   42   25 1
    42   43   26 1
    43    6   15 1
    44   13   14 ar
    45   14   15 1
    46   25   26 ar
@<TRIPOS>SUBSTRUCTURE
     1 RES1 1

@<TRIPOS>CRYSIN
  22.7040   10.3300   14.8080  90.0000 105.7900  90.0000  15 1

