# MOL2 file generated by ConQuest
# Please check atom types

@<TRIPOS>MOLECULE
KUGYAM
    39    40     1
SMALL
NO_CHARGES
****
Generated from CSD

@<TRIPOS>ATOM
      1 C1         1.0425    1.6191    7.4306 C.3       1 RES1    0.0000
      2 N1         0.0098    1.4367    6.4291 N.pl3     1 RES1    0.0000
      3 C2        -1.2168    0.7441    6.7837 C.3       1 RES1    0.0000
      4 N2        -1.0686   -0.6951    6.6944 N.pl3     1 RES1    0.0000
      5 C3        -0.0261   -1.3339    7.4633 C.3       1 RES1    0.0000
      6 N3         1.3162   -0.8762    7.1512 N.pl3     1 RES1    0.0000
      7 C4         1.8944    0.3451    7.7101 C.3       1 RES1    0.0000
      8 N4         1.9922    0.3243    9.1471 N.am      1 RES1    0.0000
      9 C5         0.9904    1.1479    9.8039 C.3       1 RES1    0.0000
     10 N5         0.5196    2.0009    8.7201 N.am      1 RES1    0.0000
     11 N6        -0.0448    2.3766    5.4063 N.pl3     1 RES1    0.0000
     12 O1        -1.0995    2.4757    4.7920 O.2       1 RES1    0.0000
     13 O2         0.9594    3.0130    5.1665 O.2       1 RES1    0.0000
     14 N7        -1.5279   -1.3352    5.5368 N.pl3     1 RES1    0.0000
     15 O3        -1.3585   -2.5369    5.4715 O.2       1 RES1    0.0000
     16 O4        -2.1371   -0.6572    4.7282 O.2       1 RES1    0.0000
     17 N8         2.0875   -1.6509    6.3128 N.pl3     1 RES1    0.0000
     18 O5         3.2342   -1.2911    6.0915 O.2       1 RES1    0.0000
     19 O6         1.5841   -2.6654    5.8531 O.2       1 RES1    0.0000
     20 C6         3.1039   -0.0355    9.8962 C.2       1 RES1    0.0000
     21 C7         4.2775   -0.5776    9.1642 C.3       1 RES1    0.0000
     22 O7         3.0754    0.1101   11.1005 O.2       1 RES1    0.0000
     23 C8         0.0415    3.2773    8.8847 C.2       1 RES1    0.0000
     24 C9        -0.2614    3.7142   10.2692 C.3       1 RES1    0.0000
     25 O8        -0.0806    3.9933    7.8959 O.2       1 RES1    0.0000
     26 H1         1.6305    2.2701    7.1029 H         1 RES1    0.0000
     27 H2        -1.3496    0.8824    7.6675 H         1 RES1    0.0000
     28 H3        -2.0378    1.0561    6.1894 H         1 RES1    0.0000
     29 H4        -0.2289   -1.0733    8.3456 H         1 RES1    0.0000
     30 H5        -0.0806   -2.3632    7.3597 H         1 RES1    0.0000
     31 H6         2.7227    0.4589    7.2902 H         1 RES1    0.0000
     32 H7         0.2614    0.6890   10.0678 H         1 RES1    0.0000
     33 H8         1.5955    1.6705   10.5288 H         1 RES1    0.0000
     34 H9         4.3973   -0.1505    8.3201 H         1 RES1    0.0000
     35 H10        5.0415   -0.1212    9.5231 H         1 RES1    0.0000
     36 H11        4.1806   -1.4294    9.5954 H         1 RES1    0.0000
     37 H12        0.5750    4.0557   10.5941 H         1 RES1    0.0000
     38 H13       -0.5913    3.0460   10.8750 H         1 RES1    0.0000
     39 H14       -0.8967    4.4302   10.2054 H         1 RES1    0.0000
@<TRIPOS>BOND
     1    1    2 1
     2    2    3 1
     3    3    4 1
     4    4    5 1
     5    5    6 1
     6    6    7 1
     7    7    1 1
     8    8    7 1
     9    9    8 1
    10   10    1 1
    11   11    2 1
    12   12   11 2
    13   13   11 2
    14   14    4 1
    15   15   14 2
    16   16   14 2
    17   17    6 1
    18   18   17 2
    19   19   17 2
    20   20    8 1
    21   21   20 1
    22   22   20 2
    23   23   10 1
    24   24   23 1
    25   25   23 2
    26   26    1 1
    27   27    3 1
    28   28    3 1
    29   29    5 1
    30   30    5 1
    31   31    7 1
    32   32    9 1
    33   33    9 1
    34   34   21 1
    35   35   21 1
    36   36   21 1
    37   37   24 1
    38   38   24 1
    39   39   24 1
    40    9   10 1
@<TRIPOS>SUBSTRUCTURE
     1 RES1 1

@<TRIPOS>CRYSIN
   8.1446   12.2380   14.1860  90.0000  90.0000  90.0000  19 1

