# MOL2 file generated by ConQuest
# Please check atom types

@<TRIPOS>MOLECULE
KUGZER
    53    39     2
SMALL
NO_CHARGES
****
Generated from CSD

@<TRIPOS>ATOM
      1 O1         2.9876    2.2021    7.6777 O.3       1 RES1    0.0000
      2 N1         1.9405    2.1473    8.6166 N.2       1 RES1    0.0000
      3 C1         1.0256    1.3184    8.2609 C.2       1 RES1    0.0000
      4 C2         1.0762    0.4835    7.0298 C.3       1 RES1    0.0000
      5 C3         0.3139   -0.8289    7.1279 C.3       1 RES1    0.0000
      6 C4        -0.1803   -0.1524    6.7182 Du        2 SUP2    0.0000
      7 C5        -0.9774   -0.7049    7.7747 C.3       1 RES1    0.0000
      8 C6        -1.0183    0.2357    8.9390 C.2       1 RES1    0.0000
      9 C7        -0.1313    1.1844    9.1632 C.2       1 RES1    0.0000
     10 C8        -0.2398    2.1696   10.3113 C.3       1 RES1    0.0000
     11 C9        -1.3646    1.8405   11.2847 C.3       1 RES1    0.0000
     12 C10       -0.5011    3.5633    9.7831 C.2       1 RES1    0.0000
     13 O2        -1.3180    3.7339    8.8840 O.2       1 RES1    0.0000
     14 N2         0.0775    4.6176   10.3706 N.am      1 RES1    0.0000
     15 C11       -0.2854    5.9767    9.8930 C.3       1 RES1    0.0000
     16 C12       -1.3329    6.5374   10.5689 C.3       1 RES1    0.0000
     17 C13        1.3599    4.5404   11.1144 C.3       1 RES1    0.0000
     18 C14        0.7470    4.5302   11.7300 Du        2 SUP2    0.0000
     19 C15        1.1166    4.4835   12.6042 C.3       1 RES1    0.0000
     20 C16        2.1600    4.6989   11.4809 Du        2 SUP2    0.0000
     21 H1         3.5217    2.7832    8.2361 H         1 RES1    0.0000
     22 H2         0.7291    0.9906    6.3046 H         1 RES1    0.0000
     23 H3         1.9883    0.2769    6.8629 H         1 RES1    0.0000
     24 H4         1.3345    1.0328    6.2981 Du        2 SUP2    0.0000
     25 H5         1.7293   -0.1928    7.1635 Du        2 SUP2    0.0000
     26 H6         0.8367   -1.4600    7.6072 H         1 RES1    0.0000
     27 H7         0.1695   -1.1425    6.2432 H         1 RES1    0.0000
     28 H8         0.0143   -0.8666    6.1241 Du        2 SUP2    0.0000
     29 H9        -0.7099    0.4975    6.2702 Du        2 SUP2    0.0000
     30 H10       -1.2274   -1.5667    8.0878 H         1 RES1    0.0000
     31 H11       -1.6094   -0.4065    7.1313 H         1 RES1    0.0000
     32 H12       -0.6087   -1.5338    8.0577 Du        2 SUP2    0.0000
     33 H13       -1.8605   -0.8449    7.4532 Du        2 SUP2    0.0000
     34 H14       -1.7363    0.1459    9.5551 H         1 RES1    0.0000
     35 H15        0.5862    2.1113   10.7765 H         1 RES1    0.0000
     36 H16       -1.3827    2.4890   11.9785 H         1 RES1    0.0000
     37 H17       -2.1930    1.8505   10.8198 H         1 RES1    0.0000
     38 H18       -1.2218    0.9794   11.6594 H         1 RES1    0.0000
     39 H19       -0.5092    5.9279    8.9712 H         1 RES1    0.0000
     40 H20        0.4546    6.5603   10.0094 H         1 RES1    0.0000
     41 H21       -1.5211    7.4001   10.2180 H         1 RES1    0.0000
     42 H22       -2.0919    5.9773   10.4555 H         1 RES1    0.0000
     43 H23       -1.1281    6.6099   11.4938 H         1 RES1    0.0000
     44 H24        1.8954    5.2921   10.8980 H         1 RES1    0.0000
     45 H25        1.8062    3.7439   10.8564 H         1 RES1    0.0000
     46 H26        0.6051    3.6860   12.1423 Du        2 SUP2    0.0000
     47 H27        0.4391    5.2197   12.3055 Du        2 SUP2    0.0000
     48 H28        1.9253    4.4234   13.0942 H         1 RES1    0.0000
     49 H29        0.6565    5.2805   12.8448 H         1 RES1    0.0000
     50 H30        0.5673    3.7323   12.8032 H         1 RES1    0.0000
     51 H31        2.6514    4.6647   12.2941 Du        2 SUP2    0.0000
     52 H32        2.4583    4.0073   10.9023 Du        2 SUP2    0.0000
     53 H33        2.2923    5.5411   11.0655 Du        2 SUP2    0.0000
@<TRIPOS>BOND
     1    1    2 1
     2    2    3 2
     3    3    4 1
     4    4    5 1
     5    5    7 1
     6    7    8 1
     7    8    9 2
     8    9    3 1
     9   10    9 1
    10   11   10 1
    11   12   10 1
    12   13   12 2
    13   14   12 1
    14   15   14 1
    15   16   15 1
    16   17   14 1
    17   19   17 1
    18   21    1 1
    19   22    4 1
    20   23    4 1
    21   26    5 1
    22   27    5 1
    23   30    7 1
    24   31    7 1
    25   34    8 1
    26   35   10 1
    27   36   11 1
    28   37   11 1
    29   38   11 1
    30   39   15 1
    31   40   15 1
    32   41   16 1
    33   42   16 1
    34   43   16 1
    35   44   17 1
    36   45   17 1
    37   48   19 1
    38   49   19 1
    39   50   19 1
@<TRIPOS>SUBSTRUCTURE
     1 RES1 1
     2 SUP2 6

@<TRIPOS>CRYSIN
   6.2280   20.3150   11.1040  90.0000 103.8700  90.0000  14 1

