# MOL2 file generated by ConQuest
# Please check atom types

@<TRIPOS>MOLECULE
KUGZIV
    39    39     1
SMALL
NO_CHARGES
****
Generated from CSD

@<TRIPOS>ATOM
      1 O1         8.3927   -5.0400    7.4344 O.3       1 RES1    0.0000
      2 O2         9.0724    0.6497   10.1432 O.2       1 RES1    0.0000
      3 N1         8.7918   -3.8227    7.3686 N.2       1 RES1    0.0000
      4 N2         9.4922    0.9453    7.9773 N.am      1 RES1    0.0000
      5 C1         7.8106   -3.3012    8.3523 C.2       1 RES1    0.0000
      6 C2         6.6931   -3.9419    9.1089 C.3       1 RES1    0.0000
      7 C3         5.4175   -3.1910    8.8828 C.3       1 RES1    0.0000
      8 C4         5.5495   -1.7433    9.0641 C.3       1 RES1    0.0000
      9 C5         6.6941   -1.1161    8.2540 C.3       1 RES1    0.0000
     10 C6         7.9885   -1.8681    8.4773 C.2       1 RES1    0.0000
     11 C7         9.1331   -1.2802    8.8150 C.2       1 RES1    0.0000
     12 C8        10.3931   -2.0356    9.1776 C.3       1 RES1    0.0000
     13 C9         9.2152    0.1585    9.0125 C.2       1 RES1    0.0000
     14 C10        9.7007    0.4327    6.6282 C.3       1 RES1    0.0000
     15 C11       11.1559    0.4350    6.2332 C.3       1 RES1    0.0000
     16 C12        9.5299    2.3941    8.1653 C.3       1 RES1    0.0000
     17 C13        8.1671    2.9752    8.0241 C.3       1 RES1    0.0000
     18 H1         8.8881   -5.4503    6.7351 H         1 RES1    0.0000
     19 H2         6.9023   -3.9351   10.0353 H         1 RES1    0.0000
     20 H3         6.5819   -4.8388    8.8160 H         1 RES1    0.0000
     21 H4         4.7704   -3.5125    9.4982 H         1 RES1    0.0000
     22 H5         5.1208   -3.3574    7.9945 H         1 RES1    0.0000
     23 H6         5.7060   -1.5691    9.9838 H         1 RES1    0.0000
     24 H7         4.7346   -1.3331    8.7969 H         1 RES1    0.0000
     25 H8         6.8100   -0.2124    8.5259 H         1 RES1    0.0000
     26 H9         6.4713   -1.1420    7.3304 H         1 RES1    0.0000
     27 H10       10.1908   -2.9246    9.4457 H         1 RES1    0.0000
     28 H11       10.9894   -2.0547    8.4391 H         1 RES1    0.0000
     29 H12       10.7969   -1.5702    9.8999 H         1 RES1    0.0000
     30 H13        9.2131    0.9734    6.0185 H         1 RES1    0.0000
     31 H14        9.3763   -0.4586    6.5891 H         1 RES1    0.0000
     32 H15       11.2387    0.0922    5.3507 H         1 RES1    0.0000
     33 H16       11.4886    1.3229    6.2609 H         1 RES1    0.0000
     34 H17       11.6519   -0.1090    6.8314 H         1 RES1    0.0000
     35 H18       10.1055    2.7774    7.5136 H         1 RES1    0.0000
     36 H19        9.8613    2.5863    9.0345 H         1 RES1    0.0000
     37 H20        8.2112    3.9149    8.1481 H         1 RES1    0.0000
     38 H21        7.8319    2.7864    7.1539 H         1 RES1    0.0000
     39 H22        7.5879    2.5953    8.6738 H         1 RES1    0.0000
@<TRIPOS>BOND
     1    1    3 1
     2    2   13 2
     3    3    5 2
     4    4   13 1
     5    5    6 1
     6    6    7 1
     7    7    8 1
     8    8    9 1
     9    9   10 1
    10   10    5 1
    11   11   10 2
    12   12   11 1
    13   13   11 1
    14   14    4 1
    15   15   14 1
    16   16    4 1
    17   17   16 1
    18   18    1 1
    19   19    6 1
    20   20    6 1
    21   21    7 1
    22   22    7 1
    23   23    8 1
    24   24    8 1
    25   25    9 1
    26   26    9 1
    27   27   12 1
    28   28   12 1
    29   29   12 1
    30   30   14 1
    31   31   14 1
    32   32   15 1
    33   33   15 1
    34   34   15 1
    35   35   16 1
    36   36   16 1
    37   37   17 1
    38   38   17 1
    39   39   17 1
@<TRIPOS>SUBSTRUCTURE
     1 RES1 1

@<TRIPOS>CRYSIN
  13.1230   11.2400    9.6660  90.0000  99.2200  90.0000  14 1

