# MOL2 file generated by ConQuest
# Please check atom types

@<TRIPOS>MOLECULE
KUHKAB
    30    31     1
SMALL
NO_CHARGES
****
Generated from CSD

@<TRIPOS>ATOM
      1 O1         4.8676    3.3677    5.9540 O.2       1 RES1    0.0000
      2 O2         0.5747    1.9941    4.8747 O.3       1 RES1    0.0000
      3 N1         2.0245    0.4116    5.3859 N.3       1 RES1    0.0000
      4 H1         2.8340    0.1375    5.4804 H         1 RES1    0.0000
      5 O3         4.4238    1.2345    5.9908 O.2       1 RES1    0.0000
      6 N2         4.0626    2.4236    5.7906 N.pl3     1 RES1    0.0000
      7 C1         2.7905    2.7093    5.3574 C.2       1 RES1    0.0000
      8 C2         2.4883    4.1485    5.1004 C.3       1 RES1    0.0000
      9 H2         2.8254    4.6692    5.8592 H         1 RES1    0.0000
     10 C3         1.0095    4.3746    5.0033 C.ar      1 RES1    0.0000
     11 C4         1.8382    1.6921    5.2173 C.2       1 RES1    0.0000
     12 C5         3.2418    4.6362    3.7965 C.3       1 RES1    0.0000
     13 H3         4.1407    4.2467    3.8073 H         1 RES1    0.0000
     14 C6         0.1358    3.3167    4.8778 C.ar      1 RES1    0.0000
     15 C7         0.4580    5.6550    5.0436 C.ar      1 RES1    0.0000
     16 H4         1.0157    6.3917    5.1492 H         1 RES1    0.0000
     17 C8         3.3854    6.0952    3.7627 C.1       1 RES1    0.0000
     18 C9         2.5631    4.1590    2.5933 C.1       1 RES1    0.0000
     19 C10       -1.2308    3.4814    4.7764 C.ar      1 RES1    0.0000
     20 H5        -1.7952    2.7465    4.6975 H         1 RES1    0.0000
     21 N3         3.5037    7.2257    3.7857 N.1       1 RES1    0.0000
     22 C11       -0.8988    5.8438    4.9302 C.ar      1 RES1    0.0000
     23 H6        -1.2506    6.7051    4.9452 H         1 RES1    0.0000
     24 C12        0.9706   -0.5856    5.4255 C.3       1 RES1    0.0000
     25 H7         0.4409   -0.4599    6.2156 H         1 RES1    0.0000
     26 H8         1.3608   -1.4627    5.4380 H         1 RES1    0.0000
     27 H9         0.4140   -0.4943    4.6485 H         1 RES1    0.0000
     28 C13       -1.7384    4.7612    4.7940 C.ar      1 RES1    0.0000
     29 H10       -2.6546    4.8956    4.7134 H         1 RES1    0.0000
     30 N4         1.9966    3.7574    1.6909 N.1       1 RES1    0.0000
@<TRIPOS>BOND
     1    1    6 2
     2    2   11 1
     3    3    4 1
     4    5    6 2
     5    6    7 1
     6    7    8 1
     7    8    9 1
     8   10    8 1
     9   11    3 1
    10   12    8 1
    11   13   12 1
    12   14    2 1
    13   15   10 ar
    14   16   15 1
    15   17   12 1
    16   18   12 1
    17   19   14 ar
    18   20   19 1
    19   21   17 3
    20   22   15 ar
    21   23   22 1
    22   24    3 1
    23   25   24 1
    24   26   24 1
    25   27   24 1
    26   28   19 ar
    27   29   28 1
    28   30   18 3
    29    7   11 2
    30   10   14 ar
    31   22   28 ar
@<TRIPOS>SUBSTRUCTURE
     1 RES1 1

@<TRIPOS>CRYSIN
   9.3443   10.1087   13.3121  90.0000  95.6590  90.0000  14 1

