# MOL2 file generated by ConQuest
# Please check atom types

@<TRIPOS>MOLECULE
KUHKEF
    38    39     1
SMALL
NO_CHARGES
****
Generated from CSD

@<TRIPOS>ATOM
      1 O1         2.9794    2.5289    0.9310 O.3       1 RES1    0.0000
      2 O2         1.8611    7.0927    3.3687 O.2       1 RES1    0.0000
      3 O3         6.9116    3.0282    1.8879 O.2       1 RES1    0.0000
      4 N1         5.0547    2.0999    0.2996 N.pl3     1 RES1    0.0000
      5 H1         5.9067    2.1186    0.4202 H         1 RES1    0.0000
      6 O4         6.3485    4.2624    3.6040 O.2       1 RES1    0.0000
      7 O5         3.3681    6.4993    4.9108 O.3       1 RES1    0.0000
      8 N2         6.0322    3.5662    2.6112 N.pl3     1 RES1    0.0000
      9 C1         3.7232    5.6739    2.7877 C.3       1 RES1    0.0000
     10 H2         4.6435    6.0002    2.8708 H         1 RES1    0.0000
     11 N3         3.0069    5.9346    0.2985 N.1       1 RES1    0.0000
     12 C2         2.0366    2.7900    1.9310 C.ar      1 RES1    0.0000
     13 C3         3.7191    4.1406    3.1742 C.3       1 RES1    0.0000
     14 H3         4.0058    4.0587    4.1072 H         1 RES1    0.0000
     15 C4         4.5425    1.4336   -0.8931 C.3       1 RES1    0.0000
     16 H4         3.9670    0.7113   -0.6336 H         1 RES1    0.0000
     17 H5         5.2771    1.0891   -1.4079 H         1 RES1    0.0000
     18 H6         4.0476    2.0619   -1.4233 H         1 RES1    0.0000
     19 C5         4.2905    2.6741    1.2022 C.2       1 RES1    0.0000
     20 C6         2.3478    3.5309    3.0455 C.ar      1 RES1    0.0000
     21 C7         3.3151    5.8429    1.3956 C.1       1 RES1    0.0000
     22 C8         1.3581    3.6768    4.0097 C.ar      1 RES1    0.0000
     23 H7         1.5397    4.1473    4.7913 H         1 RES1    0.0000
     24 C9         4.6884    3.3971    2.3209 C.2       1 RES1    0.0000
     25 C10        0.7877    2.2325    1.7135 C.ar      1 RES1    0.0000
     26 H8         0.6091    1.7450    0.9415 H         1 RES1    0.0000
     27 C11        2.8488    6.5159    3.7008 C.2       1 RES1    0.0000
     28 C12       -0.1796    2.4231    2.6728 C.ar      1 RES1    0.0000
     29 H9        -1.0316    2.0716    2.5452 H         1 RES1    0.0000
     30 C13        0.1020    3.1246    3.8141 C.ar      1 RES1    0.0000
     31 H10       -0.5551    3.2326    4.4635 H         1 RES1    0.0000
     32 C14        2.6447    7.2387    5.9658 C.3       1 RES1    0.0000
     33 H11        2.5988    8.1825    5.7439 H         1 RES1    0.0000
     34 H12        1.7407    6.8997    6.0562 H         1 RES1    0.0000
     35 C15        3.3742    7.0491    7.1927 C.3       1 RES1    0.0000
     36 H13        3.4457    6.1109    7.3806 H         1 RES1    0.0000
     37 H14        2.9110    7.4850    7.9107 H         1 RES1    0.0000
     38 H15        4.2527    7.4255    7.1034 H         1 RES1    0.0000
@<TRIPOS>BOND
     1    1   12 1
     2    2   27 2
     3    3    8 2
     4    4    5 1
     5    6    8 2
     6    7   27 1
     7    8   24 1
     8    9   10 1
     9   11   21 3
    10   12   20 ar
    11   13    9 1
    12   14   13 1
    13   15    4 1
    14   16   15 1
    15   17   15 1
    16   18   15 1
    17   19    1 1
    18   20   13 1
    19   21    9 1
    20   22   20 ar
    21   23   22 1
    22   24   13 1
    23   25   12 ar
    24   26   25 1
    25   27    9 1
    26   28   25 ar
    27   29   28 1
    28   30   22 ar
    29   31   30 1
    30   32    7 1
    31   33   32 1
    32   34   32 1
    33   35   32 1
    34   36   35 1
    35   37   35 1
    36   38   35 1
    37    4   19 1
    38   19   24 2
    39   28   30 ar
@<TRIPOS>SUBSTRUCTURE
     1 RES1 1

@<TRIPOS>CRYSIN
  10.2033   13.8381   21.9987  90.0000  90.0000  90.0000  61 1

