# MOL2 file generated by ConQuest
# Please check atom types

@<TRIPOS>MOLECULE
KUJBEW
    40    38     2
SMALL
USER_CHARGES
****
Generated from CSD

@<TRIPOS>ATOM
      1 O1        -1.8533    1.9945    6.0127 O.2       1 RES1   -1.0000
      2 N1        -0.6403    1.9333    6.5501 N.pl3     1 RES1    1.0000
      3 C1        -0.0454    0.5908    6.6073 C.3       1 RES1    0.0000
      4 C2        -0.0464    3.0545    6.8804 C.2       1 RES1    0.0000
      5 N2        -0.6729    4.2113    6.6183 N.3       1 RES1    0.0000
      6 C3         1.2655    3.0623    7.5773 C.2       1 RES1    0.0000
      7 O2         1.6828    2.1416    8.2269 O.2       1 RES1    0.0000
      8 O3         1.8741    4.2214    7.4727 O.3       1 RES1    0.0000
      9 C4         3.1874    4.3304    8.1146 C.3       1 RES1    0.0000
     10 C5         3.5060    5.7570    8.2754 C.3       1 RES1    0.0000
     11 O4         2.0962   -1.9259    6.9288 O.2       2 RES2   -1.0000
     12 N3         2.5051   -1.3592    8.0607 N.pl3     2 RES2    1.0000
     13 C6         1.8926   -1.9094    9.2564 C.3       2 RES2    0.0000
     14 C7         3.3890   -0.3924    7.9913 C.2       2 RES2    0.0000
     15 N4         3.8492   -0.0350    6.7945 N.3       2 RES2    0.0000
     16 C8         3.9112    0.2683    9.2190 C.2       2 RES2    0.0000
     17 O5         3.4772    0.1709   10.3277 O.2       2 RES2    0.0000
     18 O6         4.9472    1.0292    8.9041 O.3       2 RES2    0.0000
     19 C9         5.6132    1.7588    9.9897 C.3       2 RES2    0.0000
     20 C10        6.6059    0.8647   10.6019 C.3       2 RES2    0.0000
     21 H1        -0.3566    0.0923    5.8487 H         1 RES1    0.0000
     22 H2        -0.3710    0.1846    7.4133 H         1 RES1    0.0000
     23 H3         0.9148    0.5948    6.6150 H         1 RES1    0.0000
     24 H4        -1.5210    4.0295    6.1636 H         1 RES1    0.0000
     25 H5        -0.2716    5.0800    6.8253 H         1 RES1    0.0000
     26 H6         3.1658    3.9036    8.9745 H         1 RES1    0.0000
     27 H7         3.8530    3.9087    7.5652 H         1 RES1    0.0000
     28 H8         4.3616    5.7160    8.7081 H         1 RES1    0.0000
     29 H9         2.8851    6.2256    8.8369 H         1 RES1    0.0000
     30 H10        3.5922    6.2199    7.4386 H         1 RES1    0.0000
     31 H11        2.3628   -1.6907   10.0646 H         2 RES2    0.0000
     32 H12        1.9022   -2.8606    9.1287 H         2 RES2    0.0000
     33 H13        0.9839   -1.6044    9.3225 H         2 RES2    0.0000
     34 H14        3.4442   -0.3819    5.9742 H         2 RES2    0.0000
     35 H15        4.5108    0.6574    6.5952 H         2 RES2    0.0000
     36 H16        6.0506    2.5380    9.6385 H         2 RES2    0.0000
     37 H17        4.9664    2.0238   10.6481 H         2 RES2    0.0000
     38 H18        6.1897    0.0490   10.8892 H         2 RES2    0.0000
     39 H19        7.0380    1.2850   11.3484 H         2 RES2    0.0000
     40 H20        7.2570    0.6695    9.9236 H         2 RES2    0.0000
@<TRIPOS>BOND
     1    1    2 1
     2    2    3 1
     3    3   21 1
     4    4    2 2
     5    5    4 1
     6    6    4 1
     7    7    6 2
     8    8    6 1
     9    9    8 1
    10   10    9 1
    11   11   12 1
    12   12   13 1
    13   13   31 1
    14   14   12 2
    15   15   14 1
    16   16   14 1
    17   17   16 2
    18   18   16 1
    19   19   18 1
    20   20   19 1
    21   22    3 1
    22   23    3 1
    23   24    5 1
    24   25    5 1
    25   26    9 1
    26   27    9 1
    27   28   10 1
    28   29   10 1
    29   30   10 1
    30   32   13 1
    31   33   13 1
    32   34   15 1
    33   35   15 1
    34   36   19 1
    35   37   19 1
    36   38   20 1
    37   39   20 1
    38   40   20 1
@<TRIPOS>SUBSTRUCTURE
     1 RES1 1
     2 RES2 11

@<TRIPOS>CRYSIN
   7.5560    9.2010   11.5050  96.6300 103.3400 103.8500   2 1

