# MOL2 file generated by ConQuest
# Please check atom types

@<TRIPOS>MOLECULE
KUJHUS
    34    36     1
SMALL
NO_CHARGES
****
Generated from CSD

@<TRIPOS>ATOM
      1 C1         3.8912   -0.7291    1.5637 C.2       1 RES1    0.0000
      2 H1         3.4458   -1.5312    1.4110 H         1 RES1    0.0000
      3 C2         5.2205   -0.4712    1.0034 C.2       1 RES1    0.0000
      4 C3         5.9100    0.7583    1.1928 C.2       1 RES1    0.0000
      5 H2         6.7577    0.8878    0.8328 H         1 RES1    0.0000
      6 C4         5.3083    1.7325    1.9056 C.2       1 RES1    0.0000
      7 C5         3.9678    1.5795    2.5822 C.3       1 RES1    0.0000
      8 C6         3.3431    0.2525    2.3121 C.2       1 RES1    0.0000
      9 C7         4.1830    1.7782    4.1432 C.2       1 RES1    0.0000
     10 C8         3.6927    3.1051    4.4221 C.ar      1 RES1    0.0000
     11 C9         3.7142    3.8337    5.6339 C.ar      1 RES1    0.0000
     12 H3         4.0353    3.4627    6.4239 H         1 RES1    0.0000
     13 C10        3.2237    5.1485    5.5781 C.ar      1 RES1    0.0000
     14 H4         3.2932    5.6824    6.3364 H         1 RES1    0.0000
     15 C11        2.6447    5.6801    4.4484 C.ar      1 RES1    0.0000
     16 H5         2.2666    6.5293    4.4763 H         1 RES1    0.0000
     17 C12        2.6232    4.9239    3.2232 C.ar      1 RES1    0.0000
     18 H6         2.2913    5.2819    2.4317 H         1 RES1    0.0000
     19 C13        3.1202    3.6437    3.2876 C.ar      1 RES1    0.0000
     20 C14        7.0214    3.3154    1.4579 C.3       1 RES1    0.0000
     21 H7         7.2652    4.2141    1.6915 H         1 RES1    0.0000
     22 H8         6.8993    3.2537    0.5077 H         1 RES1    0.0000
     23 H9         7.7178    2.7137    1.7308 H         1 RES1    0.0000
     24 C15        1.4400   -1.0769    2.8210 C.3       1 RES1    0.0000
     25 H10        0.5866   -0.9813    3.2501 H         1 RES1    0.0000
     26 H11        1.9563   -1.7433    3.2803 H         1 RES1    0.0000
     27 H12        1.3111   -1.3449    1.9082 H         1 RES1    0.0000
     28 N1         3.0173    2.6778    2.2480 N.3       1 RES1    0.0000
     29 O1         5.7667   -1.3640    0.3243 O.2       1 RES1    0.0000
     30 O2         5.7764    2.9575    2.1331 O.3       1 RES1    0.0000
     31 O3         2.1354    0.1747    2.8574 O.3       1 RES1    0.0000
     32 O4         4.6711    0.9309    4.8438 O.2       1 RES1    0.0000
     33 O5         3.1563    3.2085    0.9399 O.3       1 RES1    0.0000
     34 H13        2.7254    2.7519    0.4124 H         1 RES1    0.0000
@<TRIPOS>BOND
     1    1    2 1
     2    3    1 1
     3    4    3 1
     4    5    4 1
     5    6    4 2
     6    7    6 1
     7    8    1 2
     8    9    7 1
     9   10    9 1
    10   11   10 ar
    11   12   11 1
    12   13   11 ar
    13   14   13 1
    14   15   13 ar
    15   16   15 1
    16   17   15 ar
    17   18   17 1
    18   19   10 ar
    19   20   21 1
    20   22   20 1
    21   23   20 1
    22   24   25 1
    23   26   24 1
    24   27   24 1
    25   28    7 1
    26   29    3 2
    27   30    6 1
    28   31    8 1
    29   32    9 2
    30   33   28 1
    31   34   33 1
    32    7    8 1
    33   17   19 ar
    34   19   28 1
    35   20   30 1
    36   24   31 1
@<TRIPOS>SUBSTRUCTURE
     1 RES1 1

@<TRIPOS>CRYSIN
   7.3500    8.8400   10.9300  93.9000  92.8000 111.0000   2 1

