# MOL2 file generated by ConQuest
# Please check atom types

@<TRIPOS>MOLECULE
KUJJIK
    45    48     1
SMALL
NO_CHARGES
****
Generated from CSD

@<TRIPOS>ATOM
      1 O1         2.0689   -0.0184    5.0719 O.3       1 RES1    0.0000
      2 N1         4.8561    1.9072    4.3023 N.am      1 RES1    0.0000
      3 O2         3.0778    1.3855    6.4142 O.2       1 RES1    0.0000
      4 O3         1.0072    0.3465    2.0043 O.2       1 RES1    0.0000
      5 O4         6.2307    3.6677    3.8451 O.2       1 RES1    0.0000
      6 O5         6.0979    0.2008    5.3031 O.3       1 RES1    0.0000
      7 H1         6.5578    0.7131    5.7484 H         1 RES1    0.0000
      8 C1         1.5524    3.2321    3.6324 C.ar      1 RES1    0.0000
      9 H2         0.8759    2.6019    3.7334 H         1 RES1    0.0000
     10 C2         3.6266    0.5172    2.9293 C.3       1 RES1    0.0000
     11 H3         2.8806   -0.1170    2.9612 H         1 RES1    0.0000
     12 C3         3.4786    1.5645    4.0710 C.3       1 RES1    0.0000
     13 C4         3.5446    5.1199    3.3879 C.ar      1 RES1    0.0000
     14 H4         4.2207    5.7545    3.3228 H         1 RES1    0.0000
     15 C5         5.1125    3.2024    3.9501 C.2       1 RES1    0.0000
     16 C6         3.8379    3.8273    3.6683 C.ar      1 RES1    0.0000
     17 C7         1.2621    4.5516    3.3400 C.ar      1 RES1    0.0000
     18 H5         0.3766    4.8156    3.2337 H         1 RES1    0.0000
     19 C8         2.6483    2.2993   -0.2951 C.ar      1 RES1    0.0000
     20 H6         1.8744    2.5449   -0.7496 H         1 RES1    0.0000
     21 C9         5.7633    0.8038    4.1069 C.3       1 RES1    0.0000
     22 C10        4.8862    1.5665    1.0487 C.ar      1 RES1    0.0000
     23 H7         5.6679    1.3259    1.4913 H         1 RES1    0.0000
     24 C11        2.5706    1.5786    0.8666 C.ar      1 RES1    0.0000
     25 C12        3.6592    1.1957    1.5936 C.ar      1 RES1    0.0000
     26 C13        2.8572    2.8888    3.7693 C.ar      1 RES1    0.0000
     27 C14        2.2601    5.4718    3.2058 C.ar      1 RES1    0.0000
     28 H8         2.0498    6.3505    2.9852 H         1 RES1    0.0000
     29 C15        4.9114   -0.1806    3.3228 C.3       1 RES1    0.0000
     30 H9         5.3861   -0.4742    2.5293 H         1 RES1    0.0000
     31 H10        4.7134   -0.9586    3.8664 H         1 RES1    0.0000
     32 O6         0.3261    1.8681    0.8028 O.2       1 RES1    0.0000
     33 C16        1.4929   -0.7264    6.1856 C.3       1 RES1    0.0000
     34 H11        0.6529   -1.1304    5.9172 H         1 RES1    0.0000
     35 H12        1.3140   -0.1061    6.9100 H         1 RES1    0.0000
     36 C17        4.9734    2.2633   -0.1023 C.ar      1 RES1    0.0000
     37 H13        5.8126    2.4804   -0.4386 H         1 RES1    0.0000
     38 C18        2.4089   -1.7577    6.6415 C.3       1 RES1    0.0000
     39 H14        2.0202   -2.2257    7.3832 H         1 RES1    0.0000
     40 H15        2.5763   -2.3752    5.9251 H         1 RES1    0.0000
     41 H16        3.2356   -1.3532    6.9153 H         1 RES1    0.0000
     42 C19        3.8738    2.6531   -0.7775 C.ar      1 RES1    0.0000
     43 H17        3.9496    3.1531   -1.5577 H         1 RES1    0.0000
     44 C20        2.8874    0.9837    5.3284 C.2       1 RES1    0.0000
     45 N2         1.2099    1.1953    1.2374 N.pl3     1 RES1    0.0000
@<TRIPOS>BOND
     1    1   33 1
     2    2   12 1
     3    3   44 2
     4    4   45 2
     5    5   15 2
     6    6    7 1
     7    8    9 1
     8   10   11 1
     9   12   10 1
    10   13   14 1
    11   15    2 1
    12   16   13 ar
    13   17    8 ar
    14   18   17 1
    15   19   20 1
    16   21    2 1
    17   22   23 1
    18   24   19 ar
    19   25   10 1
    20   26    8 ar
    21   27   13 ar
    22   28   27 1
    23   29   10 1
    24   30   29 1
    25   31   29 1
    26   32   45 2
    27   33   34 1
    28   35   33 1
    29   36   22 ar
    30   37   36 1
    31   38   33 1
    32   39   38 1
    33   40   38 1
    34   41   38 1
    35   42   19 ar
    36   43   42 1
    37   44    1 1
    38   45   24 1
    39    6   21 1
    40   12   26 1
    41   12   44 1
    42   15   16 1
    43   16   26 ar
    44   17   27 ar
    45   21   29 1
    46   22   25 ar
    47   24   25 ar
    48   36   42 ar
@<TRIPOS>SUBSTRUCTURE
     1 RES1 1

@<TRIPOS>CRYSIN
   7.9070    8.3950   13.9870  73.2600  78.8500  74.0200   2 1

