# MOL2 file generated by ConQuest
# Please check atom types

@<TRIPOS>MOLECULE
KUKFUS
    49    51     1
SMALL
NO_CHARGES
****
Generated from CSD

@<TRIPOS>ATOM
      1 O1        -5.3738    5.5735   11.0344 O.3       1 RES1    0.0000
      2 H1        -5.3485    6.2499   11.4972 H         1 RES1    0.0000
      3 O2        -4.2110    3.1146   11.2747 O.3       1 RES1    0.0000
      4 H2        -4.7961    3.6238   11.5413 H         1 RES1    0.0000
      5 O3        -2.8009    5.3670   13.0052 O.3       1 RES1    0.0000
      6 H3        -3.0840    5.2343   12.2474 H         1 RES1    0.0000
      7 N1        -3.1087    3.8945   10.6948 N.3       1 RES1    0.0000
      8 C1        -4.6648    4.6539    8.8561 C.3       1 RES1    0.0000
      9 H4        -5.4137    4.0241    8.9060 H         1 RES1    0.0000
     10 C2        -4.4475    5.0945    7.3816 C.3       1 RES1    0.0000
     11 H5        -4.8215    4.4389    6.7725 H         1 RES1    0.0000
     12 H6        -4.8743    5.9494    7.2163 H         1 RES1    0.0000
     13 C3        -2.9114    5.2069    7.1820 C.3       1 RES1    0.0000
     14 H7        -2.6158    4.6069    6.4799 H         1 RES1    0.0000
     15 H8        -2.6662    6.1129    6.9389 H         1 RES1    0.0000
     16 C4        -2.2702    4.8164    8.5346 C.3       1 RES1    0.0000
     17 H9        -2.0870    5.6035    9.0711 H         1 RES1    0.0000
     18 H10       -1.4428    4.3300    8.3978 H         1 RES1    0.0000
     19 C5        -3.3322    3.9192    9.2160 C.3       1 RES1    0.0000
     20 C6        -1.8541    3.1767   11.0678 C.3       1 RES1    0.0000
     21 H11       -1.1090    3.6699   10.6650 H         1 RES1    0.0000
     22 C7        -1.7964    1.7392   10.5170 C.3       1 RES1    0.0000
     23 H12       -0.9255    1.3568   10.7066 H         1 RES1    0.0000
     24 H13       -2.4654    1.1965   10.9625 H         1 RES1    0.0000
     25 C8        -2.0461    1.7145    8.9989 C.3       1 RES1    0.0000
     26 H14       -2.1250    0.7950    8.7004 H         1 RES1    0.0000
     27 H15       -1.2909    2.1151    8.5415 H         1 RES1    0.0000
     28 C9        -3.3310    2.4817    8.6366 C.3       1 RES1    0.0000
     29 H16       -4.0986    1.9989    8.9803 H         1 RES1    0.0000
     30 H17       -3.4143    2.5270    7.6715 H         1 RES1    0.0000
     31 C10       -1.2775    4.5602   14.6919 C.ar      1 RES1    0.0000
     32 C11       -2.2528    4.1136   15.5883 C.ar      1 RES1    0.0000
     33 H18       -3.0919    3.8680   15.2711 H         1 RES1    0.0000
     34 C12       -1.9778    4.0319   16.9598 C.ar      1 RES1    0.0000
     35 H19       -2.6326    3.7344   17.5484 H         1 RES1    0.0000
     36 C13       -0.7175    4.3980   17.4417 C.ar      1 RES1    0.0000
     37 H20       -0.5356    4.3550   18.3528 H         1 RES1    0.0000
     38 C14        0.2615    4.8271   16.5544 C.ar      1 RES1    0.0000
     39 H21        1.1030    5.0623   16.8725 H         1 RES1    0.0000
     40 C15       -0.0112    4.9072   15.1868 C.ar      1 RES1    0.0000
     41 H22        0.6515    5.1922   14.6003 H         1 RES1    0.0000
     42 C16       -4.9794    5.8974    9.6939 C.3       1 RES1    0.0000
     43 H23       -4.1948    6.4666    9.7230 H         1 RES1    0.0000
     44 H24       -5.6922    6.3962    9.2653 H         1 RES1    0.0000
     45 C17       -1.6509    3.2152   12.5918 C.3       1 RES1    0.0000
     46 H25       -2.3857    2.7426   13.0128 H         1 RES1    0.0000
     47 H26       -0.8341    2.7370   12.8060 H         1 RES1    0.0000
     48 C18       -1.5652    4.6250   13.1973 C.3       1 RES1    0.0000
     49 H27       -0.8356    5.1115   12.7581 H         1 RES1    0.0000
@<TRIPOS>BOND
     1    1    2 1
     2    3    4 1
     3    5    6 1
     4    7    3 1
     5    8    9 1
     6   10    8 1
     7   11   10 1
     8   12   10 1
     9   13   10 1
    10   14   13 1
    11   15   13 1
    12   16   13 1
    13   17   16 1
    14   18   16 1
    15   19    7 1
    16   20    7 1
    17   21   20 1
    18   22   20 1
    19   23   22 1
    20   24   22 1
    21   25   22 1
    22   26   25 1
    23   27   25 1
    24   28   19 1
    25   29   28 1
    26   30   28 1
    27   31   32 ar
    28   32   33 1
    29   34   32 ar
    30   35   34 1
    31   36   34 ar
    32   37   36 1
    33   38   36 ar
    34   39   38 1
    35   40   31 ar
    36   41   40 1
    37   42    1 1
    38   43   42 1
    39   44   42 1
    40   45   20 1
    41   46   45 1
    42   47   45 1
    43   48    5 1
    44   49   48 1
    45    8   19 1
    46    8   42 1
    47   16   19 1
    48   25   28 1
    49   31   48 1
    50   38   40 ar
    51   45   48 1
@<TRIPOS>SUBSTRUCTURE
     1 RES1 1

@<TRIPOS>CRYSIN
   6.2552   10.5282   13.4329 104.4540 101.7960  97.2500   2 1

