# MOL2 file generated by ConQuest
# Please check atom types

@<TRIPOS>MOLECULE
KUKFOM
    92    98     2
SMALL
NO_CHARGES
****
Generated from CSD

@<TRIPOS>ATOM
      1 O1         0.3062   14.3280    4.8682 O.3       1 RES1    0.0000
      2 O2        -0.9035   18.5039    1.3836 O.3       1 RES1    0.0000
      3 H1        -1.7193   18.4954    1.2979 H         1 RES1    0.0000
      4 N1        -0.4472   15.3082    4.0476 N.3       1 RES1    0.0000
      5 C1        -0.2057   14.9424    2.6341 C.3       1 RES1    0.0000
      6 C2        -0.7318   16.0758    1.7135 C.3       1 RES1    0.0000
      7 H2        -1.6795   15.9245    1.5127 H         1 RES1    0.0000
      8 C3         0.1090   15.9082    0.4219 C.3       1 RES1    0.0000
      9 H3        -0.3534   15.3386   -0.2128 H         1 RES1    0.0000
     10 H4         0.2679   16.7705    0.0064 H         1 RES1    0.0000
     11 C4         1.4438   15.2633    0.8537 C.3       1 RES1    0.0000
     12 H5         1.6052   14.4493    0.3511 H         1 RES1    0.0000
     13 H6         2.1805   15.8750    0.7000 H         1 RES1    0.0000
     14 C5         1.3092   14.9492    2.3563 C.3       1 RES1    0.0000
     15 H7         1.6999   14.0861    2.5627 H         1 RES1    0.0000
     16 H8         1.7528   15.6274    2.8893 H         1 RES1    0.0000
     17 C6        -0.5467   17.4716    2.3092 C.3       1 RES1    0.0000
     18 H9        -1.0956   17.5546    3.1053 H         1 RES1    0.0000
     19 H10        0.3796   17.5855    2.5723 H         1 RES1    0.0000
     20 C7         0.8158   15.5752    6.9135 C.ar      1 RES1    0.0000
     21 C8         0.7117   15.7345    8.2955 C.ar      1 RES1    0.0000
     22 H11        0.0549   15.2705    8.7626 H         1 RES1    0.0000
     23 C9         1.5766   16.5774    8.9843 C.ar      1 RES1    0.0000
     24 H12        1.5043   16.6632    9.9073 H         1 RES1    0.0000
     25 C10        2.5479   17.2929    8.2969 C.ar      1 RES1    0.0000
     26 H13        3.1305   17.8537    8.7573 H         1 RES1    0.0000
     27 C11        2.6436   17.1652    6.9115 C.ar      1 RES1    0.0000
     28 H14        3.2797   17.6557    6.4425 H         1 RES1    0.0000
     29 C12        1.7868   16.3021    6.2271 C.ar      1 RES1    0.0000
     30 H15        1.8645   16.2113    5.3052 H         1 RES1    0.0000
     31 C13       -1.8265   15.0819    4.5551 C.3       1 RES1    0.0000
     32 H16       -2.4122   15.8111    4.2638 H         1 RES1    0.0000
     33 C14       -0.1271   14.6218    6.2029 C.3       1 RES1    0.0000
     34 H17       -0.1679   13.7849    6.7105 H         1 RES1    0.0000
     35 C15       -1.5682   15.1913    6.0650 C.3       1 RES1    0.0000
     36 H18       -2.2049   14.6618    6.5701 H         1 RES1    0.0000
     37 H19       -1.6123   16.1123    6.3637 H         1 RES1    0.0000
     38 C16       -2.4394   13.7296    4.1527 C.3       1 RES1    0.0000
     39 H20       -2.0035   13.0194    4.6489 H         1 RES1    0.0000
     40 H21       -3.3812   13.7230    4.3850 H         1 RES1    0.0000
     41 C17       -2.2871   13.4676    2.6591 C.3       1 RES1    0.0000
     42 H22       -2.8120   14.1109    2.1585 H         1 RES1    0.0000
     43 H23       -2.6155   12.5799    2.4478 H         1 RES1    0.0000
     44 C18       -0.8142   13.5815    2.2615 C.3       1 RES1    0.0000
     45 H24       -0.7326   13.4486    1.3042 H         1 RES1    0.0000
     46 H25       -0.3114   12.8791    2.7021 H         1 RES1    0.0000
     47 O3         3.7210    1.1484    3.6738 O.3       2 RES2    0.0000
     48 O4         3.3161   -2.0938    1.5052 O.3       2 RES2    0.0000
     49 H26        3.3555   -1.5722    2.1383 H         2 RES2    0.0000
     50 N2         2.9615    0.3043    2.7199 N.3       2 RES2    0.0000
     51 C19        3.1669    0.9460    1.3893 C.3       2 RES2    0.0000
     52 C20        2.7617   -0.0468    0.2251 C.3       2 RES2    0.0000
     53 H27        2.0066    0.3508   -0.2564 H         2 RES2    0.0000
     54 C21        3.9770   -0.0697   -0.7378 C.3       2 RES2    0.0000
     55 H28        4.4697   -0.8996   -0.6415 H         2 RES2    0.0000
     56 H29        3.6817    0.0124   -1.6585 H         2 RES2    0.0000
     57 C22        4.8489    1.1162   -0.3514 C.3       2 RES2    0.0000
     58 H30        4.5354    1.9354   -0.7681 H         2 RES2    0.0000
     59 H31        5.7750    0.9677   -0.5979 H         2 RES2    0.0000
     60 C23        4.6782    1.1645    1.1674 C.3       2 RES2    0.0000
     61 H32        4.9586    2.0241    1.5202 H         2 RES2    0.0000
     62 H33        5.1951    0.4642    1.5957 H         2 RES2    0.0000
     63 C24        2.3599   -1.4645    0.6262 C.3       2 RES2    0.0000
     64 H34        1.4972   -1.4361    1.0681 H         2 RES2    0.0000
     65 H35        2.2642   -2.0035   -0.1745 H         2 RES2    0.0000
     66 C25        4.2706   -0.0526    5.7369 C.ar      2 RES2    0.0000
     67 C26        5.2148   -0.8400    5.0749 C.ar      2 RES2    0.0000
     68 H36        5.2563   -0.8274    4.1457 H         2 RES2    0.0000
     69 C27        6.0930   -1.6416    5.7949 C.ar      2 RES2    0.0000
     70 H37        6.7122   -2.1706    5.3446 H         2 RES2    0.0000
     71 C28        6.0523   -1.6581    7.1859 C.ar      2 RES2    0.0000
     72 H38        6.6494   -2.1850    7.6659 H         2 RES2    0.0000
     73 C29        5.1081   -0.8783    7.8535 C.ar      2 RES2    0.0000
     74 H39        5.0709   -0.8893    8.7829 H         2 RES2    0.0000
     75 C30        4.2225   -0.0854    7.1322 C.ar      2 RES2    0.0000
     76 H40        3.5913    0.4271    7.5829 H         2 RES2    0.0000
     77 C31        1.5871    0.3605    3.3039 C.3       2 RES2    0.0000
     78 H41        1.0390   -0.3590    2.9255 H         2 RES2    0.0000
     79 C32        3.2507    0.7880    4.9911 C.3       2 RES2    0.0000
     80 H42        3.0790    1.6073    5.5021 H         2 RES2    0.0000
     81 C33        1.9115    0.0462    4.7679 C.3       2 RES2    0.0000
     82 H43        2.0116   -0.9079    4.9074 H         2 RES2    0.0000
     83 H44        1.2209    0.3838    5.3606 H         2 RES2    0.0000
     84 C34        0.8713    1.6997    3.1287 C.3       2 RES2    0.0000
     85 H45        1.2850    2.3666    3.6999 H         2 RES2    0.0000
     86 H46       -0.0571    1.6094    3.3946 H         2 RES2    0.0000
     87 C35        0.9439    2.1599    1.6726 C.3       2 RES2    0.0000
     88 H47        0.5001    3.0165    1.5744 H         2 RES2    0.0000
     89 H48        0.4967    1.5165    1.1000 H         2 RES2    0.0000
     90 C36        2.4158    2.2851    1.2670 C.3       2 RES2    0.0000
     91 H49        2.8471    2.9464    1.8319 H         2 RES2    0.0000
     92 H50        2.4685    2.5977    0.3500 H         2 RES2    0.0000
@<TRIPOS>BOND
     1    1    4 1
     2    2    3 1
     3    4    5 1
     4    5    6 1
     5    6    7 1
     6    8    6 1
     7    9    8 1
     8   10    8 1
     9   11    8 1
    10   12   11 1
    11   13   11 1
    12   14    5 1
    13   15   14 1
    14   16   14 1
    15   17    2 1
    16   18   17 1
    17   19   17 1
    18   20   21 ar
    19   21   22 1
    20   23   21 ar
    21   24   23 1
    22   25   23 ar
    23   26   25 1
    24   27   25 ar
    25   28   27 1
    26   29   20 ar
    27   30   29 1
    28   31    4 1
    29   32   31 1
    30   33    1 1
    31   34   33 1
    32   35   31 1
    33   36   35 1
    34   37   35 1
    35   38   31 1
    36   39   38 1
    37   40   38 1
    38   41   38 1
    39   42   41 1
    40   43   41 1
    41   44    5 1
    42   45   44 1
    43   46   44 1
    44   47   50 1
    45   48   49 1
    46   50   51 1
    47   51   52 1
    48   52   53 1
    49   54   52 1
    50   55   54 1
    51   56   54 1
    52   57   54 1
    53   58   57 1
    54   59   57 1
    55   60   51 1
    56   61   60 1
    57   62   60 1
    58   63   48 1
    59   64   63 1
    60   65   63 1
    61   66   67 ar
    62   67   68 1
    63   69   67 ar
    64   70   69 1
    65   71   69 ar
    66   72   71 1
    67   73   71 ar
    68   74   73 1
    69   75   66 ar
    70   76   75 1
    71   77   50 1
    72   78   77 1
    73   79   47 1
    74   80   79 1
    75   81   77 1
    76   82   81 1
    77   83   81 1
    78   84   77 1
    79   85   84 1
    80   86   84 1
    81   87   84 1
    82   88   87 1
    83   89   87 1
    84   90   51 1
    85   91   90 1
    86   92   90 1
    87    6   17 1
    88   11   14 1
    89   20   33 1
    90   27   29 ar
    91   33   35 1
    92   41   44 1
    93   52   63 1
    94   57   60 1
    95   66   79 1
    96   73   75 ar
    97   79   81 1
    98   87   90 1
@<TRIPOS>SUBSTRUCTURE
     1 RES1 1
     2 RES2 47

@<TRIPOS>CRYSIN
   7.0336   20.6330   10.9160  90.0000 102.9550  90.0000   4 1

