# MOL2 file generated by ConQuest
# Please check atom types

@<TRIPOS>MOLECULE
KUKHUV
    35    36     1
SMALL
NO_CHARGES
****
Generated from CSD

@<TRIPOS>ATOM
      1 N1         3.5208    5.1542    4.8118 N.2       1 RES1    0.0000
      2 N2         4.5616    4.4333    4.3975 N.3       1 RES1    0.0000
      3 C1         4.4695    4.1922    3.0430 C.2       1 RES1    0.0000
      4 C2         3.3202    4.8043    2.5413 C.2       1 RES1    0.0000
      5 C3         2.7677    5.3549    3.7300 C.2       1 RES1    0.0000
      6 N3         5.3682    3.3772    2.3343 N.pl3     1 RES1    0.0000
      7 O1         6.2801    2.8190    2.9427 O.2       1 RES1    0.0000
      8 O2         5.1581    3.2433    1.1173 O.2       1 RES1    0.0000
      9 N4         2.8425    4.8344    1.2952 N.3       1 RES1    0.0000
     10 N5         1.5063    6.0035    3.8627 N.pl3     1 RES1    0.0000
     11 O3         1.0987    6.2965    4.9861 O.2       1 RES1    0.0000
     12 O4         0.8834    6.2072    2.8150 O.2       1 RES1    0.0000
     13 C4         5.7053    4.2829    5.3148 C.3       1 RES1    0.0000
     14 H1         5.4108    4.4590    6.2430 H         1 RES1    0.0000
     15 H2         6.0449    3.3535    5.2714 H         1 RES1    0.0000
     16 O5         6.7425    5.1826    4.9687 O.3       1 RES1    0.0000
     17 C5         6.4555    6.5138    5.3901 C.3       1 RES1    0.0000
     18 H3         6.4975    6.5748    6.3773 H         1 RES1    0.0000
     19 H4         5.5461    6.7742    5.0993 H         1 RES1    0.0000
     20 N6         7.4426    7.3956    4.7924 N.pl3     1 RES1    0.0000
     21 N7         8.3009    8.0094    5.5964 N.2       1 RES1    0.0000
     22 C6         9.0575    8.7577    4.7917 C.2       1 RES1    0.0000
     23 C7         8.7505    8.6208    3.4132 C.2       1 RES1    0.0000
     24 C8         7.6634    7.7402    3.4708 C.2       1 RES1    0.0000
     25 N8        10.0181    9.6313    5.3769 N.pl3     1 RES1    0.0000
     26 O6        10.1693    9.6165    6.6015 O.2       1 RES1    0.0000
     27 O7        10.6364   10.3792    4.6107 O.2       1 RES1    0.0000
     28 N9         9.3177    9.1984    2.3468 N.3       1 RES1    0.0000
     29 N10        6.7940    7.4130    2.4222 N.pl3     1 RES1    0.0000
     30 O8         5.7265    6.8362    2.6637 O.2       1 RES1    0.0000
     31 O9         7.1379    7.7822    1.2860 O.2       1 RES1    0.0000
     32 H5         2.1814    5.3651    1.1346 H         1 RES1    0.0000
     33 H6         3.3121    4.4803    0.6703 H         1 RES1    0.0000
     34 H7         9.1173    8.8911    1.6159 H         1 RES1    0.0000
     35 H8        10.0669    9.7177    2.4844 H         1 RES1    0.0000
@<TRIPOS>BOND
     1    1    2 1
     2    2    3 1
     3    3    4 2
     4    4    5 1
     5    5    1 2
     6    6    3 1
     7    7    6 2
     8    8    6 2
     9    9    4 1
    10   10    5 1
    11   11   10 2
    12   12   10 2
    13   13    2 1
    14   14   13 1
    15   15   13 1
    16   16   13 1
    17   17   16 1
    18   18   17 1
    19   19   17 1
    20   20   17 1
    21   21   20 1
    22   22   21 2
    23   23   22 1
    24   24   20 1
    25   25   22 1
    26   26   25 2
    27   27   25 2
    28   28   23 1
    29   29   24 1
    30   30   29 2
    31   31   29 2
    32   32    9 1
    33   33    9 1
    34   34   28 1
    35   35   28 1
    36   23   24 2
@<TRIPOS>SUBSTRUCTURE
     1 RES1 1

@<TRIPOS>CRYSIN
   9.7094   11.2007   13.1261  90.0000  96.5060  90.0000  14 1

