# MOL2 file generated by ConQuest
# Please check atom types

@<TRIPOS>MOLECULE
KUKHOP
    37    38     1
SMALL
NO_CHARGES
****
Generated from CSD

@<TRIPOS>ATOM
      1 O1         1.4779    1.8015    8.9947 O.3       1 RES1    0.0000
      2 O2        -1.9543   -2.3371    6.1807 O.2       1 RES1    0.0000
      3 O3        -3.6697   -0.9876    6.1999 O.2       1 RES1    0.0000
      4 O4        -2.1292   -2.0975    3.4337 O.2       1 RES1    0.0000
      5 O5        -0.7791   -0.4714    2.8927 O.2       1 RES1    0.0000
      6 O6        -3.4674    0.6073    3.7012 O.2       1 RES1    0.0000
      7 O7        -2.6488    1.7685    5.3479 O.2       1 RES1    0.0000
      8 O8         4.2613    2.3268   13.0553 O.2       1 RES1    0.0000
      9 O9         6.2462    2.1505   13.9450 O.2       1 RES1    0.0000
     10 O10        7.3919    0.8121   11.6666 O.2       1 RES1    0.0000
     11 O11        8.4543    2.7192   11.7683 O.2       1 RES1    0.0000
     12 O12        6.2094    4.8012   12.7978 O.2       1 RES1    0.0000
     13 O13        6.6905    4.7210   10.6668 O.2       1 RES1    0.0000
     14 N1         0.8169    0.4676    7.1484 N.3       1 RES1    0.0000
     15 N2         1.3484    0.9712    6.0364 N.2       1 RES1    0.0000
     16 N3         0.4806    0.7527    5.0773 N.2       1 RES1    0.0000
     17 N4        -0.3723   -0.0914    6.9685 N.2       1 RES1    0.0000
     18 N5        -2.5476   -1.3228    5.8802 N.pl3     1 RES1    0.0000
     19 N6        -1.5180   -1.0779    3.6316 N.pl3     1 RES1    0.0000
     20 N7        -2.7197    0.7959    4.6322 N.pl3     1 RES1    0.0000
     21 N8         3.7578    2.4192    9.1541 N.3       1 RES1    0.0000
     22 N9         4.6380    1.5416    8.6739 N.2       1 RES1    0.0000
     23 N10        5.6292    1.5094    9.5365 N.2       1 RES1    0.0000
     24 N11        4.1153    2.9769   10.2974 N.2       1 RES1    0.0000
     25 N12        5.4627    2.3476   13.0387 N.pl3     1 RES1    0.0000
     26 N13        7.4650    2.0279   11.6908 N.pl3     1 RES1    0.0000
     27 N14        6.3554    4.2433   11.7300 N.pl3     1 RES1    0.0000
     28 C1         1.4996    0.5108    8.4550 C.3       1 RES1    0.0000
     29 H1         2.3912    0.1778    8.3101 H         1 RES1    0.0000
     30 H2         0.9886   -0.0469    9.0272 H         1 RES1    0.0000
     31 C2        -0.5366    0.1005    5.6721 C.2       1 RES1    0.0000
     32 C3        -1.7706   -0.3646    4.9805 C.3       1 RES1    0.0000
     33 C4         2.4658    2.6762    8.5043 C.3       1 RES1    0.0000
     34 H3         2.6114    2.5714    7.5656 H         1 RES1    0.0000
     35 H4         2.1988    3.5638    8.7554 H         1 RES1    0.0000
     36 C5         5.2808    2.3837   10.5050 C.2       1 RES1    0.0000
     37 C6         6.1091    2.7270   11.6851 C.3       1 RES1    0.0000
@<TRIPOS>BOND
     1    1   28 1
     2    2   18 2
     3    3   18 2
     4    4   19 2
     5    5   19 2
     6    6   20 2
     7    7   20 2
     8    8   25 2
     9    9   25 2
    10   10   26 2
    11   11   26 2
    12   12   27 2
    13   13   27 2
    14   14   15 1
    15   15   16 2
    16   16   31 1
    17   17   14 1
    18   18   32 1
    19   19   32 1
    20   20   32 1
    21   21   22 1
    22   22   23 2
    23   23   36 1
    24   24   21 1
    25   25   37 1
    26   26   37 1
    27   27   37 1
    28   28   14 1
    29   29   28 1
    30   30   28 1
    31   31   17 2
    32   32   31 1
    33   33    1 1
    34   34   33 1
    35   35   33 1
    36   36   24 2
    37   37   36 1
    38   21   33 1
@<TRIPOS>SUBSTRUCTURE
     1 RES1 1

@<TRIPOS>CRYSIN
   7.3137   10.2830   12.3619 110.7020  93.5120 103.5150   2 1

