# MOL2 file generated by ConQuest
# Please check atom types

@<TRIPOS>MOLECULE
KUKJIL
    31    32     1
SMALL
NO_CHARGES
****
Generated from CSD

@<TRIPOS>ATOM
      1 O1         3.0342    5.6262    8.7268 O.3       1 RES1    0.0000
      2 O2        -0.0640    6.3576    9.7260 O.2       1 RES1    0.0000
      3 O3        -1.9654    5.4882    9.1259 O.2       1 RES1    0.0000
      4 O4         1.4010    1.2217    5.8398 O.2       1 RES1    0.0000
      5 O5        -0.4190    2.0968    5.0462 O.2       1 RES1    0.0000
      6 O6         5.6515    6.4081    7.0762 O.2       1 RES1    0.0000
      7 O7         7.7154    5.7109    7.1029 O.2       1 RES1    0.0000
      8 O8         7.5633    1.5896   10.7925 O.2       1 RES1    0.0000
      9 O9         5.6902    1.9194   11.8574 O.2       1 RES1    0.0000
     10 N1         1.2310    4.1842    8.5050 N.pl3     1 RES1    0.0000
     11 N2         1.5760    3.2117    7.6400 N.2       1 RES1    0.0000
     12 N3         5.2103    5.0432    9.4685 N.3       1 RES1    0.0000
     13 N4         5.1904    4.0874   10.4126 N.2       1 RES1    0.0000
     14 N5         0.4914    2.0392    5.8603 N.pl3     1 RES1    0.0000
     15 N6        -0.7455    5.5372    9.1164 N.pl3     1 RES1    0.0000
     16 N7         6.5234    2.1963   10.9991 N.pl3     1 RES1    0.0000
     17 N8         6.5752    5.7340    7.5290 N.pl3     1 RES1    0.0000
     18 C1         2.2481    4.6635    9.4233 C.3       1 RES1    0.0000
     19 H1         2.7656    3.9041    9.6717 H         1 RES1    0.0000
     20 H2         1.8077    5.0581   10.1809 H         1 RES1    0.0000
     21 C2        -0.0722    4.5455    8.3162 C.2       1 RES1    0.0000
     22 C3        -0.6005    3.8228    7.2870 C.2       1 RES1    0.0000
     23 H3        -1.4357    3.8495    6.9597 H         1 RES1    0.0000
     24 C4         0.4802    3.0280    6.9203 C.2       1 RES1    0.0000
     25 C5         4.1350    6.0471    9.4936 C.3       1 RES1    0.0000
     26 H4         3.9010    6.1662   10.4067 H         1 RES1    0.0000
     27 H5         4.4776    6.8711    9.1095 H         1 RES1    0.0000
     28 C6         6.2960    4.8780    8.6631 C.2       1 RES1    0.0000
     29 C7         7.0216    3.7996    9.0830 C.2       1 RES1    0.0000
     30 H6         7.8054    3.4580    8.7466 H         1 RES1    0.0000
     31 C8         6.2632    3.3529   10.1576 C.2       1 RES1    0.0000
@<TRIPOS>BOND
     1    1   18 1
     2    2   15 2
     3    3   15 2
     4    4   14 2
     5    5   14 2
     6    6   17 2
     7    7   17 2
     8    8   16 2
     9    9   16 2
    10   10   11 1
    11   11   24 2
    12   12   13 1
    13   13   31 2
    14   14   24 1
    15   15   21 1
    16   16   31 1
    17   17   28 1
    18   18   10 1
    19   19   18 1
    20   20   18 1
    21   21   10 1
    22   22   21 2
    23   23   22 1
    24   24   22 1
    25   25    1 1
    26   26   25 1
    27   27   25 1
    28   28   12 1
    29   29   28 2
    30   30   29 1
    31   31   29 1
    32   12   25 1
@<TRIPOS>SUBSTRUCTURE
     1 RES1 1

@<TRIPOS>CRYSIN
  11.7306    9.7628   11.6941  90.0000  99.8760  90.0000  14 1

