# MOL2 file generated by ConQuest
# Please check atom types

@<TRIPOS>MOLECULE
KUKJEH
    31    32     1
SMALL
NO_CHARGES
****
Generated from CSD

@<TRIPOS>ATOM
      1 O1         1.3917    6.6090    0.2065 O.3       1 RES1    0.0000
      2 O2         0.9842   11.9831    2.5459 O.2       1 RES1    0.0000
      3 O3         3.0644   12.1941    3.1175 O.2       1 RES1    0.0000
      4 O4         4.8935   10.2201    3.6145 O.2       1 RES1    0.0000
      5 O5         5.9889   10.0101    1.7500 O.2       1 RES1    0.0000
      6 O6        -0.2596    4.3261    5.4402 O.2       1 RES1    0.0000
      7 O7        -0.3444    6.3613    6.2086 O.2       1 RES1    0.0000
      8 O8         2.1418    7.7483    6.3658 O.2       1 RES1    0.0000
      9 O9         1.9324    9.3099    4.8711 O.2       1 RES1    0.0000
     10 N1         2.3907    8.7546    0.4411 N.pl3     1 RES1    0.0000
     11 N2         3.6777    8.7747    0.8629 N.2       1 RES1    0.0000
     12 N3         1.9021    6.0786    2.4275 N.3       1 RES1    0.0000
     13 N4         2.2705    7.2122    3.0736 N.2       1 RES1    0.0000
     14 N5         2.1544   11.6067    2.5535 N.pl3     1 RES1    0.0000
     15 N6         4.9570   10.0315    2.4102 N.pl3     1 RES1    0.0000
     16 N7         0.0421    5.5169    5.4070 N.pl3     1 RES1    0.0000
     17 N8         1.9238    8.1423    5.2328 N.pl3     1 RES1    0.0000
     18 C1         1.9735    7.7001   -0.4739 C.3       1 RES1    0.0000
     19 H1         1.2943    8.0554   -1.0711 H         1 RES1    0.0000
     20 H2         2.7600    7.4212   -0.9583 H         1 RES1    0.0000
     21 C2         1.6346    9.7189    0.9923 C.2       1 RES1    0.0000
     22 H3         0.7458    9.8071    0.7915 H         1 RES1    0.0000
     23 C3         2.4707   10.4171    1.8308 C.2       1 RES1    0.0000
     24 C4         3.7117    9.7796    1.7070 C.2       1 RES1    0.0000
     25 C5         2.2809    5.8808    1.0347 C.3       1 RES1    0.0000
     26 H4         3.2067    6.1781    0.9367 H         1 RES1    0.0000
     27 H5         2.1646    4.9275    0.8416 H         1 RES1    0.0000
     28 C6         1.0740    5.3009    3.1485 C.2       1 RES1    0.0000
     29 H6         0.7393    4.5206    2.8228 H         1 RES1    0.0000
     30 C7         0.8958    5.9499    4.3431 C.2       1 RES1    0.0000
     31 C8         1.6551    7.1230    4.2316 C.2       1 RES1    0.0000
@<TRIPOS>BOND
     1    1   18 1
     2    2   14 2
     3    3   14 2
     4    4   15 2
     5    5   15 2
     6    6   16 2
     7    7   16 2
     8    8   17 2
     9    9   17 2
    10   10   11 1
    11   11   24 2
    12   12   13 1
    13   13   31 2
    14   14   23 1
    15   15   24 1
    16   16   30 1
    17   17   31 1
    18   18   10 1
    19   19   18 1
    20   20   18 1
    21   21   10 1
    22   22   21 1
    23   23   21 2
    24   24   23 1
    25   25    1 1
    26   26   25 1
    27   27   25 1
    28   28   12 1
    29   29   28 1
    30   30   28 2
    31   31   30 1
    32   12   25 1
@<TRIPOS>SUBSTRUCTURE
     1 RES1 1

@<TRIPOS>CRYSIN
   9.0621   14.9590    9.8959  90.0000  97.6290  90.0000  14 1

