# MOL2 file generated by ConQuest
# Please check atom types

@<TRIPOS>MOLECULE
KUKWAP
    47    51     2
SMALL
NO_CHARGES
****
Generated from CSD

@<TRIPOS>ATOM
      1 C1         2.5195    3.4104    0.3199 C.ar      1 RES1    0.0000
      2 H1         2.6744    3.6356   -0.5907 H         1 RES1    0.0000
      3 C2         1.2362    3.2228    0.7919 C.ar      1 RES1    0.0000
      4 C3         3.5817    3.2636    1.2082 C.ar      1 RES1    0.0000
      5 H2         4.4736    3.3646    0.8962 H         1 RES1    0.0000
      6 C4         3.3515    2.9747    2.5338 C.ar      1 RES1    0.0000
      7 H3         4.0857    2.8965    3.1311 H         1 RES1    0.0000
      8 C5         2.0546    2.7984    3.0091 C.ar      1 RES1    0.0000
      9 H4         1.9013    2.6009    3.9263 H         1 RES1    0.0000
     10 C6         0.9896    2.9124    2.1261 C.ar      1 RES1    0.0000
     11 C7        -1.9499    0.7817    1.8461 C.ar      1 RES1    0.0000
     12 H5        -2.1588    0.6054    2.7561 H         1 RES1    0.0000
     13 C8        -1.1341    1.8541    1.5026 C.ar      1 RES1    0.0000
     14 C9        -2.4549   -0.0253    0.8339 C.ar      1 RES1    0.0000
     15 H6        -3.0139   -0.7602    1.0535 H         1 RES1    0.0000
     16 C10       -2.1523    0.2323   -0.4897 C.ar      1 RES1    0.0000
     17 H7        -2.4859   -0.3414   -1.1689 H         1 RES1    0.0000
     18 C11       -1.3657    1.3223   -0.8365 C.ar      1 RES1    0.0000
     19 H8        -1.1694    1.5063   -1.7478 H         1 RES1    0.0000
     20 C12       -0.8703    2.1409    0.1665 C.ar      1 RES1    0.0000
     21 C13       -0.0366    3.3924   -0.0380 C.3       1 RES1    0.0000
     22 C14       -0.4873    2.8145    2.4794 C.3       1 RES1    0.0000
     23 C15       -0.8450    4.5525    0.6589 C.3       1 RES1    0.0000
     24 H9        -1.7142    4.7021    0.1875 H         1 RES1    0.0000
     25 C16       -1.0900    4.2213    2.1339 C.3       1 RES1    0.0000
     26 H10       -2.0675    4.2480    2.3444 H         1 RES1    0.0000
     27 C17       -0.0325    5.8301    0.6792 C.2       1 RES1    0.0000
     28 C18       -0.3504    5.2845    2.9055 C.2       1 RES1    0.0000
     29 C19        1.1889    7.1569    2.4375 C.ar      1 RES1    0.0000
     30 C20        0.8937    8.4774    2.1772 C.ar      1 RES1    0.0000
     31 H11        0.1175    8.7072    1.6796 H         1 RES1    0.0000
     32 C21        1.7423    9.4675    2.6485 C.ar      1 RES1    0.0000
     33 H12        1.5634   10.3860    2.4761 H         1 RES1    0.0000
     34 C22        2.8466    9.0891    3.3717 C.ar      1 RES1    0.0000
     35 C23        3.1698    7.7696    3.6365 C.ar      1 RES1    0.0000
     36 H13        3.9439    7.5458    4.1393 H         1 RES1    0.0000
     37 C24        2.3317    6.7884    3.1461 C.ar      1 RES1    0.0000
     38 H14        2.5311    5.8705    3.2904 H         1 RES1    0.0000
     39 N1         0.2994    6.1123    2.0067 N.am      1 RES1    0.0000
     40 N2         3.7069   10.1474    3.9315 N.pl3     1 RES1    0.0000
     41 O1         0.1638    3.6268   -1.3957 O.3       1 RES1    0.0000
     42 H15        0.6339    4.3149   -1.4941 H         1 RES1    0.0000
     43 O2         0.3208    6.4836   -0.2708 O.2       1 RES1    0.0000
     44 O3        -0.2997    5.3986    4.1138 O.2       1 RES1    0.0000
     45 O4         4.6127    9.8268    4.6900 O.2       1 RES1    0.0000
     46 O5         3.4649   11.3060    3.6241 O.2       1 RES1    0.0000
     47 O6        -0.5788    2.4672    3.5893 Du        2 SUP2    0.0000
@<TRIPOS>BOND
     1    1    2 1
     2    3    1 ar
     3    4    1 ar
     4    5    4 1
     5    6    4 ar
     6    7    6 1
     7    8    6 ar
     8    9    8 1
     9   10    3 ar
    10   11   12 1
    11   13   11 ar
    12   14   11 ar
    13   15   14 1
    14   16   14 ar
    15   17   16 1
    16   18   16 ar
    17   19   18 1
    18   20   13 ar
    19   21    3 1
    20   22   10 1
    21   23   21 1
    22   24   23 1
    23   25   22 1
    24   26   25 1
    25   27   23 1
    26   28   25 1
    27   29   30 ar
    28   30   31 1
    29   32   30 ar
    30   33   32 1
    31   34   32 ar
    32   35   34 ar
    33   36   35 1
    34   37   29 ar
    35   38   37 1
    36   39   27 1
    37   40   34 1
    38   41   21 1
    39   42   41 1
    40   43   27 2
    41   44   28 2
    42   45   40 2
    43   46   40 2
    44    8   10 ar
    45   13   22 1
    46   18   20 ar
    47   20   21 1
    48   23   25 1
    49   28   39 1
    50   29   39 1
    51   35   37 ar
@<TRIPOS>SUBSTRUCTURE
     1 RES1 1
     2 SUP2 47

@<TRIPOS>CRYSIN
   8.2274   35.1950    7.0125  90.0000 110.7920  90.0000  14 1

