# MOL2 file generated by ConQuest
# Please check atom types

@<TRIPOS>MOLECULE
KULGOO
    28    28     1
SMALL
NO_CHARGES
****
Generated from CSD

@<TRIPOS>ATOM
      1 C1        -6.1680    3.3618   -2.6109 C.ar      1 RES1    0.0000
      2 H1        -6.5468    3.4117   -1.7408 H         1 RES1    0.0000
      3 C2        -4.8191    3.4581   -2.8059 C.ar      1 RES1    0.0000
      4 C3        -4.2093    3.3311   -4.0568 C.ar      1 RES1    0.0000
      5 C4        -5.0383    3.0886   -5.1518 C.ar      1 RES1    0.0000
      6 C5        -6.4173    3.0429   -5.0137 C.ar      1 RES1    0.0000
      7 C6        -6.9613    3.1877   -3.7348 C.ar      1 RES1    0.0000
      8 C7        -2.2437    4.3119   -4.9703 C.3       1 RES1    0.0000
      9 H2        -1.2703    4.2627   -4.8718 H         1 RES1    0.0000
     10 H3        -2.5534    5.2028   -4.7049 H         1 RES1    0.0000
     11 H4        -2.4866    4.1471   -5.9054 H         1 RES1    0.0000
     12 C8        -4.0268    1.6149   -6.6972 C.3       1 RES1    0.0000
     13 H5        -3.5504    1.6192   -7.5536 H         1 RES1    0.0000
     14 H6        -4.7933    1.0065   -6.7523 H         1 RES1    0.0000
     15 H7        -3.4211    1.3139   -5.9889 H         1 RES1    0.0000
     16 C9        -7.3196    3.7826   -7.0729 C.3       1 RES1    0.0000
     17 H8        -7.9409    4.4731   -6.7598 H         1 RES1    0.0000
     18 H9        -7.6514    3.3996   -7.9118 H         1 RES1    0.0000
     19 H10       -6.4365    4.1814   -7.2227 H         1 RES1    0.0000
     20 O1        -2.8584    3.3247   -4.1371 O.3       1 RES1    0.0000
     21 O2        -4.4863    2.9324   -6.4018 O.3       1 RES1    0.0000
     22 O3        -7.2138    2.7312   -6.0664 O.3       1 RES1    0.0000
     23 O4        -9.1306    3.7049   -4.3687 O.2       1 RES1    0.0000
     24 O5        -8.8349    2.6314   -2.5012 O.2       1 RES1    0.0000
     25 O6        -3.2277    4.6785   -1.6678 O.2       1 RES1    0.0000
     26 O7        -4.0376    2.9466   -0.6977 O.2       1 RES1    0.0000
     27 N1        -3.9603    3.7163   -1.6362 N.pl3     1 RES1    0.0000
     28 N2        -8.4177    3.1671   -3.5285 N.pl3     1 RES1    0.0000
@<TRIPOS>BOND
     1    1    2 1
     2    3    1 ar
     3    4    3 ar
     4    5    4 ar
     5    6    5 ar
     6    7    1 ar
     7    8    9 1
     8   10    8 1
     9   11    8 1
    10   12   13 1
    11   14   12 1
    12   15   12 1
    13   16   17 1
    14   18   16 1
    15   19   16 1
    16   20    4 1
    17   21    5 1
    18   22    6 1
    19   23   28 2
    20   24   28 2
    21   25   27 2
    22   26   27 2
    23   27    3 1
    24   28    7 1
    25    6    7 ar
    26    8   20 1
    27   12   21 1
    28   16   22 1
@<TRIPOS>SUBSTRUCTURE
     1 RES1 1

@<TRIPOS>CRYSIN
  10.4410    7.1330   15.4400  90.0000 100.5900  90.0000 231 1

