# MOL2 file generated by ConQuest
# Please check atom types

@<TRIPOS>MOLECULE
KUMKOT
    90    94     2
SMALL
NO_CHARGES
****
Generated from CSD

@<TRIPOS>ATOM
      1 O1        23.6108    2.9575    1.8373 O.3       1 RES1    0.0000
      2 O2        23.1232    3.4151   -0.2533 O.2       1 RES1    0.0000
      3 O3        23.4595    0.3569   -0.1194 O.3       1 RES1    0.0000
      4 O4        21.7065   -0.6698    0.8132 O.2       1 RES1    0.0000
      5 O5        15.9938    5.7573    2.5442 O.2       1 RES1    0.0000
      6 O6        17.5865    7.0652    3.2075 O.2       1 RES1    0.0000
      7 O7        20.4704    0.8093    4.6945 O.3       1 RES1    0.0000
      8 O8        24.7462    2.0088    6.3781 O.3       1 RES1    0.0000
      9 N1        17.1683    5.9952    2.7816 N.pl3     1 RES1    0.0000
     10 C1        22.8601    2.7650    0.7226 C.2       1 RES1    0.0000
     11 C2        21.7606    1.7337    0.7992 C.3       1 RES1    0.0000
     12 H1        21.0918    1.8868    0.0400 H         1 RES1    0.0000
     13 C3        20.9945    1.7549    2.1371 C.3       1 RES1    0.0000
     14 H2        20.5167    0.9548    2.1333 H         1 RES1    0.0000
     15 C4        22.0094    1.8034    3.2525 C.ar      1 RES1    0.0000
     16 C5        23.2560    2.3573    3.0655 C.ar      1 RES1    0.0000
     17 C6        24.2346    2.4566    4.0543 C.ar      1 RES1    0.0000
     18 H3        25.0787    2.8491    3.8828 H         1 RES1    0.0000
     19 C7        23.9035    1.9663    5.3076 C.ar      1 RES1    0.0000
     20 C8        22.6580    1.3905    5.5660 C.ar      1 RES1    0.0000
     21 H4        22.4928    1.1215    6.3692 H         1 RES1    0.0000
     22 C9        21.7173    1.3177    4.5449 C.ar      1 RES1    0.0000
     23 C10       22.2993    0.3220    0.5259 C.2       1 RES1    0.0000
     24 C11       23.9635   -0.9404   -0.5676 C.3       1 RES1    0.0000
     25 H5        23.3153   -1.3564   -1.1459 H         1 RES1    0.0000
     26 H6        24.0158   -1.5155    0.1999 H         1 RES1    0.0000
     27 H7        24.8208   -0.7805   -1.0393 H         1 RES1    0.0000
     28 C12       19.9797    2.8862    2.2216 C.ar      1 RES1    0.0000
     29 C13       18.6243    2.5983    2.2940 C.ar      1 RES1    0.0000
     30 H8        18.3699    1.7504    2.2452 H         1 RES1    0.0000
     31 C14       17.6851    3.6114    2.4533 C.ar      1 RES1    0.0000
     32 H9        16.7772    3.3644    2.4517 H         1 RES1    0.0000
     33 C15       18.1451    4.9132    2.5586 C.ar      1 RES1    0.0000
     34 C16       19.4858    5.2398    2.4612 C.ar      1 RES1    0.0000
     35 H10       19.7953    6.1377    2.5450 H         1 RES1    0.0000
     36 C17       20.4010    4.2168    2.2780 C.ar      1 RES1    0.0000
     37 H11       21.3148    4.4328    2.2612 H         1 RES1    0.0000
     38 C18       20.0814    0.3895    6.0187 C.3       1 RES1    0.0000
     39 H12       19.1994    0.1212    5.9561 H         1 RES1    0.0000
     40 H13       20.1926    1.0987    6.6357 H         1 RES1    0.0000
     41 H14       20.6805   -0.3107    6.3558 H         1 RES1    0.0000
     42 C19       26.0497    2.5763    6.1835 C.3       1 RES1    0.0000
     43 H15       25.9639    3.5159    5.8628 H         1 RES1    0.0000
     44 H16       26.5494    2.0762    5.5564 H         1 RES1    0.0000
     45 H17       26.4588    2.5536    7.0221 H         1 RES1    0.0000
     46 O9        10.4699    2.6491    1.7231 O.3       2 RES2    0.0000
     47 O10        9.7638    2.9491    3.7747 O.2       2 RES2    0.0000
     48 O11        9.9119    5.8179    2.7034 O.3       2 RES2    0.0000
     49 O12       12.0110    6.5234    2.3179 O.2       2 RES2    0.0000
     50 O13       16.7291    0.7388    6.6579 O.2       2 RES2    0.0000
     51 O14       15.7171   -0.9487    5.7625 O.2       2 RES2    0.0000
     52 O15       14.9009    3.8228    0.4610 O.3       2 RES2    0.0000
     53 O16       12.0183    1.8519   -2.7307 O.3       2 RES2    0.0000
     54 N2        15.9185    0.2538    5.8736 N.pl3     2 RES2    0.0000
     55 C20       10.5567    3.2606    2.9331 C.2       2 RES2    0.0000
     56 C21       11.6604    4.2812    3.1331 C.3       2 RES2    0.0000
     57 H18       11.8145    4.4707    4.1040 H         2 RES2    0.0000
     58 C22       12.9917    3.8569    2.4812 C.3       2 RES2    0.0000
     59 H19       13.5187    4.6298    2.3718 H         2 RES2    0.0000
     60 C23       12.7133    3.3212    1.1023 C.ar      2 RES2    0.0000
     61 C24       11.4931    2.7817    0.7692 C.ar      2 RES2    0.0000
     62 C25       11.1833    2.2581   -0.4845 C.ar      2 RES2    0.0000
     63 H20       10.2531    1.9398   -0.5716 H         2 RES2    0.0000
     64 C26       12.1644    2.2982   -1.4521 C.ar      2 RES2    0.0000
     65 C27       13.4281    2.8142   -1.1658 C.ar      2 RES2    0.0000
     66 H21       14.0763    2.7961   -1.8388 H         2 RES2    0.0000
     67 C28       13.6992    3.3174    0.0869 C.ar      2 RES2    0.0000
     68 C29       11.2356    5.6649    2.6389 C.2       2 RES2    0.0000
     69 C30        9.4202    7.1349    2.3291 C.3       2 RES2    0.0000
     70 H22        9.7373    7.7744    3.0780 H         2 RES2    0.0000
     71 H23        8.4479    7.0470    2.3451 H         2 RES2    0.0000
     72 H24        9.8663    7.4259    1.4924 H         2 RES2    0.0000
     73 C31       13.7487    2.8877    3.3714 C.ar      2 RES2    0.0000
     74 C32       14.5070    3.3863    4.4330 C.ar      2 RES2    0.0000
     75 H25       14.6165    4.3494    4.6636 H         2 RES2    0.0000
     76 C33       15.2142    2.5324    5.2636 C.ar      2 RES2    0.0000
     77 H26       15.7456    2.7961    5.9827 H         2 RES2    0.0000
     78 C34       15.1445    1.1715    5.0160 C.ar      2 RES2    0.0000
     79 C35       14.3840    0.6403    3.9905 C.ar      2 RES2    0.0000
     80 H27       14.3377   -0.2425    3.9294 H         2 RES2    0.0000
     81 C36       13.6873    1.5087    3.1714 C.ar      2 RES2    0.0000
     82 H28       13.1109    1.2048    2.5050 H         2 RES2    0.0000
     83 C37       15.9324    3.8599   -0.5395 C.3       2 RES2    0.0000
     84 H29       16.6692    4.2433   -0.1332 H         2 RES2    0.0000
     85 H30       16.1673    2.9931   -0.7462 H         2 RES2    0.0000
     86 H31       15.5958    4.3722   -1.3458 H         2 RES2    0.0000
     87 C38       10.7397    1.3404   -3.1090 C.3       2 RES2    0.0000
     88 H32       10.0196    2.0307   -2.9847 H         2 RES2    0.0000
     89 H33       10.4901    0.5683   -2.6116 H         2 RES2    0.0000
     90 H34       10.8003    1.0381   -4.0507 H         2 RES2    0.0000
@<TRIPOS>BOND
     1    1   10 1
     2    2   10 2
     3    3   23 1
     4    4   23 2
     5    5    9 2
     6    6    9 2
     7    7   22 1
     8    8   19 1
     9    9   33 1
    10   10   11 1
    11   11   12 1
    12   13   11 1
    13   14   13 1
    14   15   13 1
    15   16    1 1
    16   17   16 ar
    17   18   17 1
    18   19   17 ar
    19   20   19 ar
    20   21   20 1
    21   22   15 ar
    22   23   11 1
    23   24    3 1
    24   25   24 1
    25   26   24 1
    26   27   24 1
    27   28   13 1
    28   29   28 ar
    29   30   29 1
    30   31   29 ar
    31   32   31 1
    32   33   31 ar
    33   34   33 ar
    34   35   34 1
    35   36   28 ar
    36   37   36 1
    37   38    7 1
    38   39   38 1
    39   40   38 1
    40   41   38 1
    41   42    8 1
    42   43   42 1
    43   44   42 1
    44   45   42 1
    45   46   55 1
    46   47   55 2
    47   48   68 1
    48   49   68 2
    49   50   54 2
    50   51   54 2
    51   52   67 1
    52   53   64 1
    53   54   78 1
    54   55   56 1
    55   56   57 1
    56   58   56 1
    57   59   58 1
    58   60   58 1
    59   61   46 1
    60   62   61 ar
    61   63   62 1
    62   64   62 ar
    63   65   64 ar
    64   66   65 1
    65   67   60 ar
    66   68   56 1
    67   69   48 1
    68   70   69 1
    69   71   69 1
    70   72   69 1
    71   73   58 1
    72   74   73 ar
    73   75   74 1
    74   76   74 ar
    75   77   76 1
    76   78   76 ar
    77   79   78 ar
    78   80   79 1
    79   81   73 ar
    80   82   81 1
    81   83   52 1
    82   84   83 1
    83   85   83 1
    84   86   83 1
    85   87   53 1
    86   88   87 1
    87   89   87 1
    88   90   87 1
    89   15   16 ar
    90   20   22 ar
    91   34   36 ar
    92   60   61 ar
    93   65   67 ar
    94   79   81 ar
@<TRIPOS>SUBSTRUCTURE
     1 RES1 1
     2 RES2 46

@<TRIPOS>CRYSIN
  34.8509    7.5774   13.3246  90.0000  90.0000  90.0000  29 1

