# MOL2 file generated by ConQuest
# Please check atom types

@<TRIPOS>MOLECULE
KUMTAP
   116   118     3
SMALL
NO_CHARGES
****
Generated from CSD

@<TRIPOS>ATOM
      1 O1         1.1447    2.3176    0.8294 O.3       1 RES1    0.0000
      2 H1         0.5077    2.0729    0.3502 H         1 RES1    0.0000
      3 O2         3.1215    3.8513    1.4766 O.3       1 RES1    0.0000
      4 N1         3.7674    5.0955    1.0858 N.3       1 RES1    0.0000
      5 C1         0.5073    2.3851    3.2300 C.3       1 RES1    0.0000
      6 C2         0.8087    3.1618    1.9351 C.3       1 RES1    0.0000
      7 H2         0.0149    3.7202    1.6934 H         1 RES1    0.0000
      8 C3         1.9993    4.1041    2.3445 C.3       1 RES1    0.0000
      9 H3         1.7169    5.0594    2.2591 H         1 RES1    0.0000
     10 C4         2.2007    3.7564    3.8283 C.3       1 RES1    0.0000
     11 H4         3.0880    4.0277    4.2012 H         1 RES1    0.0000
     12 C5         0.9894    4.3707    4.5542 C.3       1 RES1    0.0000
     13 H5         0.8234    5.2987    4.2520 H         1 RES1    0.0000
     14 H6         1.1203    4.3673    5.5356 H         1 RES1    0.0000
     15 C6        -0.1768    3.4216    4.1350 C.3       1 RES1    0.0000
     16 H7        -0.5845    2.9886    4.9262 H         1 RES1    0.0000
     17 H8        -0.8783    3.9166    3.6408 H         1 RES1    0.0000
     18 C7         1.9078    2.2338    3.9085 C.3       1 RES1    0.0000
     19 C8         1.8527    1.7067    5.3453 C.3       1 RES1    0.0000
     20 H9         1.5910    0.7630    5.3377 H         1 RES1    0.0000
     21 H10        1.1972    2.2235    5.8578 H         1 RES1    0.0000
     22 H11        2.7361    1.7967    5.7598 H         1 RES1    0.0000
     23 C9         2.9109    1.3610    3.1564 C.3       1 RES1    0.0000
     24 H12        3.7772    1.3910    3.6128 H         1 RES1    0.0000
     25 H13        3.0129    1.6951    2.2416 H         1 RES1    0.0000
     26 H14        2.5860    0.4364    3.1329 H         1 RES1    0.0000
     27 C10       -0.3162    1.1278    3.0047 C.3       1 RES1    0.0000
     28 H15       -0.4811    0.6866    3.8649 H         1 RES1    0.0000
     29 H16        0.1730    0.5182    2.4132 H         1 RES1    0.0000
     30 H17       -1.1719    1.3671    2.5918 H         1 RES1    0.0000
     31 C11        5.2276    4.9039    1.3688 C.3       1 RES1    0.0000
     32 C12        5.9167    6.2008    0.9257 C.3       1 RES1    0.0000
     33 H18        5.6166    6.9407    1.5113 H         1 RES1    0.0000
     34 H19        6.8951    6.1013    1.0420 H         1 RES1    0.0000
     35 C13        5.6269    6.5663   -0.5185 C.3       1 RES1    0.0000
     36 H20        5.9870    5.8681   -1.1208 H         1 RES1    0.0000
     37 H21        6.0652    7.4255   -0.7425 H         1 RES1    0.0000
     38 C14        4.1196    6.6890   -0.7127 C.3       1 RES1    0.0000
     39 H22        3.9328    6.8984   -1.6619 H         1 RES1    0.0000
     40 H23        3.7836    7.4425   -0.1646 H         1 RES1    0.0000
     41 C15        3.3590    5.4031   -0.3213 C.3       1 RES1    0.0000
     42 C16        1.8650    5.7501   -0.3075 C.3       1 RES1    0.0000
     43 H24        1.3458    4.9517   -0.0753 H         1 RES1    0.0000
     44 H25        1.5947    6.0686   -1.1943 H         1 RES1    0.0000
     45 H26        1.6985    6.4518    0.3555 H         1 RES1    0.0000
     46 C17        3.5704    4.2916   -1.3530 C.3       1 RES1    0.0000
     47 H27        4.5209    4.2384   -1.5866 H         1 RES1    0.0000
     48 H28        3.0475    4.4887   -2.1575 H         1 RES1    0.0000
     49 H29        3.2786    3.4352   -0.9754 H         1 RES1    0.0000
     50 C18        5.3824    4.7682    2.8795 C.3       1 RES1    0.0000
     51 H30        4.8647    5.4706    3.3256 H         1 RES1    0.0000
     52 H31        6.3286    4.8576    3.1207 H         1 RES1    0.0000
     53 H32        5.0541    3.8893    3.1645 H         1 RES1    0.0000
     54 C19        5.8703    3.6595    0.7292 C.3       1 RES1    0.0000
     55 H33        5.2821    2.8863    0.8563 H         1 RES1    0.0000
     56 H34        6.7354    3.4850    1.1541 H         1 RES1    0.0000
     57 H35        6.0020    3.8164   -0.2294 H         1 RES1    0.0000
     58 H36        1.8644    2.6115    0.5254 Du        3 SUP3    0.0000
     59 O3         8.8425    1.6685    7.9383 O.3       2 RES2    0.0000
     60 H37        8.2299    1.7524    8.4759 H         2 RES2    0.0000
     61 O4        10.7876    0.1624    7.0795 O.3       2 RES2    0.0000
     62 N2        11.4423   -1.1012    7.4397 N.3       2 RES2    0.0000
     63 C20        7.9682    1.6242    5.6071 C.3       2 RES2    0.0000
     64 C21        8.4268    0.8360    6.8602 C.3       2 RES2    0.0000
     65 H38        7.6722    0.2577    7.1712 H         2 RES2    0.0000
     66 C22        9.5812   -0.0832    6.3265 C.3       2 RES2    0.0000
     67 H39        9.3168   -1.0426    6.4252 H         2 RES2    0.0000
     68 C23        9.6252    0.2857    4.8374 C.3       2 RES2    0.0000
     69 H40       10.4732    0.0361    4.3710 H         2 RES2    0.0000
     70 C24        8.3522   -0.3389    4.2315 C.3       2 RES2    0.0000
     71 H41        8.2310   -1.2703    4.5427 H         2 RES2    0.0000
     72 H42        8.3899   -0.3321    3.2415 H         2 RES2    0.0000
     73 C25        7.2136    0.5755    4.7514 C.3       2 RES2    0.0000
     74 H43        6.7313    1.0057    4.0015 H         2 RES2    0.0000
     75 H44        6.5678    0.0641    5.3009 H         2 RES2    0.0000
     76 C26        9.2923    1.8022    4.8038 C.3       2 RES2    0.0000
     77 C27        9.0797    2.3470    3.3802 C.3       2 RES2    0.0000
     78 H45        8.8290    3.2934    3.4271 H         2 RES2    0.0000
     79 H46        8.3654    1.8410    2.9403 H         2 RES2    0.0000
     80 H47        9.9088    2.2535    2.8667 H         2 RES2    0.0000
     81 C28       10.3617    2.6770    5.4692 C.3       2 RES2    0.0000
     82 H48       11.1927    2.6286    4.9507 H         2 RES2    0.0000
     83 H49       10.5265    2.3558    6.3797 H         2 RES2    0.0000
     84 H50       10.0512    3.6057    5.5023 H         2 RES2    0.0000
     85 C29        7.1524    2.8590    5.9225 C.3       2 RES2    0.0000
     86 H51        6.3543    2.6027    6.4305 H         2 RES2    0.0000
     87 H52        6.8810    3.2934    5.0873 H         2 RES2    0.0000
     88 H53        7.6933    3.4809    6.4532 H         2 RES2    0.0000
     89 C30       12.8606   -0.9607    6.9995 C.3       2 RES2    0.0000
     90 C31       13.5640   -2.2645    7.4236 C.3       2 RES2    0.0000
     91 H54       13.1847   -3.0159    6.9033 H         2 RES2    0.0000
     92 H55       14.5253   -2.1970    7.1958 H         2 RES2    0.0000
     93 C32       13.4343   -2.5788    8.8943 C.3       2 RES2    0.0000
     94 H56       13.8775   -1.8758    9.4321 H         2 RES2    0.0000
     95 H57       13.8687   -3.4454    9.0958 H         2 RES2    0.0000
     96 C33       11.9516   -2.6449    9.2428 C.3       2 RES2    0.0000
     97 H58       11.8589   -2.8113   10.2149 H         2 RES2    0.0000
     98 H59       11.5444   -3.4113    8.7666 H         2 RES2    0.0000
     99 C34       11.1786   -1.3719    8.8831 C.3       2 RES2    0.0000
    100 C35        9.6807   -1.6781    9.0230 C.3       2 RES2    0.0000
    101 H60        9.1610   -0.8803    8.7894 H         2 RES2    0.0000
    102 H61        9.4849   -1.9358    9.9487 H         2 RES2    0.0000
    103 H62        9.4396   -2.4124    8.4216 H         2 RES2    0.0000
    104 C36       11.5238   -0.2209    9.8538 C.3       2 RES2    0.0000
    105 H63       12.4968   -0.1568    9.9522 H         2 RES2    0.0000
    106 H64       11.1176   -0.3982   10.7280 H         2 RES2    0.0000
    107 H65       11.1757    0.6225    9.4969 H         2 RES2    0.0000
    108 C37       12.8539   -0.8980    5.4785 C.3       2 RES2    0.0000
    109 H66       12.2806   -1.6099    5.1241 H         2 RES2    0.0000
    110 H67       13.7664   -1.0173    5.1433 H         2 RES2    0.0000
    111 H68       12.5104   -0.0273    5.1889 H         2 RES2    0.0000
    112 C38       13.6189    0.2768    7.5206 C.3       2 RES2    0.0000
    113 H69       13.0363    1.0637    7.4672 H         2 RES2    0.0000
    114 H70       14.4184    0.4255    6.9734 H         2 RES2    0.0000
    115 H71       13.8847    0.1296    8.4531 H         2 RES2    0.0000
    116 H72        9.5800    1.4251    8.1957 Du        3 SUP3    0.0000
@<TRIPOS>BOND
     1    1    2 1
     2    3    4 1
     3    4   31 1
     4    5    6 1
     5    6    1 1
     6    7    6 1
     7    8    3 1
     8    9    8 1
     9   10    8 1
    10   11   10 1
    11   12   10 1
    12   13   12 1
    13   14   12 1
    14   15    5 1
    15   16   15 1
    16   17   15 1
    17   18    5 1
    18   19   18 1
    19   20   19 1
    20   21   19 1
    21   22   19 1
    22   23   18 1
    23   24   23 1
    24   25   23 1
    25   26   23 1
    26   27    5 1
    27   28   27 1
    28   29   27 1
    29   30   27 1
    30   31   32 1
    31   32   33 1
    32   34   32 1
    33   35   32 1
    34   36   35 1
    35   37   35 1
    36   38   35 1
    37   39   38 1
    38   40   38 1
    39   41    4 1
    40   42   41 1
    41   43   42 1
    42   44   42 1
    43   45   42 1
    44   46   41 1
    45   47   46 1
    46   48   46 1
    47   49   46 1
    48   50   31 1
    49   51   50 1
    50   52   50 1
    51   53   50 1
    52   54   31 1
    53   55   54 1
    54   56   54 1
    55   57   54 1
    56   59   60 1
    57   61   62 1
    58   62   89 1
    59   63   64 1
    60   64   59 1
    61   65   64 1
    62   66   61 1
    63   67   66 1
    64   68   66 1
    65   69   68 1
    66   70   68 1
    67   71   70 1
    68   72   70 1
    69   73   63 1
    70   74   73 1
    71   75   73 1
    72   76   63 1
    73   77   76 1
    74   78   77 1
    75   79   77 1
    76   80   77 1
    77   81   76 1
    78   82   81 1
    79   83   81 1
    80   84   81 1
    81   85   63 1
    82   86   85 1
    83   87   85 1
    84   88   85 1
    85   89   90 1
    86   90   91 1
    87   92   90 1
    88   93   90 1
    89   94   93 1
    90   95   93 1
    91   96   93 1
    92   97   96 1
    93   98   96 1
    94   99   62 1
    95  100   99 1
    96  101  100 1
    97  102  100 1
    98  103  100 1
    99  104   99 1
   100  105  104 1
   101  106  104 1
   102  107  104 1
   103  108   89 1
   104  109  108 1
   105  110  108 1
   106  111  108 1
   107  112   89 1
   108  113  112 1
   109  114  112 1
   110  115  112 1
   111    6    8 1
   112   10   18 1
   113   12   15 1
   114   38   41 1
   115   64   66 1
   116   68   76 1
   117   70   73 1
   118   96   99 1
@<TRIPOS>SUBSTRUCTURE
     1 RES1 1
     2 RES2 59
     3 SUP3 58

@<TRIPOS>CRYSIN
  15.4457    6.8186   17.5125  90.0000  90.3310  90.0000   3 1

