# MOL2 file generated by ConQuest
# Please check atom types

@<TRIPOS>MOLECULE
KUMTET
   136   136     2
SMALL
NO_CHARGES
****
Generated from CSD

@<TRIPOS>ATOM
      1 O1         8.3802    7.2824    3.7347 O.2       1 RES1    0.0000
      2 O2         6.4370    7.8996    4.6788 O.3       1 RES1    0.0000
      3 O3         6.3242    6.2736    1.7640 O.3       1 RES1    0.0000
      4 N1         5.3297    5.4590    2.4758 N.3       1 RES1    0.0000
      5 N2         7.2289    9.8156    1.8433 N.3       1 RES1    0.0000
      6 C1         7.2113    7.5685    3.6388 C.2       1 RES1    0.0000
      7 C2         6.4468    7.5897    2.3218 C.3       1 RES1    0.0000
      8 H1         5.5383    7.9843    2.4630 H         1 RES1    0.0000
      9 C3         7.2403    8.4536    1.3226 C.3       1 RES1    0.0000
     10 H2         8.1889    8.1419    1.3796 H         1 RES1    0.0000
     11 C4         6.8126    8.2529   -0.1430 C.3       1 RES1    0.0000
     12 H3         5.8489    8.0267   -0.1682 H         1 RES1    0.0000
     13 H4         6.9349    9.1061   -0.6325 H         1 RES1    0.0000
     14 C5         7.5954    7.1553   -0.8603 C.3       1 RES1    0.0000
     15 H5         8.5460    7.3920   -0.8810 H         1 RES1    0.0000
     16 H6         7.2613    7.0605   -1.7769 H         1 RES1    0.0000
     17 H7         7.4812    6.3065   -0.3825 H         1 RES1    0.0000
     18 C6         7.1164    7.8804    5.9569 C.3       1 RES1    0.0000
     19 H8         7.4005    6.9655    6.1627 H         1 RES1    0.0000
     20 H9         6.5062    8.1965    6.6553 H         1 RES1    0.0000
     21 H10        7.9013    8.4653    5.9186 H         1 RES1    0.0000
     22 C7         4.1109    5.3836    1.5942 C.3       1 RES1    0.0000
     23 C8         3.1446    4.3930    2.2539 C.3       1 RES1    0.0000
     24 H11        2.8320    4.7764    3.1119 H         1 RES1    0.0000
     25 H12        2.3541    4.2812    1.6683 H         1 RES1    0.0000
     26 C9         3.7507    3.0358    2.5184 C.3       1 RES1    0.0000
     27 H13        4.0055    2.6075    1.6638 H         1 RES1    0.0000
     28 H14        3.0926    2.4539    2.9749 H         1 RES1    0.0000
     29 C10        4.9803    3.2161    3.3955 C.3       1 RES1    0.0000
     30 H15        5.4010    2.3326    3.5434 H         1 RES1    0.0000
     31 H16        4.6969    3.5676    4.2771 H         1 RES1    0.0000
     32 C11        6.0257    4.1698    2.7928 C.3       1 RES1    0.0000
     33 C12        7.0543    4.4615    3.8781 C.3       1 RES1    0.0000
     34 H17        7.7914    4.9846    3.4973 H         1 RES1    0.0000
     35 H18        7.4027    3.6182    4.2340 H         1 RES1    0.0000
     36 H19        6.6315    4.9705    4.6001 H         1 RES1    0.0000
     37 C13        6.7546    3.5064    1.6164 C.3       1 RES1    0.0000
     38 H20        6.0987    3.0906    1.0179 H         1 RES1    0.0000
     39 H21        7.3672    2.8218    1.9555 H         1 RES1    0.0000
     40 H22        7.2623    4.1842    1.1236 H         1 RES1    0.0000
     41 C14        3.4448    6.7569    1.5970 C.3       1 RES1    0.0000
     42 H23        3.3639    7.0787    2.5196 H         1 RES1    0.0000
     43 H24        2.5528    6.6886    1.1965 H         1 RES1    0.0000
     44 H25        3.9885    7.3859    1.0775 H         1 RES1    0.0000
     45 C15        4.3767    4.9963    0.1362 C.3       1 RES1    0.0000
     46 H26        5.1385    5.5101   -0.2054 H         1 RES1    0.0000
     47 H27        3.5827    5.1928   -0.4033 H         1 RES1    0.0000
     48 H28        4.5789    4.0386    0.0833 H         1 RES1    0.0000
     49 C16        8.4897   10.5813    1.8009 C.3       1 RES1    0.0000
     50 H29        8.2411   11.5438    1.9079 H         1 RES1    0.0000
     51 C17        5.9814   10.5924    1.7123 C.3       1 RES1    0.0000
     52 H30        5.2438    9.9348    1.5597 H         1 RES1    0.0000
     53 C18        5.6824   11.2920    3.0354 C.3       1 RES1    0.0000
     54 H31        5.5646   10.6221    3.7399 H         1 RES1    0.0000
     55 H32        4.8623   11.8207    2.9467 H         1 RES1    0.0000
     56 H33        6.4292   11.8834    3.2681 H         1 RES1    0.0000
     57 C19        5.9324   11.5927    0.5517 C.3       1 RES1    0.0000
     58 H34        6.6416   12.2594    0.6652 H         1 RES1    0.0000
     59 H35        5.0611   12.0411    0.5432 H         1 RES1    0.0000
     60 H36        6.0628   11.1173   -0.2947 H         1 RES1    0.0000
     61 C20        9.3788   10.2304    2.9891 C.3       1 RES1    0.0000
     62 H37        8.8836   10.3775    3.8217 H         1 RES1    0.0000
     63 H38       10.1777   10.7979    2.9779 H         1 RES1    0.0000
     64 H39        9.6456    9.2900    2.9303 H         1 RES1    0.0000
     65 C21        9.2649   10.4770    0.4886 C.3       1 RES1    0.0000
     66 H40        9.5712    9.5548    0.3616 H         1 RES1    0.0000
     67 H41       10.0393   11.0769    0.5179 H         1 RES1    0.0000
     68 H42        8.6816   10.7333   -0.2560 H         1 RES1    0.0000
     69 O4         2.1616    7.6685    7.6427 O.2       2 RES2    0.0000
     70 O5         4.0956    6.8052    6.8985 O.3       2 RES2    0.0000
     71 O6         4.2090    9.0582    9.3738 O.3       2 RES2    0.0000
     72 N3         5.3056    9.6363    8.5831 N.3       2 RES2    0.0000
     73 N4         3.3142    5.5641   10.0081 N.3       2 RES2    0.0000
     74 C22        3.3146    7.3918    7.8200 C.2       2 RES2    0.0000
     75 C23        4.0725    7.6554    9.1156 C.3       2 RES2    0.0000
     76 H43        4.9783    7.2343    9.0662 H         2 RES2    0.0000
     77 C24        3.2619    7.0075   10.2577 C.3       2 RES2    0.0000
     78 H44        2.3107    7.2869   10.1258 H         2 RES2    0.0000
     79 C25        3.6724    7.4892   11.6690 C.3       2 RES2    0.0000
     80 H45        3.5226    6.7533   12.3135 H         2 RES2    0.0000
     81 H46        4.6412    7.6932   11.6661 H         2 RES2    0.0000
     82 C26        2.9121    8.7190   12.1437 C.3       2 RES2    0.0000
     83 H47        3.0008    9.4335   11.4801 H         2 RES2    0.0000
     84 H48        3.2807    9.0212   12.9996 H         2 RES2    0.0000
     85 H49        1.9655    8.4936   12.2570 H         2 RES2    0.0000
     86 C27        3.4444    6.5216    5.6328 C.3       2 RES2    0.0000
     87 H50        2.7596    5.8336    5.7654 H         2 RES2    0.0000
     88 H51        4.1089    6.2014    4.9885 H         2 RES2    0.0000
     89 H52        3.0250    7.3394    5.2906 H         2 RES2    0.0000
     90 C28        6.4440    9.8875    9.5304 C.3       2 RES2    0.0000
     91 C29        7.5299   10.6354    8.7376 C.3       2 RES2    0.0000
     92 H53        8.2566   10.8929    9.3594 H         2 RES2    0.0000
     93 H54        7.9141   10.0177    8.0661 H         2 RES2    0.0000
     94 C30        7.0379   11.8737    8.0309 C.3       2 RES2    0.0000
     95 H55        7.7707   12.2735    7.4976 H         2 RES2    0.0000
     96 H56        6.7343   12.5424    8.6942 H         2 RES2    0.0000
     97 C31        5.8841   11.4886    7.1187 C.3       2 RES2    0.0000
     98 H57        6.2195   10.8707    6.4217 H         2 RES2    0.0000
     99 H58        5.5485   12.3018    6.6657 H         2 RES2    0.0000
    100 C32        4.7250   10.8184    7.8576 C.3       2 RES2    0.0000
    101 C33        3.7554   10.2821    6.8061 C.3       2 RES2    0.0000
    102 H59        4.1797    9.5488    6.3145 H         2 RES2    0.0000
    103 H60        3.5207   11.0001    6.1821 H         2 RES2    0.0000
    104 H61        2.9444    9.9530    7.2476 H         2 RES2    0.0000
    105 C34        3.9648   11.8228    8.7412 C.3       2 RES2    0.0000
    106 H62        3.3766   11.3376    9.3564 H         2 RES2    0.0000
    107 H63        3.4278   12.4150    8.1748 H         2 RES2    0.0000
    108 H64        4.6064   12.3564    9.2552 H         2 RES2    0.0000
    109 C35        7.0380    8.5320    9.9264 C.3       2 RES2    0.0000
    110 H65        6.4145    8.0631   10.5202 H         2 RES2    0.0000
    111 H66        7.8892    8.6715   10.3922 H         2 RES2    0.0000
    112 H67        7.1900    7.9944    9.1213 H         2 RES2    0.0000
    113 C36        6.0806   10.6379   10.8213 C.3       2 RES2    0.0000
    114 H68        5.9280   11.5842   10.6169 H         2 RES2    0.0000
    115 H69        6.8162   10.5574   11.4637 H         2 RES2    0.0000
    116 H70        5.2661   10.2502   11.2063 H         2 RES2    0.0000
    117 C37        2.0647    4.7980   10.1926 C.3       2 RES2    0.0000
    118 H71        2.3213    3.8324   10.2077 H         2 RES2    0.0000
    119 C38        4.5729    4.8526   10.2839 C.3       2 RES2    0.0000
    120 H72        5.2976    5.5425   10.2880 H         2 RES2    0.0000
    121 C39        4.8849    3.8991    9.1397 C.3       2 RES2    0.0000
    122 H73        4.1630    3.2422    9.0558 H         2 RES2    0.0000
    123 H74        5.7286    3.4342    9.3222 H         2 RES2    0.0000
    124 H75        4.9648    4.4065    8.3042 H         2 RES2    0.0000
    125 C40        4.6519    4.1229   11.6295 C.3       2 RES2    0.0000
    126 H76        4.4998    4.7623   12.3567 H         2 RES2    0.0000
    127 H77        5.5380    3.7172   11.7301 H         2 RES2    0.0000
    128 H78        3.9671    3.4221   11.6617 H         2 RES2    0.0000
    129 C41        1.1307    4.9797    9.0082 C.3       2 RES2    0.0000
    130 H79        0.8330    5.9124    8.9665 H         2 RES2    0.0000
    131 H80        0.3533    4.3924    9.1124 H         2 RES2    0.0000
    132 H81        1.6045    4.7521    8.1807 H         2 RES2    0.0000
    133 C42        1.3318    5.0760   11.5050 C.3       2 RES2    0.0000
    134 H82        1.9284    4.8856   12.2584 H         2 RES2    0.0000
    135 H83        0.5391    4.5035   11.5634 H         2 RES2    0.0000
    136 H84        1.0581    6.0175   11.5337 H         2 RES2    0.0000
@<TRIPOS>BOND
     1    1    6 2
     2    2    6 1
     3    3    4 1
     4    4   22 1
     5    5    9 1
     6    6    7 1
     7    7    3 1
     8    8    7 1
     9    9    7 1
    10   10    9 1
    11   11    9 1
    12   12   11 1
    13   13   11 1
    14   14   11 1
    15   15   14 1
    16   16   14 1
    17   17   14 1
    18   18    2 1
    19   19   18 1
    20   20   18 1
    21   21   18 1
    22   22   23 1
    23   23   24 1
    24   25   23 1
    25   26   23 1
    26   27   26 1
    27   28   26 1
    28   29   26 1
    29   30   29 1
    30   31   29 1
    31   32    4 1
    32   33   32 1
    33   34   33 1
    34   35   33 1
    35   36   33 1
    36   37   32 1
    37   38   37 1
    38   39   37 1
    39   40   37 1
    40   41   22 1
    41   42   41 1
    42   43   41 1
    43   44   41 1
    44   45   22 1
    45   46   45 1
    46   47   45 1
    47   48   45 1
    48   49    5 1
    49   50   49 1
    50   51    5 1
    51   52   51 1
    52   53   51 1
    53   54   53 1
    54   55   53 1
    55   56   53 1
    56   57   51 1
    57   58   57 1
    58   59   57 1
    59   60   57 1
    60   61   49 1
    61   62   61 1
    62   63   61 1
    63   64   61 1
    64   65   49 1
    65   66   65 1
    66   67   65 1
    67   68   65 1
    68   69   74 2
    69   70   74 1
    70   71   72 1
    71   72   90 1
    72   73   77 1
    73   74   75 1
    74   75   71 1
    75   76   75 1
    76   77   75 1
    77   78   77 1
    78   79   77 1
    79   80   79 1
    80   81   79 1
    81   82   79 1
    82   83   82 1
    83   84   82 1
    84   85   82 1
    85   86   70 1
    86   87   86 1
    87   88   86 1
    88   89   86 1
    89   90   91 1
    90   91   92 1
    91   93   91 1
    92   94   91 1
    93   95   94 1
    94   96   94 1
    95   97   94 1
    96   98   97 1
    97   99   97 1
    98  100   72 1
    99  101  100 1
   100  102  101 1
   101  103  101 1
   102  104  101 1
   103  105  100 1
   104  106  105 1
   105  107  105 1
   106  108  105 1
   107  109   90 1
   108  110  109 1
   109  111  109 1
   110  112  109 1
   111  113   90 1
   112  114  113 1
   113  115  113 1
   114  116  113 1
   115  117   73 1
   116  118  117 1
   117  119   73 1
   118  120  119 1
   119  121  119 1
   120  122  121 1
   121  123  121 1
   122  124  121 1
   123  125  119 1
   124  126  125 1
   125  127  125 1
   126  128  125 1
   127  129  117 1
   128  130  129 1
   129  131  129 1
   130  132  129 1
   131  133  117 1
   132  134  133 1
   133  135  133 1
   134  136  133 1
   135   29   32 1
   136   97  100 1
@<TRIPOS>SUBSTRUCTURE
     1 RES1 1
     2 RES2 69

@<TRIPOS>CRYSIN
   7.5673   20.2133   14.8978  90.0000  92.6250  90.0000   4 1

