# MOL2 file generated by ConQuest
# Please check atom types

@<TRIPOS>MOLECULE
KUMXIZ
    35    30     2
SMALL
NO_CHARGES
****
Generated from CSD

@<TRIPOS>ATOM
      1 C1        -1.4987    6.9541   10.9680 C.2       1 RES1    0.0000
      2 C2        -1.5701    6.5121    9.6758 C.2       1 RES1    0.0000
      3 C3        -0.5327    3.9617    8.1844 C.2       1 RES1    0.0000
      4 C4         0.1504    3.2418    7.0933 C.ar      1 RES1    0.0000
      5 C5        -0.4209    2.0361    6.6894 C.ar      1 RES1    0.0000
      6 C6         0.1968    1.2757    5.7262 C.ar      1 RES1    0.0000
      7 C7         1.3858    1.7123    5.1998 C.ar      1 RES1    0.0000
      8 C8         1.9672    2.9191    5.5544 C.ar      1 RES1    0.0000
      9 C9         1.3281    3.6904    6.5103 C.ar      1 RES1    0.0000
     10 C10       -2.4814    7.7812   11.7302 C.3       1 RES1    0.0000
     11 C11       -2.5819    6.6718    8.6066 C.3       1 RES1    0.0000
     12 N1        -0.4167    5.8283    9.5497 N.3       1 RES1    0.0000
     13 N2         0.3406    5.8151   10.6445 N.2       1 RES1    0.0000
     14 N3        -0.3365    6.5252   11.5255 N.2       1 RES1    0.0000
     15 N4         2.0712    0.8742    4.2074 N.pl3     1 RES1    0.0000
     16 O1         0.0719    5.2046    8.4166 O.3       1 RES1    0.0000
     17 O2        -1.4684    3.5941    8.8132 O.2       1 RES1    0.0000
     18 O3         1.4470   -0.0372    3.6938 O.2       1 RES1    0.0000
     19 O4         3.2299    1.1149    3.9533 O.2       1 RES1    0.0000
     20 H1        -1.2467    1.7681    7.0988 H         1 RES1    0.0000
     21 H2        -0.2212    0.4573    5.4484 H         1 RES1    0.0000
     22 H3         2.7305    3.2615    5.0847 H         1 RES1    0.0000
     23 H4         1.7229    4.4957    6.8520 H         1 RES1    0.0000
     24 H5        -3.2834    7.4902   11.1764 H         1 RES1    0.0000
     25 H6        -2.5266    7.4497   12.6897 H         1 RES1    0.0000
     26 H7        -2.3126    8.7823   11.6735 H         1 RES1    0.0000
     27 H8        -3.3958    7.3534   11.8508 Du        2 SUP2    0.0000
     28 H9        -1.9993    7.9268   12.6130 Du        2 SUP2    0.0000
     29 H10       -2.5195    8.6259   11.1636 Du        2 SUP2    0.0000
     30 H11       -3.1259    7.5088    8.8004 H         1 RES1    0.0000
     31 H12       -2.0237    6.7561    7.7622 H         1 RES1    0.0000
     32 H13       -3.1497    5.8272    8.6121 H         1 RES1    0.0000
     33 H14       -3.4838    6.7626    9.0672 Du        2 SUP2    0.0000
     34 H15       -2.5296    5.8469    8.0145 Du        2 SUP2    0.0000
     35 H16       -2.3067    7.5197    8.1186 Du        2 SUP2    0.0000
@<TRIPOS>BOND
     1    1    2 2
     2    2   11 1
     3    3    4 1
     4    4    5 ar
     5    5    6 ar
     6    6    7 ar
     7    7    8 ar
     8    8    9 ar
     9    9    4 ar
    10   10    1 1
    11   11   30 1
    12   12    2 1
    13   13   12 1
    14   14    1 1
    15   15    7 1
    16   16    3 1
    17   17    3 2
    18   18   15 2
    19   19   15 2
    20   20    5 1
    21   21    6 1
    22   22    8 1
    23   23    9 1
    24   24   10 1
    25   25   10 1
    26   26   10 1
    27   31   11 1
    28   32   11 1
    29   12   16 1
    30   13   14 2
@<TRIPOS>SUBSTRUCTURE
     1 RES1 1
     2 SUP2 27

@<TRIPOS>CRYSIN
   5.9450   10.9410   18.2770  90.0000  90.0000  90.0000  19 1

