# MOL2 file generated by ConQuest
# Please check atom types

@<TRIPOS>MOLECULE
KUMXOH
   197   204     1
SMALL
NO_CHARGES
****
Generated from CSD

@<TRIPOS>ATOM
      1 N1        12.8120    1.4141    1.8754 N.pl3     1 RES1    0.0000
      2 H1        12.5497    1.7927    1.1482 H         1 RES1    0.0000
      3 N2        13.0658    1.2270    6.5772 N.pl3     1 RES1    0.0000
      4 H2        13.0648    1.5900    7.3574 H         1 RES1    0.0000
      5 C1        14.7433    0.0245    1.6870 C.ar      1 RES1    0.0000
      6 O1        11.5800    3.5519    0.9127 O.2       1 RES1    0.0000
      7 O2        16.5350   -5.5517    5.0727 O.3       1 RES1    0.0000
      8 N3        17.8364  -16.7752    5.1581 N.pl3     1 RES1    0.0000
      9 H3        18.0663  -17.1471    5.9000 H         1 RES1    0.0000
     10 O3        15.1212   -9.2572    1.6193 O.3       1 RES1    0.0000
     11 C2        12.2231    3.2067    5.5909 C.ar      1 RES1    0.0000
     12 N4        18.9395  -19.4943    4.9815 N.pl3     1 RES1    0.0000
     13 N5        11.9726    3.9505    6.8245 N.pl3     1 RES1    0.0000
     14 N6        17.1131  -16.7797    0.5417 N.pl3     1 RES1    0.0000
     15 H4        17.1262  -17.1627   -0.2296 H         1 RES1    0.0000
     16 O4        10.9576    5.1753    2.2375 O.2       1 RES1    0.0000
     17 C3        11.8426    3.9349    4.4103 C.ar      1 RES1    0.0000
     18 H5        11.4860    4.7901    4.4692 H         1 RES1    0.0000
     19 O5        11.5681    5.1263    6.7892 O.2       1 RES1    0.0000
     20 N7        18.5381  -19.3985    0.2797 N.pl3     1 RES1    0.0000
     21 O6        18.0686  -18.8797   -0.7331 O.2       1 RES1    0.0000
     22 O7        12.2041    3.3159    7.8755 O.2       1 RES1    0.0000
     23 C4        11.8147  -11.5198    6.3681 C.3       1 RES1    0.0000
     24 H6        11.8423  -11.9518    5.4908 H         1 RES1    0.0000
     25 C5        15.6365   -9.0724    5.3141 C.ar      1 RES1    0.0000
     26 C6        13.8335   -5.2666    6.0384 C.2       1 RES1    0.0000
     27 C7        15.7822    0.5011    5.8205 C.3       1 RES1    0.0000
     28 H7        16.5995    0.0713    5.5615 H         1 RES1    0.0000
     29 H8        15.9239    0.9887    6.6361 H         1 RES1    0.0000
     30 H9        15.5046    1.1068    5.1316 H         1 RES1    0.0000
     31 C8        16.3547  -12.9004    5.1728 C.ar      1 RES1    0.0000
     32 C9        12.4126   -1.1379    6.6302 C.ar      1 RES1    0.0000
     33 C10       12.8916  -10.1903    2.2493 C.ar      1 RES1    0.0000
     34 C11       17.6839  -17.4099    1.5692 C.ar      1 RES1    0.0000
     35 C12       15.2261   -1.2983    1.6752 C.ar      1 RES1    0.0000
     36 H10       16.1365   -1.4586    1.5722 H         1 RES1    0.0000
     37 C13       13.7736   -7.7875    5.8382 C.ar      1 RES1    0.0000
     38 H11       12.8696   -7.7429    6.0472 H         1 RES1    0.0000
     39 C14       13.3773   -7.7585    2.3082 C.ar      1 RES1    0.0000
     40 H12       13.9565   -7.0504    2.1463 H         1 RES1    0.0000
     41 C15       13.7841   -9.1192    2.0874 C.ar      1 RES1    0.0000
     42 C16       12.1697   -7.5559    2.7439 C.ar      1 RES1    0.0000
     43 C17       16.3979   -7.9322    5.1404 C.ar      1 RES1    0.0000
     44 H13       17.3010   -7.9834    4.9226 H         1 RES1    0.0000
     45 C18       15.7588   -6.7030    5.3024 C.ar      1 RES1    0.0000
     46 C19       14.3235   -2.3850    1.8195 C.ar      1 RES1    0.0000
     47 C20       12.4963  -12.3214    7.3338 C.3       1 RES1    0.0000
     48 H14       12.1429  -13.2144    7.3132 H         1 RES1    0.0000
     49 H15       12.3719  -11.9473    8.2082 H         1 RES1    0.0000
     50 H16       13.4337  -12.3459    7.1248 H         1 RES1    0.0000
     51 O8        12.7296   -5.3446    6.6449 O.2       1 RES1    0.0000
     52 N8        14.9796   -3.6232    1.9019 N.3       1 RES1    0.0000
     53 H17       14.5316   -4.3358    2.0815 H         1 RES1    0.0000
     54 H18       15.8275   -3.6699    1.7724 H         1 RES1    0.0000
     55 C21       16.5093  -13.1053    0.8244 C.ar      1 RES1    0.0000
     56 H19       16.9622  -12.2969    0.7449 H         1 RES1    0.0000
     57 C22       17.1624  -14.2967    0.5329 C.ar      1 RES1    0.0000
     58 C23       16.4868  -15.5059    0.6507 C.ar      1 RES1    0.0000
     59 C24       15.1596  -15.5237    1.0599 C.ar      1 RES1    0.0000
     60 C25       14.5065  -14.3301    1.3514 C.ar      1 RES1    0.0000
     61 H20       13.6178  -14.3412    1.6252 H         1 RES1    0.0000
     62 C26       15.1820  -13.1209    1.2336 C.ar      1 RES1    0.0000
     63 O9        13.6363  -10.1992    5.7646 O.3       1 RES1    0.0000
     64 N9        11.4092    4.1109    2.0668 N.pl3     1 RES1    0.0000
     65 C27       12.6079    2.0621    3.0619 C.ar      1 RES1    0.0000
     66 O10       17.7419  -10.2660    5.2347 O.2       1 RES1    0.0000
     67 N10       14.4413   -4.1242    5.7116 N.am      1 RES1    0.0000
     68 H21       15.1755   -4.2088    5.2700 H         1 RES1    0.0000
     69 C28       11.7325   -6.1151    2.9765 C.2       1 RES1    0.0000
     70 O11       18.9691  -18.9643    6.0973 O.2       1 RES1    0.0000
     71 N11       15.8797  -11.5131    5.1611 N.am      1 RES1    0.0000
     72 H22       15.0238  -11.4685    5.1081 H         1 RES1    0.0000
     73 C29       15.9759  -15.2164    5.3671 C.ar      1 RES1    0.0000
     74 O12       19.3758  -20.6255    4.8431 O.2       1 RES1    0.0000
     75 N12       14.6568  -11.8538    1.5133 N.am      1 RES1    0.0000
     76 H23       15.1592  -11.1701    1.3720 H         1 RES1    0.0000
     77 C30       11.3191   -8.6849    2.9117 C.ar      1 RES1    0.0000
     78 O13       19.1645  -20.4674    0.2414 O.2       1 RES1    0.0000
     79 C31       17.2895   -8.6359    0.7508 C.3       1 RES1    0.0000
     80 H24       17.1260   -9.1392   -0.0736 H         1 RES1    0.0000
     81 O14       12.5505  -12.4729    2.1522 O.2       1 RES1    0.0000
     82 C32       12.0198    3.3292    3.2003 C.ar      1 RES1    0.0000
     83 O15       10.0546   -8.4377    3.3592 O.3       1 RES1    0.0000
     84 C33       11.7248   -9.9854    2.6762 C.ar      1 RES1    0.0000
     85 H25       11.1468  -10.6958    2.8323 H         1 RES1    0.0000
     86 O16       10.8569   -5.9703    3.8097 O.3       1 RES1    0.0000
     87 O17       12.1020   -5.3067    2.3406 O.2       1 RES1    0.0000
     88 C34       12.7330    1.9374    5.5114 C.ar      1 RES1    0.0000
     89 C35       14.4523   -6.5627    5.7381 C.ar      1 RES1    0.0000
     90 C36       19.7216  -14.6619    4.8666 C.3       1 RES1    0.0000
     91 H26       20.1977  -13.8380    4.7312 H         1 RES1    0.0000
     92 H27       19.8469  -15.2320    4.1041 H         1 RES1    0.0000
     93 H28       20.0548  -15.0984    5.6527 H         1 RES1    0.0000
     94 C37       13.4369    0.1537    1.7989 C.ar      1 RES1    0.0000
     95 C38       12.8372   -2.5186    6.3976 C.ar      1 RES1    0.0000
     96 H29       12.2325   -3.2112    6.5419 H         1 RES1    0.0000
     97 C39       17.7276  -13.0541    5.0168 C.ar      1 RES1    0.0000
     98 H30       18.2911  -12.3237    4.9020 H         1 RES1    0.0000
     99 C40       15.6801    1.1691    1.5839 C.3       1 RES1    0.0000
    100 H31       15.1806    1.9908    1.5633 H         1 RES1    0.0000
    101 H32       16.1964    1.0890    0.7772 H         1 RES1    0.0000
    102 H33       16.2675    1.1713    2.3406 H         1 RES1    0.0000
    103 C41       15.4889  -13.9315    5.3465 C.ar      1 RES1    0.0000
    104 H34       14.5785  -13.7711    5.4496 H         1 RES1    0.0000
    105 C42       18.4658   -4.0574    4.9638 C.3       1 RES1    0.0000
    106 H35       18.1535   -3.6677    5.8058 H         1 RES1    0.0000
    107 C43       12.4458   -0.8106    2.0050 C.ar      1 RES1    0.0000
    108 C44       14.9462  -16.3722    5.5585 C.3       1 RES1    0.0000
    109 H36       14.0634  -16.0025    5.6498 H         1 RES1    0.0000
    110 H37       15.1668  -16.8688    6.3505 H         1 RES1    0.0000
    111 H38       14.9721  -16.9556    4.7989 H         1 RES1    0.0000
    112 C45        9.5198   -4.6097    5.2788 C.3       1 RES1    0.0000
    113 H39        9.1698   -3.7390    5.4820 H         1 RES1    0.0000
    114 H40       10.0614   -4.9148    6.0090 H         1 RES1    0.0000
    115 H41        8.7937   -5.2221    5.1404 H         1 RES1    0.0000
    116 C46       12.9186    1.4029    4.2042 C.ar      1 RES1    0.0000
    117 H42       13.2770    0.5478    4.1306 H         1 RES1    0.0000
    118 C47       15.9834   -8.1905    1.3396 C.3       1 RES1    0.0000
    119 H43       16.1571   -7.6984    2.1551 H         1 RES1    0.0000
    120 H44       15.5471   -7.5870    0.7154 H         1 RES1    0.0000
    121 C48       17.8860   -5.6140    4.7665 C.3       1 RES1    0.0000
    122 H45       18.0172   -5.9146    3.8539 H         1 RES1    0.0000
    123 H46       18.3433   -6.2264    5.3642 H         1 RES1    0.0000
    124 C49       11.0008   -0.7928    7.0247 C.3       1 RES1    0.0000
    125 H47       10.4862   -1.5989    7.1130 H         1 RES1    0.0000
    126 H48       10.6073   -0.2338    6.3505 H         1 RES1    0.0000
    127 H49       11.0080   -0.3251    7.8638 H         1 RES1    0.0000
    128 C50       13.3482  -11.6244    2.0167 C.2       1 RES1    0.0000
    129 C51       10.3507   -4.5362    4.0393 C.3       1 RES1    0.0000
    130 H50       11.0932   -3.9238    4.1601 H         1 RES1    0.0000
    131 H51        9.8171   -4.2356    3.2856 H         1 RES1    0.0000
    132 C52       18.0745   -9.5311    1.7724 C.3       1 RES1    0.0000
    133 H52       18.8945   -9.8295    1.3720 H         1 RES1    0.0000
    134 H53       17.5386  -10.2905    2.0108 H         1 RES1    0.0000
    135 H54       18.2720   -9.0189    2.5614 H         1 RES1    0.0000
    136 C53       16.4614  -10.2526    5.2140 C.2       1 RES1    0.0000
    137 C54        7.6586   -9.0323    4.1542 C.3       1 RES1    0.0000
    138 H55        7.8336   -8.7183    5.0668 H         1 RES1    0.0000
    139 C55       12.9660   -2.0064    1.9814 C.ar      1 RES1    0.0000
    140 H56       12.3667   -2.7079    2.0815 H         1 RES1    0.0000
    141 C56       14.3204  -16.8510    1.3042 C.3       1 RES1    0.0000
    142 H57       14.8572  -17.6148    1.0805 H         1 RES1    0.0000
    143 H58       13.5341  -16.8376    0.7537 H         1 RES1    0.0000
    144 H59       14.0613  -16.8999    2.2287 H         1 RES1    0.0000
    145 C57       10.3763  -11.4708    6.8863 C.3       1 RES1    0.0000
    146 H60        9.8418  -10.9385    6.2916 H         1 RES1    0.0000
    147 H61       10.3641  -11.0833    7.7637 H         1 RES1    0.0000
    148 H62       10.0200  -12.3615    6.9246 H         1 RES1    0.0000
    149 C58       17.8310   -3.3003    3.7037 C.3       1 RES1    0.0000
    150 H63       16.8733   -3.2980    3.7803 H         1 RES1    0.0000
    151 H64       18.0876   -3.7523    2.8941 H         1 RES1    0.0000
    152 H65       18.1513   -2.3961    3.6772 H         1 RES1    0.0000
    153 C59       19.8127   -4.1376    4.9285 C.3       1 RES1    0.0000
    154 H66       20.1232   -4.6230    5.6969 H         1 RES1    0.0000
    155 H67       20.1853   -3.2535    4.9373 H         1 RES1    0.0000
    156 H68       20.0862   -4.5941    4.1306 H         1 RES1    0.0000
    157 C60       18.1510   -7.3933    0.4416 C.3       1 RES1    0.0000
    158 H69       18.9874   -7.6717    0.0618 H         1 RES1    0.0000
    159 H70       18.3142   -6.9056    1.2542 H         1 RES1    0.0000
    160 H71       17.6869   -6.8299   -0.1825 H         1 RES1    0.0000
    161 C61       18.5632  -14.3746    0.1119 C.3       1 RES1    0.0000
    162 H72       18.9235  -13.4861    0.0353 H         1 RES1    0.0000
    163 H73       18.6170  -14.8133   -0.7390 H         1 RES1    0.0000
    164 H74       19.0662  -14.8690    0.7625 H         1 RES1    0.0000
    165 C62        9.0578   -9.5378    3.4299 C.3       1 RES1    0.0000
    166 H75        9.4303  -10.2794    3.9304 H         1 RES1    0.0000
    167 H76        8.8601   -9.8518    2.5319 H         1 RES1    0.0000
    168 C63        7.2007   -7.9255    3.3004 C.3       1 RES1    0.0000
    169 H77        7.8586   -7.2263    3.3033 H         1 RES1    0.0000
    170 H78        6.3696   -7.5848    3.6360 H         1 RES1    0.0000
    171 H79        7.0782   -8.2440    2.4024 H         1 RES1    0.0000
    172 C64        6.8320  -10.2148    4.1718 C.3       1 RES1    0.0000
    173 H80        7.2194  -10.8673    4.7577 H         1 RES1    0.0000
    174 H81        6.7729  -10.5755    3.2827 H         1 RES1    0.0000
    175 H82        5.9537   -9.9854    4.4810 H         1 RES1    0.0000
    176 C65       14.0495   -2.8081    5.9854 C.ar      1 RES1    0.0000
    177 C66       15.0099   -1.8439    5.8382 C.ar      1 RES1    0.0000
    178 H83       15.8735   -2.0955    5.5968 H         1 RES1    0.0000
    179 C67       14.7313   -0.5211    6.0325 C.ar      1 RES1    0.0000
    180 C68       13.4323   -0.1626    6.4270 C.ar      1 RES1    0.0000
    181 C69       11.0016   -0.6992    2.2464 C.3       1 RES1    0.0000
    182 H84       10.6218   -1.5789    2.3229 H         1 RES1    0.0000
    183 H85       10.5902   -0.2361    1.5133 H         1 RES1    0.0000
    184 H86       10.8488   -0.2138    3.0589 H         1 RES1    0.0000
    185 C70       14.3064   -9.0679    5.6527 C.ar      1 RES1    0.0000
    186 C71       12.2817  -10.1257    6.2622 C.3       1 RES1    0.0000
    187 H87       11.7203   -9.6247    5.6498 H         1 RES1    0.0000
    188 H88       12.2616   -9.6915    7.1307 H         1 RES1    0.0000
    189 C72       18.0003  -17.4856    4.0099 C.ar      1 RES1    0.0000
    190 C73       17.3112  -15.4614    5.2111 C.ar      1 RES1    0.0000
    191 C74       18.2223  -14.3635    5.0403 C.ar      1 RES1    0.0000
    192 C75       18.5524  -18.7527    3.8509 C.ar      1 RES1    0.0000
    193 C76       17.5363  -16.8398    2.8293 C.ar      1 RES1    0.0000
    194 H89       17.1223  -16.0114    2.9029 H         1 RES1    0.0000
    195 C77       18.3361  -18.6681    1.5015 C.ar      1 RES1    0.0000
    196 C78       18.7120  -19.3094    2.6320 C.ar      1 RES1    0.0000
    197 H90       19.0915  -20.1557    2.5702 H         1 RES1    0.0000
@<TRIPOS>BOND
     1    1    2 1
     2    3    4 1
     3    5   35 ar
     4    6   64 2
     5    7   45 1
     6    8    9 1
     7   10   41 1
     8   11   13 1
     9   12   70 2
    10   13   19 2
    11   14   15 1
    12   16   64 2
    13   17   11 ar
    14   18   17 1
    15   20   21 2
    16   22   13 2
    17   23   24 1
    18   25   43 ar
    19   26   51 2
    20   27   28 1
    21   29   27 1
    22   30   27 1
    23   31   71 1
    24   32   95 ar
    25   33   41 ar
    26   34   14 1
    27   35   36 1
    28   37   38 1
    29   39   40 1
    30   41   39 ar
    31   42   39 ar
    32   43   44 1
    33   45   43 ar
    34   46   35 ar
    35   47   23 1
    36   48   47 1
    37   49   47 1
    38   50   47 1
    39   52   46 1
    40   53   52 1
    41   54   52 1
    42   55   56 1
    43   57   55 ar
    44   58   14 1
    45   59   58 ar
    46   60   59 ar
    47   61   60 1
    48   62   55 ar
    49   63  185 1
    50   64   82 1
    51   65    1 1
    52   66  136 2
    53   67   26 1
    54   68   67 1
    55   69   42 1
    56   71   72 1
    57   73  103 ar
    58   74   12 2
    59   75   62 1
    60   76   75 1
    61   77   42 ar
    62   78   20 2
    63   79   80 1
    64   81  128 2
    65   82   17 ar
    66   83   77 1
    67   84   33 ar
    68   85   84 1
    69   86   69 1
    70   87   69 2
    71   88    3 1
    72   89   26 1
    73   90   91 1
    74   92   90 1
    75   93   90 1
    76   94    1 1
    77   95   96 1
    78   97   31 ar
    79   98   97 1
    80   99    5 1
    81  100   99 1
    82  101   99 1
    83  102   99 1
    84  103   31 ar
    85  104  103 1
    86  105  106 1
    87  107   94 ar
    88  108   73 1
    89  109  108 1
    90  110  108 1
    91  111  108 1
    92  112  113 1
    93  114  112 1
    94  115  112 1
    95  116   65 ar
    96  117  116 1
    97  118   10 1
    98  119  118 1
    99  120  118 1
   100  121    7 1
   101  122  121 1
   102  123  121 1
   103  124   32 1
   104  125  124 1
   105  126  124 1
   106  127  124 1
   107  128   33 1
   108  129   86 1
   109  130  129 1
   110  131  129 1
   111  132   79 1
   112  133  132 1
   113  134  132 1
   114  135  132 1
   115  136   25 1
   116  137  138 1
   117  139   46 ar
   118  140  139 1
   119  141   59 1
   120  142  141 1
   121  143  141 1
   122  144  141 1
   123  145   23 1
   124  146  145 1
   125  147  145 1
   126  148  145 1
   127  149  105 1
   128  150  149 1
   129  151  149 1
   130  152  149 1
   131  153  105 1
   132  154  153 1
   133  155  153 1
   134  156  153 1
   135  157   79 1
   136  158  157 1
   137  159  157 1
   138  160  157 1
   139  161   57 1
   140  162  161 1
   141  163  161 1
   142  164  161 1
   143  165   83 1
   144  166  165 1
   145  167  165 1
   146  168  137 1
   147  169  168 1
   148  170  168 1
   149  171  168 1
   150  172  137 1
   151  173  172 1
   152  174  172 1
   153  175  172 1
   154  176   67 1
   155  177  176 ar
   156  178  177 1
   157  179   27 1
   158  180    3 1
   159  181  107 1
   160  182  181 1
   161  183  181 1
   162  184  181 1
   163  185   25 ar
   164  186   23 1
   165  187  186 1
   166  188  186 1
   167  189    8 1
   168  190    8 1
   169  191   90 1
   170  192   12 1
   171  193   34 ar
   172  194  193 1
   173  195   20 1
   174  196  192 ar
   175  197  196 1
   176    5   94 ar
   177   11   88 ar
   178   32  180 ar
   179   34  195 ar
   180   37   89 ar
   181   37  185 ar
   182   45   89 ar
   183   57   58 ar
   184   60   62 ar
   185   63  186 1
   186   65   82 ar
   187   71  136 1
   188   73  190 ar
   189   75  128 1
   190   77   84 ar
   191   79  118 1
   192   88  116 ar
   193   95  176 ar
   194   97  191 ar
   195  105  121 1
   196  107  139 ar
   197  112  129 1
   198  137  165 1
   199  177  179 ar
   200  179  180 ar
   201  189  192 ar
   202  189  193 ar
   203  190  191 ar
   204  195  196 ar
@<TRIPOS>SUBSTRUCTURE
     1 RES1 1

@<TRIPOS>CRYSIN
  13.9220   22.2690   30.1170  90.0000 102.1600  90.0000 231 1

