# MOL2 file generated by ConQuest
# Please check atom types

@<TRIPOS>MOLECULE
KUMYEY
   202   208     2
SMALL
NO_CHARGES
****
Generated from CSD

@<TRIPOS>ATOM
      1 C1         9.1340    3.8768    4.7536 C.ar      1 RES1    0.0000
      2 C2         8.9284    2.8334    5.6610 C.ar      1 RES1    0.0000
      3 H1         8.3955    2.9840    6.4101 H         1 RES1    0.0000
      4 C3         9.4983    1.5757    5.4752 C.ar      1 RES1    0.0000
      5 C4        10.3009    1.3734    4.3599 C.ar      1 RES1    0.0000
      6 C5        10.5664    2.3969    3.4443 C.ar      1 RES1    0.0000
      7 C6         9.9565    3.6410    3.6803 C.ar      1 RES1    0.0000
      8 H2        10.1155    4.3346    3.0830 H         1 RES1    0.0000
      9 C7         9.2127    0.4669    6.4477 C.3       1 RES1    0.0000
     10 H3         8.6659    0.8015    7.1619 H         1 RES1    0.0000
     11 H4        10.0396    0.1354    6.8055 H         1 RES1    0.0000
     12 H5         8.7501   -0.2433    5.9976 H         1 RES1    0.0000
     13 C8        11.4159    2.1764    2.2384 C.3       1 RES1    0.0000
     14 H6        11.4673    2.9886    1.7307 H         1 RES1    0.0000
     15 H7        11.0293    1.4844    1.6965 H         1 RES1    0.0000
     16 H8        12.2969    1.9133    2.5118 H         1 RES1    0.0000
     17 C9        10.1019   -0.7255    3.1860 C.ar      1 RES1    0.0000
     18 C10       10.4588   -2.0639    2.8142 C.ar      1 RES1    0.0000
     19 C11        9.6873   -2.7741    1.9225 C.ar      1 RES1    0.0000
     20 H9         9.9463   -3.6365    1.6916 H         1 RES1    0.0000
     21 C12        8.5504   -2.2509    1.3665 C.ar      1 RES1    0.0000
     22 C13        8.1357   -0.9054    1.6982 C.ar      1 RES1    0.0000
     23 C14        8.9486   -0.2221    2.5845 C.ar      1 RES1    0.0000
     24 H10        8.7054    0.6509    2.7974 H         1 RES1    0.0000
     25 C15        6.6937    1.0398    1.5559 C.ar      1 RES1    0.0000
     26 C16        6.0191    1.2958    2.7449 C.ar      1 RES1    0.0000
     27 C17        5.6951    2.6068    3.0803 C.ar      1 RES1    0.0000
     28 H11        5.2513    2.7848    3.8763 H         1 RES1    0.0000
     29 C18        6.0323    3.6438    2.2333 C.ar      1 RES1    0.0000
     30 C19        6.7382    3.3764    1.0758 C.ar      1 RES1    0.0000
     31 H12        6.9880    4.0836    0.5273 H         1 RES1    0.0000
     32 C20        7.0890    2.0699    0.7035 C.ar      1 RES1    0.0000
     33 N1         5.7293    4.9983    2.4889 N.am      1 RES1    0.0000
     34 H13        6.1410    5.5695    1.9967 H         1 RES1    0.0000
     35 C21        4.8845    5.5209    3.3984 C.2       1 RES1    0.0000
     36 C22        4.7169    7.0395    3.3781 C.ar      1 RES1    0.0000
     37 C23        5.3770    7.9163    2.5101 C.ar      1 RES1    0.0000
     38 C24        5.0840    9.2684    2.5880 C.ar      1 RES1    0.0000
     39 H14        5.5048    9.8524    1.9992 H         1 RES1    0.0000
     40 C25        4.1871    9.7839    3.5133 C.ar      1 RES1    0.0000
     41 C26        3.5618    8.9186    4.4229 C.ar      1 RES1    0.0000
     42 C27        3.8382    7.5497    4.3113 C.ar      1 RES1    0.0000
     43 H15        3.4120    6.9596    4.8918 H         1 RES1    0.0000
     44 C28        7.1698    8.3589    0.9637 C.3       1 RES1    0.0000
     45 H16        7.5299    8.9824    1.6135 H         1 RES1    0.0000
     46 H17        6.6777    8.8638    0.2978 H         1 RES1    0.0000
     47 C29        8.2835    7.6045    0.3124 C.3       1 RES1    0.0000
     48 H18        8.8904    8.2707   -0.0757 H         1 RES1    0.0000
     49 C30        7.7651    6.7817   -0.8226 C.3       1 RES1    0.0000
     50 H19        8.4877    6.2996   -1.2254 H         1 RES1    0.0000
     51 H20        7.3586    7.3566   -1.4744 H         1 RES1    0.0000
     52 H21        7.1104    6.1612   -0.4931 H         1 RES1    0.0000
     53 C31        9.0910    6.7817    1.2474 C.3       1 RES1    0.0000
     54 H22        9.4090    7.3338    1.9650 H         1 RES1    0.0000
     55 H23        9.8384    6.4030    0.7811 H         1 RES1    0.0000
     56 H24        8.5461    6.0760    1.6062 H         1 RES1    0.0000
     57 C32        4.0244   11.2790    3.4860 C.2       1 RES1    0.0000
     58 C33        2.9862   13.1999    4.3384 C.3       1 RES1    0.0000
     59 H25        2.7871   13.5375    3.4516 H         1 RES1    0.0000
     60 H26        3.8162   13.6029    4.6379 H         1 RES1    0.0000
     61 C34        1.8924   13.5467    5.2677 C.3       1 RES1    0.0000
     62 H27        1.8247   14.5018    5.3385 H         1 RES1    0.0000
     63 H28        2.0787   13.1740    6.1318 H         1 RES1    0.0000
     64 H29        1.0653   13.1908    4.9357 H         1 RES1    0.0000
     65 C35        2.1917    8.6509    6.3874 C.3       1 RES1    0.0000
     66 H30        2.8933    8.2098    6.8910 H         1 RES1    0.0000
     67 H31        1.6129    7.9741    6.0049 H         1 RES1    0.0000
     68 C36        1.3971    9.5725    7.2906 C.3       1 RES1    0.0000
     69 H32        1.9996   10.2706    7.6208 H         1 RES1    0.0000
     70 C37        0.8707    8.8151    8.4679 C.3       1 RES1    0.0000
     71 H33        0.3871    9.4129    9.0439 H         1 RES1    0.0000
     72 H34        1.6038    8.4273    8.9512 H         1 RES1    0.0000
     73 H35        0.2848    8.1186    8.1652 H         1 RES1    0.0000
     74 C38        0.2666   10.2433    6.5302 C.3       1 RES1    0.0000
     75 H36        0.6116   10.6341    5.7242 H         1 RES1    0.0000
     76 H37       -0.1232   10.9307    7.0765 H         1 RES1    0.0000
     77 H38       -0.4029    9.5908    6.3100 H         1 RES1    0.0000
     78 N2         8.5055    5.1254    4.9308 N.pl3     1 RES1    0.0000
     79 N3        10.7760    0.0491    4.0567 N.pl3     1 RES1    0.0000
     80 H39       11.4907   -0.2479    4.4304 H         1 RES1    0.0000
     81 N4        11.5708   -2.7598    3.4030 N.pl3     1 RES1    0.0000
     82 N5         7.8068   -3.0867    0.4823 N.pl3     1 RES1    0.0000
     83 N6         7.0260   -0.3147    1.2037 N.pl3     1 RES1    0.0000
     84 H40        6.5109   -0.7544    0.6713 H         1 RES1    0.0000
     85 O1        11.7998   -3.9169    3.0676 O.2       1 RES1    0.0000
     86 O2        12.2515   -2.1749    4.2552 O.2       1 RES1    0.0000
     87 O3         8.2639   -4.1942    0.1748 O.2       1 RES1    0.0000
     88 O4         6.7139   -2.6899    0.0422 O.2       1 RES1    0.0000
     89 C39        7.8818    1.8236   -0.5378 C.3       1 RES1    0.0000
     90 H41        8.0448    0.8821   -0.6298 H         1 RES1    0.0000
     91 H42        8.7185    2.2905   -0.4809 H         1 RES1    0.0000
     92 H43        7.3896    2.1399   -1.2986 H         1 RES1    0.0000
     93 C40        5.6659    0.1795    3.6718 C.3       1 RES1    0.0000
     94 H44        5.9883   -0.6494    3.3125 H         1 RES1    0.0000
     95 H45        4.7136    0.1369    3.7714 H         1 RES1    0.0000
     96 H46        6.0712    0.3346    4.5281 H         1 RES1    0.0000
     97 O5         4.2271    4.8474    4.1888 O.2       1 RES1    0.0000
     98 O6         6.2919    7.4261    1.6157 O.3       1 RES1    0.0000
     99 O7         4.7331   11.9727    2.8103 O.2       1 RES1    0.0000
    100 O8         3.1183   11.7634    4.3023 O.3       1 RES1    0.0000
    101 O9         2.7585    9.4598    5.3539 O.3       1 RES1    0.0000
    102 C41       20.4429   12.1231    3.0356 C.ar      2 RES2    0.0000
    103 C42       20.7212   10.7634    2.9871 C.ar      2 RES2    0.0000
    104 H47       20.2614   10.1855    3.5517 H         2 RES2    0.0000
    105 C43       21.6593   10.2554    2.1249 C.ar      2 RES2    0.0000
    106 C44       22.3506   11.1284    1.2708 C.ar      2 RES2    0.0000
    107 C45       22.0906   12.4912    1.3116 C.ar      2 RES2    0.0000
    108 C46       21.1311   12.9657    2.1852 C.ar      2 RES2    0.0000
    109 H48       20.9452   13.8767    2.2018 H         2 RES2    0.0000
    110 C47       21.9086    8.7634    2.0724 C.3       2 RES2    0.0000
    111 H49       21.3665    8.3254    2.7339 H         2 RES2    0.0000
    112 H50       22.8361    8.5885    2.2531 H         2 RES2    0.0000
    113 H51       21.6827    8.4319    1.2010 H         2 RES2    0.0000
    114 C48       22.8105   13.4402    0.3662 C.3       2 RES2    0.0000
    115 H52       22.4887   14.3345    0.5053 H         2 RES2    0.0000
    116 H53       22.6388   13.1771   -0.5419 H         2 RES2    0.0000
    117 H54       23.7537   13.4083    0.5370 H         2 RES2    0.0000
    118 C49       22.7389   10.2296   -0.9337 C.ar      2 RES2    0.0000
    119 C50       23.4389    9.4494   -1.9084 C.ar      2 RES2    0.0000
    120 C51       22.8620    9.1497   -3.1106 C.ar      2 RES2    0.0000
    121 H55       23.3412    8.6448   -3.7274 H         2 RES2    0.0000
    122 C52       21.5946    9.5710   -3.4377 C.ar      2 RES2    0.0000
    123 C53       20.8234   10.3071   -2.4884 C.ar      2 RES2    0.0000
    124 C54       21.4447   10.6068   -1.2874 C.ar      2 RES2    0.0000
    125 H56       20.9579   11.0995   -0.6664 H         2 RES2    0.0000
    126 C55       18.8068   11.4037   -1.6726 C.ar      2 RES2    0.0000
    127 C56       18.3323   10.7269   -0.5609 C.ar      2 RES2    0.0000
    128 C57       17.7235   11.4828    0.4384 C.ar      2 RES2    0.0000
    129 H57       17.4063   11.0569    1.2010 H         2 RES2    0.0000
    130 C58       17.5806   12.8607    0.3168 C.ar      2 RES2    0.0000
    131 C59       18.0383   13.5041   -0.8226 C.ar      2 RES2    0.0000
    132 H58       17.9227   14.4227   -0.9154 H         2 RES2    0.0000
    133 C60       18.6658   12.7816   -1.8237 C.ar      2 RES2    0.0000
    134 N7        16.9497   13.5062    1.3963 N.am      2 RES2    0.0000
    135 H59       16.8548   13.0402    2.1115 H         2 RES2    0.0000
    136 C61       16.4739   14.7771    1.4421 C.2       2 RES2    0.0000
    137 C62       15.3432   14.2843    3.7384 C.ar      2 RES2    0.0000
    138 C63       15.7457   15.1542    2.7239 C.ar      2 RES2    0.0000
    139 C64       15.4487   16.5078    2.8455 C.ar      2 RES2    0.0000
    140 H60       15.7335   17.0904    2.1798 H         2 RES2    0.0000
    141 C65       14.7463   17.0158    3.9210 C.ar      2 RES2    0.0000
    142 C66       14.2966   16.1322    4.9099 C.ar      2 RES2    0.0000
    143 C67       14.6168   14.7847    4.8022 C.ar      2 RES2    0.0000
    144 H61       14.3330   14.1991    5.4679 H         2 RES2    0.0000
    145 C68       15.5884   12.0942    4.7475 C.3       2 RES2    0.0000
    146 H62       14.6711   12.0029    5.0505 H         2 RES2    0.0000
    147 H63       16.1177   12.4607    5.4727 H         2 RES2    0.0000
    148 C69       16.1417   10.7421    4.3184 C.3       2 RES2    0.0000
    149 H64       17.0146   10.8820    3.8959 H         2 RES2    0.0000
    150 C70       16.3333    9.8858    5.5289 C.3       2 RES2    0.0000
    151 H65       16.9523   10.3117    6.1269 H         2 RES2    0.0000
    152 H66       16.6789    9.0311    5.2653 H         2 RES2    0.0000
    153 H67       15.4903    9.7672    5.9732 H         2 RES2    0.0000
    154 C71       15.2370   10.0957    3.3320 C.3       2 RES2    0.0000
    155 H68       15.1663   10.6524    2.5509 H         2 RES2    0.0000
    156 H69       14.3691    9.9786    3.7225 H         2 RES2    0.0000
    157 H70       15.5941    9.2395    3.0830 H         2 RES2    0.0000
    158 C72       13.4198   16.4881    6.0576 C.2       2 RES2    0.0000
    159 C73       12.4398   18.2173    7.3682 C.3       2 RES2    0.0000
    160 H71       12.7542   17.9816    8.2555 H         2 RES2    0.0000
    161 H72       11.5737   17.8037    7.2230 H         2 RES2    0.0000
    162 C74       12.3477   19.6865    7.2205 C.3       2 RES2    0.0000
    163 H73       11.7287   20.0363    7.8649 H         2 RES2    0.0000
    164 H74       12.0426   19.9010    6.3344 H         2 RES2    0.0000
    165 H75       13.2129   20.0774    7.3621 H         2 RES2    0.0000
    166 C75       14.9658   19.2546    3.0666 C.3       2 RES2    0.0000
    167 H76       14.6414   19.0234    2.1823 H         2 RES2    0.0000
    168 H77       15.9352   19.2120    3.0610 H         2 RES2    0.0000
    169 C76       14.5096   20.6538    3.4384 C.3       2 RES2    0.0000
    170 H78       14.8856   21.2713    2.7754 H         2 RES2    0.0000
    171 C77       15.0364   21.0736    4.8039 C.3       2 RES2    0.0000
    172 H79       14.7259   21.9588    5.0065 H         2 RES2    0.0000
    173 H80       15.9958   21.0645    4.7917 H         2 RES2    0.0000
    174 H81       14.7165   20.4607    5.4703 H         2 RES2    0.0000
    175 C78       13.0096   20.7770    3.3686 C.3       2 RES2    0.0000
    176 H82       12.7499   21.6652    3.6200 H         2 RES2    0.0000
    177 H83       12.6089   20.1428    3.9666 H         2 RES2    0.0000
    178 H84       12.7162   20.6006    2.4703 H         2 RES2    0.0000
    179 N8        19.4267   12.6219    3.8956 N.pl3     2 RES2    0.0000
    180 N9        23.2135   10.5718    0.2836 N.pl3     2 RES2    0.0000
    181 H85       24.0464   10.4531    0.4638 H         2 RES2    0.0000
    182 N10       24.7603    8.8988   -1.6411 N.pl3     2 RES2    0.0000
    183 N11       21.1025    9.2322   -4.7339 N.pl3     2 RES2    0.0000
    184 N12       19.5363   10.6784   -2.6919 N.pl3     2 RES2    0.0000
    185 H86       19.1490   10.4820   -3.4345 H         2 RES2    0.0000
    186 O10       25.2045    8.0577   -2.4234 O.2       2 RES2    0.0000
    187 O11       25.3679    9.2699   -0.6371 O.2       2 RES2    0.0000
    188 O12       21.7248    8.4227   -5.4315 O.2       2 RES2    0.0000
    189 O13       20.0548    9.7497   -5.1366 O.2       2 RES2    0.0000
    190 C79       19.1869   13.4873   -3.0491 C.3       2 RES2    0.0000
    191 H87       19.6033   12.8501   -3.6322 H         2 RES2    0.0000
    192 H88       19.8316   14.1505   -2.7876 H         2 RES2    0.0000
    193 H89       18.4601   13.9132   -3.5077 H         2 RES2    0.0000
    194 C80       18.4695    9.2349   -0.3781 C.3       2 RES2    0.0000
    195 H90       18.9158    8.8592   -1.1400 H         2 RES2    0.0000
    196 H91       17.5980    8.8425   -0.2905 H         2 RES2    0.0000
    197 H92       18.9814    9.0554    0.4150 H         2 RES2    0.0000
    198 O14       16.5831   15.5842    0.5360 O.2       2 RES2    0.0000
    199 O15       15.6504   12.9470    3.6090 O.3       2 RES2    0.0000
    200 O16       12.7552   15.6624    6.6476 O.2       2 RES2    0.0000
    201 O17       13.3983   17.7770    6.3479 O.3       2 RES2    0.0000
    202 O18       14.4376   18.3437    4.0396 O.3       2 RES2    0.0000
@<TRIPOS>BOND
     1    1    2 ar
     2    2    3 1
     3    4    2 ar
     4    5    4 ar
     5    6    5 ar
     6    7    1 ar
     7    8    7 1
     8    9    4 1
     9   10    9 1
    10   11    9 1
    11   12    9 1
    12   13    6 1
    13   14   13 1
    14   15   13 1
    15   16   13 1
    16   17   18 ar
    17   18   19 ar
    18   19   20 1
    19   21   19 ar
    20   22   21 ar
    21   23   17 ar
    22   24   23 1
    23   25   26 ar
    24   26   27 ar
    25   27   28 1
    26   29   27 ar
    27   30   29 ar
    28   31   30 1
    29   32   25 ar
    30   33   29 1
    31   34   33 1
    32   35   33 1
    33   36   35 1
    34   37   36 ar
    35   38   37 ar
    36   39   38 1
    37   40   38 ar
    38   41   40 ar
    39   42   36 ar
    40   43   42 1
    41   44   45 1
    42   46   44 1
    43   47   44 1
    44   48   47 1
    45   49   47 1
    46   50   49 1
    47   51   49 1
    48   52   49 1
    49   53   47 1
    50   54   53 1
    51   55   53 1
    52   56   53 1
    53   57   40 1
    54   58   59 1
    55   60   58 1
    56   61   58 1
    57   62   61 1
    58   63   61 1
    59   64   61 1
    60   65   66 1
    61   67   65 1
    62   68   65 1
    63   69   68 1
    64   70   68 1
    65   71   70 1
    66   72   70 1
    67   73   70 1
    68   74   68 1
    69   75   74 1
    70   76   74 1
    71   77   74 1
    72   78    1 1
    73   79    5 1
    74   80   79 1
    75   81   18 1
    76   82   21 1
    77   83   22 1
    78   84   83 1
    79   85   81 2
    80   86   81 2
    81   87   82 2
    82   88   82 2
    83   89   32 1
    84   90   89 1
    85   91   89 1
    86   92   89 1
    87   93   26 1
    88   94   93 1
    89   95   93 1
    90   96   93 1
    91   97   35 2
    92   98   37 1
    93   99   57 2
    94  100   57 1
    95  101   41 1
    96  102  103 ar
    97  103  104 1
    98  105  103 ar
    99  106  105 ar
   100  107  106 ar
   101  108  102 ar
   102  109  108 1
   103  110  105 1
   104  111  110 1
   105  112  110 1
   106  113  110 1
   107  114  107 1
   108  115  114 1
   109  116  114 1
   110  117  114 1
   111  118  119 ar
   112  119  120 ar
   113  120  121 1
   114  122  120 ar
   115  123  122 ar
   116  124  118 ar
   117  125  124 1
   118  126  127 ar
   119  127  128 ar
   120  128  129 1
   121  130  128 ar
   122  131  130 ar
   123  132  131 1
   124  133  126 ar
   125  134  130 1
   126  135  134 1
   127  136  134 1
   128  137  138 ar
   129  138  136 1
   130  139  138 ar
   131  140  139 1
   132  141  139 ar
   133  142  141 ar
   134  143  137 ar
   135  144  143 1
   136  145  146 1
   137  147  145 1
   138  148  145 1
   139  149  148 1
   140  150  148 1
   141  151  150 1
   142  152  150 1
   143  153  150 1
   144  154  148 1
   145  155  154 1
   146  156  154 1
   147  157  154 1
   148  158  142 1
   149  159  160 1
   150  161  159 1
   151  162  159 1
   152  163  162 1
   153  164  162 1
   154  165  162 1
   155  166  167 1
   156  168  166 1
   157  169  166 1
   158  170  169 1
   159  171  169 1
   160  172  171 1
   161  173  171 1
   162  174  171 1
   163  175  169 1
   164  176  175 1
   165  177  175 1
   166  178  175 1
   167  179  102 1
   168  180  106 1
   169  181  180 1
   170  182  119 1
   171  183  122 1
   172  184  123 1
   173  185  184 1
   174  186  182 2
   175  187  182 2
   176  188  183 2
   177  189  183 2
   178  190  133 1
   179  191  190 1
   180  192  190 1
   181  193  190 1
   182  194  127 1
   183  195  194 1
   184  196  194 1
   185  197  194 1
   186  198  136 2
   187  199  137 1
   188  200  158 2
   189  201  158 1
   190  202  141 1
   191    6    7 ar
   192   17   79 1
   193   22   23 ar
   194   25   83 1
   195   30   32 ar
   196   41   42 ar
   197   44   98 1
   198   58  100 1
   199   65  101 1
   200  107  108 ar
   201  118  180 1
   202  123  124 ar
   203  126  184 1
   204  131  133 ar
   205  142  143 ar
   206  145  199 1
   207  159  201 1
   208  166  202 1
@<TRIPOS>SUBSTRUCTURE
     1 RES1 1
     2 RES2 102

@<TRIPOS>CRYSIN
  21.2020   15.2090   24.5060  90.0000  95.0700  90.0000  14 1

