# MOL2 file generated by ConQuest
# Please check atom types

@<TRIPOS>MOLECULE
KUMZEZ
   104   108     2
SMALL
NO_CHARGES
****
Generated from CSD

@<TRIPOS>ATOM
      1 C1         6.4287    1.8493    0.3041 C.ar      1 RES1    0.0000
      2 C2         5.8028    1.3737    1.4557 C.ar      1 RES1    0.0000
      3 C3         4.4157    1.2598    1.4224 C.ar      1 RES1    0.0000
      4 H1         3.9668    0.9522    2.1781 H         1 RES1    0.0000
      5 C4         3.6966    1.5885    0.3094 C.ar      1 RES1    0.0000
      6 H2         2.7716    1.4976    0.3094 H         1 RES1    0.0000
      7 C5         4.3422    2.0519   -0.8113 C.ar      1 RES1    0.0000
      8 H3         3.8477    2.2635   -1.5703 H         1 RES1    0.0000
      9 C6         5.7142    2.2101   -0.8261 C.ar      1 RES1    0.0000
     10 C7         6.5902    1.0014    2.6743 C.3       1 RES1    0.0000
     11 H4         6.9779    0.1312    2.5519 H         1 RES1    0.0000
     12 H5         6.0106    0.9872    3.4390 H         1 RES1    0.0000
     13 H6         7.2882    1.6462    2.8134 H         1 RES1    0.0000
     14 C8         6.4205    2.7594   -2.0462 C.3       1 RES1    0.0000
     15 H7         5.7701    3.0459   -2.6915 H         1 RES1    0.0000
     16 H8         6.9733    2.0745   -2.4314 H         1 RES1    0.0000
     17 H9         6.9686    3.5049   -1.7907 H         1 RES1    0.0000
     18 N1         7.8501    1.9449    0.2500 N.pl3     1 RES1    0.0000
     19 H10        8.2915    1.2643   -0.0356 H         1 RES1    0.0000
     20 C9         8.5455    3.0431    0.6209 C.ar      1 RES1    0.0000
     21 C10        9.9436    3.1911    0.4002 C.ar      1 RES1    0.0000
     22 C11       10.5983    4.3075    0.8552 C.ar      1 RES1    0.0000
     23 H11       11.5158    4.3837    0.7146 H         1 RES1    0.0000
     24 C12        9.9372    5.3137    1.5113 C.ar      1 RES1    0.0000
     25 C13        8.5368    5.2284    1.7391 C.ar      1 RES1    0.0000
     26 C14        7.8932    4.0902    1.2675 C.ar      1 RES1    0.0000
     27 H12        6.9729    4.0238    1.3909 H         1 RES1    0.0000
     28 N2        10.7256    2.2314   -0.3329 N.pl3     1 RES1    0.0000
     29 O1        10.1808    1.2017   -0.7469 O.2       1 RES1    0.0000
     30 O2        11.9043    2.4539   -0.5373 O.2       1 RES1    0.0000
     31 N3        10.7294    6.4554    1.9127 N.pl3     1 RES1    0.0000
     32 O3        11.9288    6.4439    1.7402 O.2       1 RES1    0.0000
     33 O4        10.1696    7.4271    2.4187 O.2       1 RES1    0.0000
     34 N4         7.8344    6.1826    2.3905 N.pl3     1 RES1    0.0000
     35 H13        8.2686    6.8445    2.7258 H         1 RES1    0.0000
     36 C15        6.4069    6.1633    2.5601 C.ar      1 RES1    0.0000
     37 C16        5.6625    6.9668    1.7222 C.ar      1 RES1    0.0000
     38 C17        4.2857    6.9866    1.8592 C.ar      1 RES1    0.0000
     39 H14        3.7751    7.5162    1.2896 H         1 RES1    0.0000
     40 C18        3.6811    6.2552    2.7997 C.ar      1 RES1    0.0000
     41 H15        2.7550    6.2917    2.8805 H         1 RES1    0.0000
     42 C19        4.3860    5.4613    3.6375 C.ar      1 RES1    0.0000
     43 H16        3.9399    4.9696    4.2906 H         1 RES1    0.0000
     44 C20        5.7883    5.3722    3.5307 C.ar      1 RES1    0.0000
     45 C21        6.3083    7.7815    0.6298 C.3       1 RES1    0.0000
     46 H17        6.8649    8.4601    1.0213 H         1 RES1    0.0000
     47 H18        5.6284    8.1968    0.0945 H         1 RES1    0.0000
     48 H19        6.8450    7.2092    0.0767 H         1 RES1    0.0000
     49 C22        6.6125    4.4955    4.3973 C.3       1 RES1    0.0000
     50 H20        6.6864    3.6267    3.9948 H         1 RES1    0.0000
     51 H21        6.1971    4.4145    5.2585 H         1 RES1    0.0000
     52 H22        7.4882    4.8765    4.4973 H         1 RES1    0.0000
     53 C23       -1.0909    2.1023    4.5044 C.ar      2 RES2    0.0000
     54 C24       -0.6522    1.4135    3.3795 C.ar      2 RES2    0.0000
     55 C25        0.4920    1.8756    2.7531 C.ar      2 RES2    0.0000
     56 H23        0.8201    1.4189    2.0111 H         2 RES2    0.0000
     57 C26        1.1511    2.9827    3.1981 C.ar      2 RES2    0.0000
     58 H24        1.9208    3.2726    2.7613 H         2 RES2    0.0000
     59 C27        0.6856    3.6605    4.2769 C.ar      2 RES2    0.0000
     60 H25        1.1286    4.4287    4.5562 H         2 RES2    0.0000
     61 C28       -0.4453    3.2334    4.9778 C.ar      2 RES2    0.0000
     62 C29       -1.3816    0.2218    2.8394 C.3       2 RES2    0.0000
     63 H26       -1.5061   -0.4216    3.5403 H         2 RES2    0.0000
     64 H27       -0.8684   -0.1739    2.1316 H         2 RES2    0.0000
     65 H28       -2.2360    0.4957    2.4999 H         2 RES2    0.0000
     66 C30       -0.9256    3.9555    6.2127 C.3       2 RES2    0.0000
     67 H29       -1.7724    4.3700    6.0320 H         2 RES2    0.0000
     68 H30       -0.2853    4.6277    6.4591 H         2 RES2    0.0000
     69 H31       -1.0228    3.3277    6.9328 H         2 RES2    0.0000
     70 N5        -2.2409    1.6339    5.2256 N.pl3     2 RES2    0.0000
     71 H32       -2.9938    2.0273    5.0942 H         2 RES2    0.0000
     72 C31       -2.1985    0.6027    6.1025 C.ar      2 RES2    0.0000
     73 C32       -3.3197    0.1927    6.8800 C.ar      2 RES2    0.0000
     74 C33       -3.2210   -0.8715    7.7382 C.ar      2 RES2    0.0000
     75 H33       -3.9564   -1.1040    8.2594 H         2 RES2    0.0000
     76 C34       -2.0665   -1.6009    7.8470 C.ar      2 RES2    0.0000
     77 C35       -0.9189   -1.2451    7.0835 C.ar      2 RES2    0.0000
     78 C36       -1.0268   -0.1235    6.2707 C.ar      2 RES2    0.0000
     79 H34       -0.2688    0.1578    5.8116 H         2 RES2    0.0000
     80 N6        -4.5991    0.8447    6.8051 N.pl3     2 RES2    0.0000
     81 O5        -4.7548    1.7916    6.0355 O.2       2 RES2    0.0000
     82 O6        -5.5047    0.4517    7.5357 O.2       2 RES2    0.0000
     83 N7        -2.0872   -2.7234    8.7432 N.pl3     2 RES2    0.0000
     84 O7        -1.1279   -3.5048    8.7546 O.2       2 RES2    0.0000
     85 O8        -3.0606   -2.8895    9.4625 O.2       2 RES2    0.0000
     86 N8         0.2389   -1.9372    7.1258 N.pl3     2 RES2    0.0000
     87 H35        0.2673   -2.6659    7.5817 H         2 RES2    0.0000
     88 C37        1.4180   -1.5086    6.4449 C.ar      2 RES2    0.0000
     89 C38        2.3048   -0.6878    7.1186 C.ar      2 RES2    0.0000
     90 C39        3.4405   -0.2795    6.4331 C.ar      2 RES2    0.0000
     91 H36        4.0660    0.2645    6.8548 H         2 RES2    0.0000
     92 C40        3.6466   -0.6778    5.1257 C.ar      2 RES2    0.0000
     93 H37        4.4106   -0.3986    4.6739 H         2 RES2    0.0000
     94 C41        2.7407   -1.4762    4.4891 C.ar      2 RES2    0.0000
     95 H38        2.8916   -1.7270    3.6060 H         2 RES2    0.0000
     96 C42        1.6143   -1.9147    5.1305 C.ar      2 RES2    0.0000
     97 C43        2.0364   -0.2520    8.5305 C.3       2 RES2    0.0000
     98 H39        1.2248    0.2603    8.5592 H         2 RES2    0.0000
     99 H40        2.7659    0.2885    8.8426 H         2 RES2    0.0000
    100 H41        1.9463   -1.0247    9.0931 H         2 RES2    0.0000
    101 C44        0.6313   -2.8183    4.4384 C.3       2 RES2    0.0000
    102 H42        0.8936   -2.9343    3.5212 H         2 RES2    0.0000
    103 H43       -0.2440   -2.4259    4.4726 H         2 RES2    0.0000
    104 H44        0.6176   -3.6719    4.8765 H         2 RES2    0.0000
@<TRIPOS>BOND
     1    1    2 ar
     2    2    3 ar
     3    3    4 1
     4    5    3 ar
     5    6    5 1
     6    7    5 ar
     7    8    7 1
     8    9    1 ar
     9   10    2 1
    10   11   10 1
    11   12   10 1
    12   13   10 1
    13   14    9 1
    14   15   14 1
    15   16   14 1
    16   17   14 1
    17   18    1 1
    18   19   18 1
    19   20   18 1
    20   21   20 ar
    21   22   21 ar
    22   23   22 1
    23   24   22 ar
    24   25   24 ar
    25   26   20 ar
    26   27   26 1
    27   28   21 1
    28   29   28 2
    29   30   28 2
    30   31   24 1
    31   32   31 2
    32   33   31 2
    33   34   25 1
    34   35   34 1
    35   36   34 1
    36   37   36 ar
    37   38   37 ar
    38   39   38 1
    39   40   38 ar
    40   41   40 1
    41   42   40 ar
    42   43   42 1
    43   44   36 ar
    44   45   37 1
    45   46   45 1
    46   47   45 1
    47   48   45 1
    48   49   44 1
    49   50   49 1
    50   51   49 1
    51   52   49 1
    52   53   54 ar
    53   54   55 ar
    54   55   56 1
    55   57   55 ar
    56   58   57 1
    57   59   57 ar
    58   60   59 1
    59   61   53 ar
    60   62   54 1
    61   63   62 1
    62   64   62 1
    63   65   62 1
    64   66   61 1
    65   67   66 1
    66   68   66 1
    67   69   66 1
    68   70   53 1
    69   71   70 1
    70   72   70 1
    71   73   72 ar
    72   74   73 ar
    73   75   74 1
    74   76   74 ar
    75   77   76 ar
    76   78   72 ar
    77   79   78 1
    78   80   73 1
    79   81   80 2
    80   82   80 2
    81   83   76 1
    82   84   83 2
    83   85   83 2
    84   86   77 1
    85   87   86 1
    86   88   86 1
    87   89   88 ar
    88   90   89 ar
    89   91   90 1
    90   92   90 ar
    91   93   92 1
    92   94   92 ar
    93   95   94 1
    94   96   88 ar
    95   97   89 1
    96   98   97 1
    97   99   97 1
    98  100   97 1
    99  101   96 1
   100  102  101 1
   101  103  101 1
   102  104  101 1
   103    7    9 ar
   104   25   26 ar
   105   42   44 ar
   106   59   61 ar
   107   77   78 ar
   108   94   96 ar
@<TRIPOS>SUBSTRUCTURE
     1 RES1 1
     2 RES2 53

@<TRIPOS>CRYSIN
  11.9493   13.2285   15.9117 103.0660 112.6280 104.6440   2 1

