# MOL2 file generated by ConQuest
# Please check atom types

@<TRIPOS>MOLECULE
KUNDOM
    24    25     1
SMALL
NO_CHARGES
****
Generated from CSD

@<TRIPOS>ATOM
      1 C1         6.1891    2.5123    5.6914 C.2       1 RES1    0.0000
      2 C2         7.4349    2.1234    5.0235 C.ar      1 RES1    0.0000
      3 C3         8.7519    2.1595    5.4988 C.ar      1 RES1    0.0000
      4 C4         9.7540    1.7546    4.6374 C.ar      1 RES1    0.0000
      5 C5         9.4789    1.3366    3.3358 C.ar      1 RES1    0.0000
      6 C6         8.1639    1.3004    2.8762 C.ar      1 RES1    0.0000
      7 C7         7.1371    1.6992    3.7369 C.ar      1 RES1    0.0000
      8 C8         5.6621    1.7597    3.4433 C.3       1 RES1    0.0000
      9 C9         5.0278    2.2605    4.7629 C.3       1 RES1    0.0000
     10 N1         6.1756    3.0151    6.8648 N.2       1 RES1    0.0000
     11 O1         4.8604    3.3114    7.2911 O.3       1 RES1    0.0000
     12 O2         7.7850    0.8979    1.6323 O.3       1 RES1    0.0000
     13 C10        8.8125    0.5698    0.7036 C.3       1 RES1    0.0000
     14 H1         8.9210    2.4756    6.3721 H         1 RES1    0.0000
     15 H2        10.7709    1.7759    4.9346 H         1 RES1    0.0000
     16 H3        10.1688    1.0619    2.7838 H         1 RES1    0.0000
     17 H4         5.2790    0.8416    3.1413 H         1 RES1    0.0000
     18 H5         5.4962    2.4069    2.7166 H         1 RES1    0.0000
     19 H6         4.5196    3.1074    4.6542 H         1 RES1    0.0000
     20 H7         4.3788    1.5899    5.1454 H         1 RES1    0.0000
     21 H8         5.0183    3.6959    8.0776 H         1 RES1    0.0000
     22 H9         9.4951    1.4115    0.5969 H         1 RES1    0.0000
     23 H10        9.3072   -0.1718    0.9848 H         1 RES1    0.0000
     24 H11        8.4036    0.3488   -0.0869 H         1 RES1    0.0000
@<TRIPOS>BOND
     1    1    2 1
     2    2    3 ar
     3    3    4 ar
     4    4    5 ar
     5    5    6 ar
     6    6    7 ar
     7    7    2 ar
     8    8    7 1
     9    9    1 1
    10   10    1 2
    11   11   10 1
    12   12    6 1
    13   13   12 1
    14   14    3 1
    15   15    4 1
    16   16    5 1
    17   17    8 1
    18   18    8 1
    19   19    9 1
    20   20    9 1
    21   21   11 1
    22   22   13 1
    23   23   13 1
    24   24   13 1
    25    8    9 1
@<TRIPOS>SUBSTRUCTURE
     1 RES1 1

@<TRIPOS>CRYSIN
  14.4220    7.4680    8.2700  90.0000  97.4700  90.0000 231 1

