# MOL2 file generated by ConQuest
# Please check atom types

@<TRIPOS>MOLECULE
KUNLAG
    36    37     1
SMALL
NO_CHARGES
****
Generated from CSD

@<TRIPOS>ATOM
      1 N1         4.7606    1.9288    1.7050 N.ar      1 RES1    0.0000
      2 C1         5.0526    2.5308    0.5525 C.ar      1 RES1    0.0000
      3 C2         5.7989    1.9614   -0.4513 C.ar      1 RES1    0.0000
      4 C3         6.2727    0.6691   -0.2553 C.ar      1 RES1    0.0000
      5 C4         5.9745    0.0326    0.9291 C.ar      1 RES1    0.0000
      6 C5         5.2229    0.6806    1.8792 C.ar      1 RES1    0.0000
      7 N2         4.5534    3.8557    0.5133 N.am      1 RES1    0.0000
      8 C6         4.4604    4.6782   -0.5425 C.2       1 RES1    0.0000
      9 C7         3.9463    6.0702   -0.2589 C.3       1 RES1    0.0000
     10 C8         2.4542    6.1718   -0.5060 C.ar      1 RES1    0.0000
     11 C9         1.5771    6.2466    0.5489 C.ar      1 RES1    0.0000
     12 C10        0.2188    6.3520    0.3036 C.ar      1 RES1    0.0000
     13 C11       -0.2929    6.3750   -0.9720 C.ar      1 RES1    0.0000
     14 C12        0.5795    6.3194   -2.0251 C.ar      1 RES1    0.0000
     15 C13        1.9610    6.2140   -1.8145 C.ar      1 RES1    0.0000
     16 C14        7.0967   -0.0019   -1.3303 C.3       1 RES1    0.0000
     17 C15        4.9005    0.0556    3.2150 C.3       1 RES1    0.0000
     18 O1         4.7573    4.3350   -1.6859 O.2       1 RES1    0.0000
     19 N3        -0.6903    6.4786    1.4406 N.pl3     1 RES1    0.0000
     20 O2        -0.2206    6.6569    2.5494 O.2       1 RES1    0.0000
     21 O3        -1.8864    6.4019    1.2309 O.2       1 RES1    0.0000
     22 H1         6.0197    2.4158   -1.2947 H         1 RES1    0.0000
     23 H2         6.3340   -0.9203    1.1215 H         1 RES1    0.0000
     24 H3         4.2036    4.2564    1.3494 H         1 RES1    0.0000
     25 H4         4.4312    6.7106   -0.8753 H         1 RES1    0.0000
     26 H5         4.0976    6.2696    0.6656 H         1 RES1    0.0000
     27 H6         1.8357    6.2696    1.4862 H         1 RES1    0.0000
     28 H7        -1.3647    6.3654   -0.9756 H         1 RES1    0.0000
     29 H8         0.2870    6.3271   -2.9177 H         1 RES1    0.0000
     30 H9         2.6042    6.2121   -2.5165 H         1 RES1    0.0000
     31 H10        7.6760    0.5368   -1.7871 H         1 RES1    0.0000
     32 H11        7.6196   -0.6902   -0.8753 H         1 RES1    0.0000
     33 H12        6.6669   -0.5944   -1.7324 H         1 RES1    0.0000
     34 H13        4.1938    0.4985    3.6380 H         1 RES1    0.0000
     35 H14        4.4938   -0.7477    3.1001 H         1 RES1    0.0000
     36 H15        5.6816   -0.2492    3.5560 H         1 RES1    0.0000
@<TRIPOS>BOND
     1    1    2 ar
     2    2    3 ar
     3    3    4 ar
     4    4    5 ar
     5    5    6 ar
     6    6    1 ar
     7    7    2 1
     8    8    7 1
     9    9    8 1
    10   10    9 1
    11   11   10 ar
    12   12   11 ar
    13   13   12 ar
    14   14   13 ar
    15   15   10 ar
    16   16    4 1
    17   17    6 1
    18   18    8 2
    19   19   12 1
    20   20   19 2
    21   21   19 2
    22   22    3 1
    23   23    5 1
    24   24    7 1
    25   25    9 1
    26   26    9 1
    27   27   11 1
    28   28   13 1
    29   29   14 1
    30   30   15 1
    31   31   16 1
    32   32   16 1
    33   33   16 1
    34   34   17 1
    35   35   17 1
    36   36   17 1
    37   14   15 ar
@<TRIPOS>SUBSTRUCTURE
     1 RES1 1

@<TRIPOS>CRYSIN
   8.5940   19.1730    9.3400  90.0000 102.5200  90.0000  14 1

