# MOL2 file generated by ConQuest
# Please check atom types

@<TRIPOS>MOLECULE
KUPBOO
    82    74     3
SMALL
NO_CHARGES
****
Generated from CSD

@<TRIPOS>ATOM
      1 C1         7.3202    5.7203   -2.5867 C.3       1 RES1    0.0000
      2 C2         6.2145    4.7330   -2.5025 C.3       1 RES1    0.0000
      3 H1         6.4288    4.0917   -3.0861 H         1 RES1    0.0000
      4 C3         4.8100    5.2556   -2.8354 C.3       1 RES1    0.0000
      5 C4         3.2315    3.4166   -2.5811 C.2       1 RES1    0.0000
      6 C5         1.4584    1.7171   -2.5755 C.3       1 RES1    0.0000
      7 C6         0.0331    2.1466   -2.9626 C.3       1 RES1    0.0000
      8 C7        -1.0678    1.2671   -2.4623 C.3       1 RES1    0.0000
      9 N1         7.4280    6.3877   -3.9464 N.pl3     1 RES1    0.0000
     10 N2         8.6991    5.0863   -2.3332 N.pl3     1 RES1    0.0000
     11 N3         7.2333    6.8731   -1.5907 N.pl3     1 RES1    0.0000
     12 N4         3.9736    4.2105   -3.3853 N.am      1 RES1    0.0000
     13 N5         2.4001    2.5954   -3.2432 N.am      1 RES1    0.0000
     14 N6        -1.0788    1.1182   -0.9427 N.pl3     1 RES1    0.0000
     15 N7        -1.0531   -0.1163   -3.0758 N.pl3     1 RES1    0.0000
     16 N8        -2.4687    1.8244   -2.7812 N.pl3     1 RES1    0.0000
     17 O1         7.2027    5.6619   -4.9050 O.2       1 RES1    0.0000
     18 O2         7.7292    7.5703   -3.9876 O.2       1 RES1    0.0000
     19 O3         8.7346    4.2912   -1.4158 O.2       1 RES1    0.0000
     20 O4         9.6162    5.4343   -3.0561 O.2       1 RES1    0.0000
     21 O5         8.2092    7.1228   -0.9118 O.2       1 RES1    0.0000
     22 O6         6.1631    7.4426   -1.5702 O.2       1 RES1    0.0000
     23 O7         3.3221    3.4672   -1.3523 O.2       1 RES1    0.0000
     24 O8        -0.7470    2.1079   -0.3236 O.2       1 RES1    0.0000
     25 O9        -1.4266    0.0592   -0.4807 O.2       1 RES1    0.0000
     26 O10       -0.1347   -0.8167   -2.7625 O.2       1 RES1    0.0000
     27 O11       -1.9433   -0.3782   -3.8548 O.2       1 RES1    0.0000
     28 O12       -3.3797    1.4984   -2.0443 O.2       1 RES1    0.0000
     29 O13       -2.5323    2.5489   -3.7491 O.2       1 RES1    0.0000
     30 H2         6.3431    4.3651   -1.6459 H         1 RES1    0.0000
     31 H3         1.5062    1.8195   -1.5337 H         1 RES1    0.0000
     32 H4         0.0245    2.0683   -3.8248 H         1 RES1    0.0000
     33 H5         4.4083    5.5726   -2.0293 H         1 RES1    0.0000
     34 H6         4.9226    5.9601   -3.5723 H         1 RES1    0.0000
     35 H7         3.8695    4.1978   -4.0680 H         1 RES1    0.0000
     36 H8         2.4368    2.5946   -4.0960 H         1 RES1    0.0000
     37 H9         1.6041    0.6854   -2.9738 H         1 RES1    0.0000
     38 H10       -0.2204    3.0351   -2.5811 H         1 RES1    0.0000
     39 C8         5.2251    7.8196    1.9423 C.3       2 RES2    0.0000
     40 C9         6.6443    8.3507    1.9713 C.3       2 RES2    0.0000
     41 C10        6.7680    9.8234    2.3940 C.3       2 RES2    0.0000
     42 C11        9.1840   10.1988    2.2790 C.2       2 RES2    0.0000
     43 N9         4.5406    8.2120    0.7397 N.pl3     2 RES2    0.0000
     44 N10        5.3402    6.2457    1.9489 N.pl3     2 RES2    0.0000
     45 N11        4.4328    8.1712    3.1627 N.pl3     2 RES2    0.0000
     46 N12        8.0525   10.0543    3.0084 N.am      2 RES2    0.0000
     47 O14        4.5748    9.4726    0.4900 O.2       2 RES2    0.0000
     48 O15        5.9218    5.8255    0.9427 O.2       2 RES2    0.0000
     49 O16        5.0071    8.0603    4.2298 O.2       2 RES2    0.0000
     50 O17        9.1840   10.1988    1.0502 O.2       2 RES2    0.0000
     51 O18        3.8193    7.3023    0.2310 O.2       2 RES2    0.0000
     52 O19        4.7034    5.6868    2.8457 O.2       2 RES2    0.0000
     53 O20        3.2670    8.5466    2.8439 O.2       2 RES2    0.0000
     54 H11        7.0900    7.8490    2.5530 H         2 RES2    0.0000
     55 H12        7.1268    8.0325    1.2157 H         2 RES2    0.0000
     56 H13        8.1799   10.0845    3.8810 H         2 RES2    0.0000
     57 H14        6.0737    9.9907    3.0674 H         2 RES2    0.0000
     58 H15        6.6737   10.4313    1.5991 H         2 RES2    0.0000
     59 N13        4.0532    8.8974    1.5683 Du        3 SUP3    0.0000
     60 N14        4.9165    6.7026    0.8959 Du        3 SUP3    0.0000
     61 N15        4.7953    7.2697    3.2665 Du        3 SUP3    0.0000
     62 O21        3.0356    8.8688    2.1397 Du        3 SUP3    0.0000
     63 O22        3.8622    6.6088    0.3395 Du        3 SUP3    0.0000
     64 O23        4.2883    6.1845    3.3133 Du        3 SUP3    0.0000
     65 C8A       13.1429   12.5779    1.9423 C.3       2 RES2    0.0000
     66 C9A       11.7237   12.0468    1.9713 C.3       2 RES2    0.0000
     67 C10A      11.6000   10.5741    2.3940 C.3       2 RES2    0.0000
     68 N9A       13.8274   12.1855    0.7397 N.pl3     2 RES2    0.0000
     69 N10A      13.0278   14.1518    1.9489 N.pl3     2 RES2    0.0000
     70 N11A      13.9352   12.2263    3.1627 N.pl3     2 RES2    0.0000
     71 N12A      10.3154   10.3432    3.0084 N.am      2 RES2    0.0000
     72 O14A      13.7931   10.9249    0.4900 O.2       2 RES2    0.0000
     73 O15A      12.4461   14.5720    0.9427 O.2       2 RES2    0.0000
     74 O16A      13.3608   12.3372    4.2298 O.2       2 RES2    0.0000
     75 O18A      14.5486   13.0952    0.2310 O.2       2 RES2    0.0000
     76 O19A      13.6645   14.7107    2.8457 O.2       2 RES2    0.0000
     77 O20A      15.1009   11.8509    2.8439 O.2       2 RES2    0.0000
     78 H11A      11.2779   12.5485    2.5530 H         2 RES2    0.0000
     79 H12A      11.2412   12.3650    1.2157 H         2 RES2    0.0000
     80 H13A      10.1881   10.3130    3.8810 H         2 RES2    0.0000
     81 H14A      12.2943   10.4068    3.0674 H         2 RES2    0.0000
     82 H15A      11.6943    9.9662    1.5991 H         2 RES2    0.0000
@<TRIPOS>BOND
     1    1    2 1
     2    2    3 1
     3    4    2 1
     4    5   12 1
     5    6    7 1
     6    7    8 1
     7    8   14 1
     8    9    1 1
     9   10    1 1
    10   11    1 1
    11   12    4 1
    12   13    5 1
    13   14   24 2
    14   15    8 1
    15   16    8 1
    16   17    9 2
    17   18    9 2
    18   19   10 2
    19   20   10 2
    20   21   11 2
    21   22   11 2
    22   23    5 2
    23   25   14 2
    24   26   15 2
    25   27   15 2
    26   28   16 2
    27   29   16 2
    28   30    2 1
    29   31    6 1
    30   32    7 1
    31   33    4 1
    32   34    4 1
    33   35   12 1
    34   36   13 1
    35   37    6 1
    36   38    7 1
    37   39   40 1
    38   40   41 1
    39   41   46 1
    40   42   46 1
    41   43   39 1
    42   44   39 1
    43   45   39 1
    44   46   56 1
    45   47   43 2
    46   48   44 2
    47   49   45 2
    48   50   42 2
    49   51   43 2
    50   52   44 2
    51   53   45 2
    52   54   40 1
    53   55   40 1
    54   57   41 1
    55   58   41 1
    56   65   66 1
    57   66   67 1
    58   67   71 1
    59   68   65 1
    60   69   65 1
    61   70   65 1
    62   71   42 1
    63   72   68 2
    64   73   69 2
    65   74   70 2
    66   75   68 2
    67   76   69 2
    68   77   70 2
    69   78   66 1
    70   79   66 1
    71   80   71 1
    72   81   67 1
    73   82   67 1
    74    6   13 1
@<TRIPOS>SUBSTRUCTURE
     1 RES1 1
     2 RES2 39
     3 SUP3 59

@<TRIPOS>CRYSIN
  12.2453   40.7950    9.3517  90.0000  90.0000  90.0000  56 1

