# MOL2 file generated by ConQuest
# Please check atom types

@<TRIPOS>MOLECULE
KUPBUU
    80    78     2
SMALL
NO_CHARGES
****
Generated from CSD

@<TRIPOS>ATOM
      1 O1         8.0197    1.0589   10.6419 O.2       1 RES1    0.0000
      2 N1        10.2248    1.0205   10.1420 N.am      1 RES1    0.0000
      3 O2        12.1995    4.5538    8.8704 O.2       1 RES1    0.0000
      4 N2        11.1222    4.9525    8.4826 N.pl3     1 RES1    0.0000
      5 N3        10.1363    5.9394   10.4634 N.pl3     1 RES1    0.0000
      6 O3         9.7048    5.7451   11.5780 O.2       1 RES1    0.0000
      7 C1         9.1467    0.5853   10.7770 C.2       1 RES1    0.0000
      8 O4        10.6617    6.9460   10.0422 O.2       1 RES1    0.0000
      9 O5         8.3670    4.1597    7.9434 O.2       1 RES1    0.0000
     10 C2        10.0220    3.4369   10.1648 C.3       1 RES1    0.0000
     11 N4         8.6819    5.0388    8.7223 N.pl3     1 RES1    0.0000
     12 C3         9.9817    4.7724    9.4741 C.3       1 RES1    0.0000
     13 C4        10.1427    2.1866    9.2817 C.3       1 RES1    0.0000
     14 O6         8.0823    6.0558    8.9567 O.2       1 RES1    0.0000
     15 O7        10.8797    5.4842    7.4220 O.2       1 RES1    0.0000
     16 H1        10.9557    2.2088    8.7731 H         1 RES1    0.0000
     17 H2        10.9714    0.6736   10.2871 H         1 RES1    0.0000
     18 H3        10.7581    3.4796   10.7734 H         1 RES1    0.0000
     19 H4         9.2396    3.3758   10.6721 H         1 RES1    0.0000
     20 H5         9.3669    2.0957    8.6932 H         1 RES1    0.0000
     21 O8         3.1034    0.3134   10.0499 O.2       2 RES2    0.0000
     22 N5         5.3536    0.4385    9.8684 N.am      2 RES2    0.0000
     23 O9         5.1371    5.0285    7.8079 O.2       2 RES2    0.0000
     24 N6         6.4268    2.8195    6.1351 N.pl3     2 RES2    0.0000
     25 N7         4.6986    4.3373    6.9173 N.pl3     2 RES2    0.0000
     26 O10        6.6593    3.7298    5.3750 O.2       2 RES2    0.0000
     27 N8         4.0872    2.1128    6.1449 N.pl3     2 RES2    0.0000
     28 O11        2.9824    2.1127    6.6399 O.2       2 RES2    0.0000
     29 C5         5.3563    0.8146    8.4693 C.3       2 RES2    0.0000
     30 O12        3.9808    4.6894    6.0007 O.2       2 RES2    0.0000
     31 O13        7.1262    1.8718    6.3371 O.2       2 RES2    0.0000
     32 C6         5.2588    2.3377    8.3440 C.3       2 RES2    0.0000
     33 O14        4.4315    1.5720    5.1239 O.2       2 RES2    0.0000
     34 C7         4.2311    0.2132   10.5260 C.2       2 RES2    0.0000
     35 C8         5.1321    2.8722    6.9414 C.3       2 RES2    0.0000
     36 H6         6.1706    0.4766    8.0674 H         2 RES2    0.0000
     37 H7         4.4988    2.6456    8.7911 H         2 RES2    0.0000
     38 H8         6.0252    2.7632    8.7247 H         2 RES2    0.0000
     39 H9         4.5733    0.3758    8.0539 H         2 RES2    0.0000
     40 H10        6.0832    0.4537   10.2804 H         2 RES2    0.0000
     41 O1B       10.5418   -1.0589   11.8706 O.2       1 RES1    0.0000
     42 N1B        8.3368   -1.0205   12.3705 N.am      1 RES1    0.0000
     43 O2B        6.3621   -4.5538   13.6422 O.2       1 RES1    0.0000
     44 N2B        7.4394   -4.9525   14.0299 N.pl3     1 RES1    0.0000
     45 N3B        8.4253   -5.9394   12.0492 N.pl3     1 RES1    0.0000
     46 O3B        8.8567   -5.7451   10.9346 O.2       1 RES1    0.0000
     47 C1B        9.4148   -0.5853   11.7356 C.2       1 RES1    0.0000
     48 O4B        7.8998   -6.9460   12.4704 O.2       1 RES1    0.0000
     49 O5B       10.1945   -4.1597   14.5691 O.2       1 RES1    0.0000
     50 C2B        8.5395   -3.4369   12.3478 C.3       1 RES1    0.0000
     51 N4B        9.8797   -5.0388   13.7903 N.pl3     1 RES1    0.0000
     52 C3B        8.5798   -4.7724   13.0385 C.3       1 RES1    0.0000
     53 C4B        8.4189   -2.1866   13.2308 C.3       1 RES1    0.0000
     54 O6B       10.4792   -6.0558   13.5558 O.2       1 RES1    0.0000
     55 O7B        7.6818   -5.4842   15.0905 O.2       1 RES1    0.0000
     56 H1B        7.6058   -2.2088   13.7394 H         1 RES1    0.0000
     57 H2B        7.5901   -0.6736   12.2254 H         1 RES1    0.0000
     58 H3B        7.8035   -3.4796   11.7392 H         1 RES1    0.0000
     59 H4B        9.3220   -3.3758   11.8405 H         1 RES1    0.0000
     60 H5B        9.1946   -2.0957   13.8193 H         1 RES1    0.0000
     61 O8B        5.5821   -0.3134   12.4626 O.2       2 RES2    0.0000
     62 N5B        3.3319   -0.4385   12.6442 N.am      2 RES2    0.0000
     63 O9B        3.5484   -5.0285   14.7046 O.2       2 RES2    0.0000
     64 N6B        2.2587   -2.8195   16.3774 N.pl3     2 RES2    0.0000
     65 N7B        3.9869   -4.3373   15.5952 N.pl3     2 RES2    0.0000
     66 O10B       2.0262   -3.7298   17.1376 O.2       2 RES2    0.0000
     67 N8B        4.5984   -2.1128   16.3676 N.pl3     2 RES2    0.0000
     68 O11B       5.7031   -2.1127   15.8727 O.2       2 RES2    0.0000
     69 C5B        3.3293   -0.8146   14.0432 C.3       2 RES2    0.0000
     70 O12B       4.7047   -4.6894   16.5118 O.2       2 RES2    0.0000
     71 O13B       1.5593   -1.8718   16.1755 O.2       2 RES2    0.0000
     72 C6B        3.4267   -2.3377   14.1685 C.3       2 RES2    0.0000
     73 O14B       4.2540   -1.5720   17.3887 O.2       2 RES2    0.0000
     74 C7B        4.4545   -0.2132   11.9866 C.2       2 RES2    0.0000
     75 C8B        3.5534   -2.8722   15.5711 C.3       2 RES2    0.0000
     76 H6B        2.5150   -0.4766   14.4452 H         2 RES2    0.0000
     77 H7B        4.1867   -2.6456   13.7214 H         2 RES2    0.0000
     78 H8B        2.6603   -2.7632   13.7878 H         2 RES2    0.0000
     79 H9B        4.1122   -0.3758   14.4587 H         2 RES2    0.0000
     80 H10B       2.6024   -0.4537   12.2322 H         2 RES2    0.0000
@<TRIPOS>BOND
     1    1    7 2
     2    2    7 1
     3    3    4 2
     4    4   12 1
     5    5    6 2
     6    7   47 1
     7    8    5 2
     8    9   11 2
     9   10   12 1
    10   11   12 1
    11   12    5 1
    12   13    2 1
    13   14   11 2
    14   15    4 2
    15   16   13 1
    16   17    2 1
    17   18   10 1
    18   19   10 1
    19   20   13 1
    20   21   34 2
    21   22   29 1
    22   23   25 2
    23   24   26 2
    24   25   30 2
    25   27   28 2
    26   29   32 1
    27   31   24 2
    28   32   35 1
    29   33   27 2
    30   34   22 1
    31   35   24 1
    32   36   29 1
    33   37   32 1
    34   38   32 1
    35   39   29 1
    36   40   22 1
    37   41   47 2
    38   42   47 1
    39   43   44 2
    40   44   52 1
    41   45   46 2
    42   48   45 2
    43   49   51 2
    44   50   52 1
    45   51   52 1
    46   52   45 1
    47   53   42 1
    48   54   51 2
    49   55   44 2
    50   56   53 1
    51   57   42 1
    52   58   50 1
    53   59   50 1
    54   60   53 1
    55   61   74 2
    56   62   69 1
    57   63   65 2
    58   64   66 2
    59   65   70 2
    60   67   68 2
    61   69   72 1
    62   71   64 2
    63   72   75 1
    64   73   67 2
    65   74   34 1
    66   75   64 1
    67   76   69 1
    68   77   72 1
    69   78   72 1
    70   79   69 1
    71   80   62 1
    72   10   13 1
    73   25   35 1
    74   27   35 1
    75   50   53 1
    76   62   74 1
    77   65   75 1
    78   67   75 1
@<TRIPOS>SUBSTRUCTURE
     1 RES1 1
     2 RES2 21

@<TRIPOS>CRYSIN
   9.8760   15.2750   11.2720  90.0000  93.0270  90.0000  14 1

