# MOL2 file generated by ConQuest
# Please check atom types

@<TRIPOS>MOLECULE
KUPCUV
    39    32     2
SMALL
NO_CHARGES
****
Generated from CSD

@<TRIPOS>ATOM
      1 O1         4.8730    0.1538    2.0058 O.2       1 RES1    0.0000
      2 O2         4.8541    6.6175    0.0340 O.2       1 RES1    0.0000
      3 O3         4.2009    6.9197    2.0617 O.2       1 RES1    0.0000
      4 O4         1.8847    6.5837    0.0286 O.2       1 RES1    0.0000
      5 O5         1.4750    4.4634   -0.2197 O.2       1 RES1    0.0000
      6 O6         0.2006    2.7613    3.1476 O.2       1 RES1    0.0000
      7 O7         0.4731    4.8114    2.4620 O.2       1 RES1    0.0000
      8 O8         4.1402    4.2028   -1.0861 O.2       1 RES1    0.0000
      9 O9         4.6422    3.1046    0.7119 O.2       1 RES1    0.0000
     10 O10        1.5619   -0.9795    0.0487 O.2       1 RES1    0.0000
     11 O11        1.4597   -0.5004    4.0030 O.2       1 RES1    0.0000
     12 N1         0.8808    3.6731    2.7085 N.pl3     1 RES1    0.0000
     13 N2         2.1962    3.4059    2.4367 N.3       1 RES1    0.0000
     14 N3         4.2355    6.3110    1.0230 N.pl3     1 RES1    0.0000
     15 N4         2.1283    5.4052    0.1677 N.pl3     1 RES1    0.0000
     16 N5         4.1260    4.0177    0.1099 N.pl3     1 RES1    0.0000
     17 C1         3.3733    5.0410    0.9565 C.3       1 RES1    0.0000
     18 C2         3.0677    4.5594    2.3728 C.3       1 RES1    0.0000
     19 C3         2.6894    2.0771    2.8232 C.3       1 RES1    0.0000
     20 C4         2.6288   -0.3741    2.0156 C.3       1 RES1    0.0000
     21 C5         2.2172    1.0569    1.7707 C.3       1 RES1    0.0000
     22 N6         4.0733   -0.6507    1.5853 N.pl3     1 RES1    0.0000
     23 N7         1.7751   -1.3465    1.1804 N.pl3     1 RES1    0.0000
     24 N8         2.5093   -0.8345    3.4521 N.pl3     1 RES1    0.0000
     25 O12        4.3003   -1.6281    0.9198 O.2       1 RES1    0.0000
     26 O13        1.4077   -2.3601    1.7172 O.2       1 RES1    0.0000
     27 O14        3.4277   -1.4503    3.9324 O.2       1 RES1    0.0000
     28 H1         3.5778    2.1557    2.8745 H         1 RES1    0.0000
     29 H2         2.3536    1.8455    3.6415 H         1 RES1    0.0000
     30 H3         2.7398    5.2987    2.8253 H         1 RES1    0.0000
     31 H4         2.5007    1.2794    0.8894 H         1 RES1    0.0000
     32 H5         3.8948    4.3363    2.7835 H         1 RES1    0.0000
     33 H6         1.2199    1.0869    1.7161 H         1 RES1    0.0000
     34 N9         3.9370   -0.6170    2.7071 Du        2 SUP2    0.0000
     35 N10        2.5360   -1.2228    0.8256 Du        2 SUP2    0.0000
     36 N11        1.5605   -0.9443    3.0503 Du        2 SUP2    0.0000
     37 O15        4.0567   -1.4696    3.5944 Du        2 SUP2    0.0000
     38 O16        3.4582   -2.0119    0.7011 Du        2 SUP2    0.0000
     39 O17        0.9998   -1.9836    2.7249 Du        2 SUP2    0.0000
@<TRIPOS>BOND
     1    1   22 2
     2    2   14 2
     3    3   14 2
     4    4   15 2
     5    5   15 2
     6    6   12 2
     7    7   12 2
     8    8   16 2
     9    9   16 2
    10   10   23 2
    11   11   24 2
    12   12   13 1
    13   13   18 1
    14   14   17 1
    15   15   17 1
    16   16   17 1
    17   17   18 1
    18   18   30 1
    19   19   13 1
    20   20   21 1
    21   21   19 1
    22   22   20 1
    23   23   20 1
    24   24   20 1
    25   25   22 2
    26   26   23 2
    27   27   24 2
    28   28   19 1
    29   29   19 1
    30   31   21 1
    31   32   18 1
    32   33   21 1
@<TRIPOS>SUBSTRUCTURE
     1 RES1 1
     2 SUP2 34

@<TRIPOS>CRYSIN
   5.9260   11.3220   11.9577  90.0000 118.9440  90.0000   7 1

