# MOL2 file generated by ConQuest
# Please check atom types

@<TRIPOS>MOLECULE
KUPCOP
    49    30     2
SMALL
NO_CHARGES
****
Generated from CSD

@<TRIPOS>ATOM
      1 O1         4.6653    8.8481    7.2868 O.2       1 RES1    0.0000
      2 O2         6.0873    9.5819    5.8221 O.2       1 RES1    0.0000
      3 O3         7.6433    7.8877    7.7742 O.2       1 RES1    0.0000
      4 O4         7.0167    5.8134    7.7253 O.2       1 RES1    0.0000
      5 O5         7.9392    6.8999    4.9955 O.2       1 RES1    0.0000
      6 O6         6.1232    7.4901    3.9640 O.2       1 RES1    0.0000
      7 O7         4.9515    0.7468    2.8260 O.2       1 RES1    0.0000
      8 O8         3.5139   -0.2796    4.0952 O.2       1 RES1    0.0000
      9 O9         2.2760    1.7249    2.0745 O.2       1 RES1    0.0000
     10 O10        2.1254    3.6443    3.0492 O.2       1 RES1    0.0000
     11 O11        1.4167    1.6411    5.0585 O.2       1 RES1    0.0000
     12 O12        3.1797    1.6886    6.3197 O.2       1 RES1    0.0000
     13 N1         5.5440    8.7097    6.4620 N.pl3     1 RES1    0.0000
     14 N2         6.9762    6.9700    7.3633 N.pl3     1 RES1    0.0000
     15 N3         6.7713    7.2233    4.9547 N.pl3     1 RES1    0.0000
     16 N4         5.2224    5.0227    5.6300 N.3       1 RES1    0.0000
     17 N5         4.0358    0.7082    3.6202 N.pl3     1 RES1    0.0000
     18 N6         2.5432    2.5161    2.9443 N.pl3     1 RES1    0.0000
     19 N7         2.6028    1.7824    5.2575 N.pl3     1 RES1    0.0000
     20 C1         5.9846    7.2680    6.2442 C.3       1 RES1    0.0000
     21 C2         4.8084    6.3182    6.1798 C.3       1 RES1    0.0000
     22 C3         4.1301    4.3618    4.9394 C.3       1 RES1    0.0000
     23 C4         4.5970    3.0457    4.3514 C.3       1 RES1    0.0000
     24 C5         3.4899    2.0737    4.0526 C.3       1 RES1    0.0000
     25 H1         5.1607    2.6726    4.9106 H         1 RES1    0.0000
     26 H2         4.1416    6.7297    5.5630 H         1 RES1    0.0000
     27 H3         4.4078    6.2874    7.0548 H         1 RES1    0.0000
     28 H4         5.1224    3.1629    3.5772 H         1 RES1    0.0000
     29 H5         5.5390    4.4608    6.2906 H         1 RES1    0.0000
     30 H6         3.8764    4.8934    4.2749 H         1 RES1    0.0000
     31 H7         3.4741    4.2301    5.5043 H         1 RES1    0.0000
     32 O13       17.8512    7.4017    2.3069 Du        2 SUP2    0.0000
     33 O14       19.1466    9.1073    2.5513 Du        2 SUP2    0.0000
     34 O15       20.0136    9.1879   -0.3414 Du        2 SUP2    0.0000
     35 O16       21.7334    8.7687    0.9014 Du        2 SUP2    0.0000
     36 O17       21.6514    6.0211    1.3445 Du        2 SUP2    0.0000
     37 O18       20.6575    6.6701    3.1775 Du        2 SUP2    0.0000
     38 N8        18.8465    8.0419    2.0745 Du        2 SUP2    0.0000
     39 N9        20.6133    8.5630    0.5017 Du        2 SUP2    0.0000
     40 N10       20.8140    6.6268    1.9713 Du        2 SUP2    0.0000
     41 C6        19.8356    7.4036    1.1075 Du        2 SUP2    0.0000
     42 C7        18.6835    5.2914    0.5506 Du        2 SUP2    0.0000
     43 H8        17.8125    5.4443    0.9967 Du        2 SUP2    0.0000
     44 H9        19.3118    4.9242    1.2216 Du        2 SUP2    0.0000
     45 C8        19.1978    6.5537    0.0388 Du        2 SUP2    0.0000
     46 H10       18.4545    7.0604   -0.3743 Du        2 SUP2    0.0000
     47 H11       19.8665    6.3672   -0.6667 Du        2 SUP2    0.0000
     48 N11       18.6835    5.2914    0.5506 Du        2 SUP2    0.0000
     49 H12       18.5008    5.1290    1.3966 Du        2 SUP2    0.0000
@<TRIPOS>BOND
     1    1   13 2
     2    2   13 2
     3    3   14 2
     4    4   14 2
     5    5   15 2
     6    6   15 2
     7    7   17 2
     8    8   17 2
     9    9   18 2
    10   10   18 2
    11   11   19 2
    12   12   19 2
    13   13   20 1
    14   14   20 1
    15   15   20 1
    16   16   21 1
    17   17   24 1
    18   18   24 1
    19   19   24 1
    20   20   21 1
    21   21   26 1
    22   22   16 1
    23   23   22 1
    24   24   23 1
    25   25   23 1
    26   27   21 1
    27   28   23 1
    28   29   16 1
    29   30   22 1
    30   31   22 1
@<TRIPOS>SUBSTRUCTURE
     1 RES1 1
     2 SUP2 32

@<TRIPOS>CRYSIN
  18.5978    9.6138   11.5247  90.0000 106.0590  90.0000  14 1

