# MOL2 file generated by ConQuest
# Please check atom types

@<TRIPOS>MOLECULE
KUPHIO
   132   148     4
SMALL
NO_CHARGES
****
Generated from CSD

@<TRIPOS>ATOM
      1 O1         1.3888    0.0220   -3.4893 O.3       1 RES1    0.0000
      2 N1         2.5625   -0.7253   -4.0214 N.3       1 RES1    0.0000
      3 C1         2.3167   -0.6130   -2.6447 C.3       1 RES1    0.0000
      4 H1         1.9954   -1.4373   -2.1990 H         1 RES1    0.0000
      5 C2         3.1932    0.2680   -1.8160 C.ar      1 RES1    0.0000
      6 C3         4.2546    0.9370   -2.4070 C.ar      1 RES1    0.0000
      7 H2         4.4283    0.8022   -3.3205 H         1 RES1    0.0000
      8 C4         5.0594    1.7941   -1.6878 C.ar      1 RES1    0.0000
      9 H3         5.7779    2.2260   -2.1130 H         1 RES1    0.0000
     10 C5         4.8184    2.0264   -0.3360 C.ar      1 RES1    0.0000
     11 C6         5.6223    2.9170    0.4462 C.ar      1 RES1    0.0000
     12 H4         6.3505    3.3501    0.0397 H         1 RES1    0.0000
     13 C7         5.3666    3.1499    1.7393 C.ar      1 RES1    0.0000
     14 H5         5.9149    3.7462    2.2166 H         1 RES1    0.0000
     15 C8         4.2750    2.5088    2.4109 C.ar      1 RES1    0.0000
     16 C9         3.9622    2.7558    3.7420 C.ar      1 RES1    0.0000
     17 H6         4.4846    3.3647    4.2327 H         1 RES1    0.0000
     18 C10        2.9034    2.1281    4.3603 C.ar      1 RES1    0.0000
     19 H7         2.7070    2.3179    5.2595 H         1 RES1    0.0000
     20 C11        2.1242    1.2184    3.6618 C.ar      1 RES1    0.0000
     21 H8         1.4102    0.7889    4.0961 H         1 RES1    0.0000
     22 C12        2.3874    0.9303    2.3144 C.ar      1 RES1    0.0000
     23 C13        1.6029    0.0197    1.5481 C.ar      1 RES1    0.0000
     24 H9         0.8908   -0.4307    1.9654 H         1 RES1    0.0000
     25 C14        1.8490   -0.2152    0.2483 C.ar      1 RES1    0.0000
     26 H10        1.3088   -0.8262   -0.2181 H         1 RES1    0.0000
     27 C15        2.9255    0.4498   -0.4504 C.ar      1 RES1    0.0000
     28 C16        3.7417    1.3456    0.2937 C.ar      1 RES1    0.0000
     29 C17        3.4690    1.5914    1.6752 C.ar      1 RES1    0.0000
     30 C18        2.0572   -1.9857   -4.6057 C.3       1 RES1    0.0000
     31 H11        2.7651   -2.6499   -4.6029 H         1 RES1    0.0000
     32 H12        1.7676   -1.8258   -5.5173 H         1 RES1    0.0000
     33 H13        1.3091   -2.3089   -4.0807 H         1 RES1    0.0000
     34 O2         6.7476   -3.0258   14.6174 O.3       2 RES2    0.0000
     35 N2         5.6358   -3.9533   14.9889 N.3       2 RES2    0.0000
     36 C19        5.9372   -3.6503   13.6429 C.3       2 RES2    0.0000
     37 H14        6.3698   -4.3767   13.1277 H         2 RES2    0.0000
     38 C20        5.0150   -2.7633   12.8644 C.ar      2 RES2    0.0000
     39 C21        3.9682   -2.1259   13.5146 C.ar      2 RES2    0.0000
     40 H15        3.8351   -2.2829   14.4321 H         2 RES2    0.0000
     41 C22        3.1169   -1.2670   12.8488 C.ar      2 RES2    0.0000
     42 H16        2.4098   -0.8575   13.3128 H         2 RES2    0.0000
     43 C23        3.2981   -1.0024   11.4913 C.ar      2 RES2    0.0000
     44 C24        2.4462   -0.1164   10.7597 C.ar      2 RES2    0.0000
     45 H17        1.7225    0.2898   11.1998 H         2 RES2    0.0000
     46 C25        2.6534    0.1501    9.4617 C.ar      2 RES2    0.0000
     47 H18        2.0660    0.7309    9.0118 H         2 RES2    0.0000
     48 C26        3.7470   -0.4280    8.7459 C.ar      2 RES2    0.0000
     49 C27        4.0282   -0.1159    7.4155 C.ar      2 RES2    0.0000
     50 H19        3.4719    0.4862    6.9561 H         2 RES2    0.0000
     51 C28        5.1028   -0.6720    6.7615 C.ar      2 RES2    0.0000
     52 H20        5.2807   -0.4315    5.8698 H         2 RES2    0.0000
     53 C29        5.9188   -1.5777    7.3974 C.ar      2 RES2    0.0000
     54 H21        6.6423   -1.9583    6.9340 H         2 RES2    0.0000
     55 C30        5.6817   -1.9397    8.7381 C.ar      2 RES2    0.0000
     56 C31        6.4955   -2.8787    9.4432 C.ar      2 RES2    0.0000
     57 H22        7.1983   -3.3062    8.9876 H         2 RES2    0.0000
     58 C32        6.2854   -3.1655   10.7340 C.ar      2 RES2    0.0000
     59 H23        6.8441   -3.7910   11.1579 H         2 RES2    0.0000
     60 C33        5.2276   -2.5436   11.4954 C.ar      2 RES2    0.0000
     61 C34        4.3683   -1.6376   10.8047 C.ar      2 RES2    0.0000
     62 C35        4.5982   -1.3456    9.4309 C.ar      2 RES2    0.0000
     63 C36        6.2425   -5.2095   15.4529 C.3       2 RES2    0.0000
     64 H24        5.6006   -5.9308   15.3619 H         2 RES2    0.0000
     65 H25        6.4978   -5.1205   16.3843 H         2 RES2    0.0000
     66 H26        7.0287   -5.4045   14.9191 H         2 RES2    0.0000
     67 N3         5.6773    2.3460   15.1090 N.3       3 RES3    0.0000
     68 O3         4.4859    3.0610   14.5465 O.3       3 RES3    0.0000
     69 C37        5.4385    2.4250   13.7116 C.3       3 RES3    0.0000
     70 H27        5.1378    1.5855   13.2819 H         3 RES3    0.0000
     71 C38        6.2986    3.3033   12.8752 C.ar      3 RES3    0.0000
     72 C39        7.3707    3.9775   13.4606 C.ar      3 RES3    0.0000
     73 H28        7.5564    3.8435   14.3726 H         3 RES3    0.0000
     74 C40        8.1611    4.8369   12.7287 C.ar      3 RES3    0.0000
     75 H29        8.8785    5.2762   13.1497 H         3 RES3    0.0000
     76 C41        7.9175    5.0664   11.3798 C.ar      3 RES3    0.0000
     77 C42        8.7179    5.9568   10.5916 C.ar      3 RES3    0.0000
     78 H30        9.4384    6.4039   10.9970 H         3 RES3    0.0000
     79 C43        8.4681    6.1692    9.2905 C.ar      3 RES3    0.0000
     80 H31        9.0133    6.7633    8.8069 H         3 RES3    0.0000
     81 C44        7.3844    5.5070    8.6214 C.ar      3 RES3    0.0000
     82 C45        7.1074    5.6957    7.2707 C.ar      3 RES3    0.0000
     83 H32        7.6411    6.2820    6.7666 H         3 RES3    0.0000
     84 C46        6.0612    5.0355    6.6615 C.ar      3 RES3    0.0000
     85 H33        5.8894    5.1775    5.7486 H         3 RES3    0.0000
     86 C47        5.2651    4.1664    7.3804 C.ar      3 RES3    0.0000
     87 H34        4.5549    3.7248    6.9516 H         3 RES3    0.0000
     88 C48        5.5035    3.9362    8.7366 C.ar      3 RES3    0.0000
     89 C49        4.7033    3.0456    9.5142 C.ar      3 RES3    0.0000
     90 H35        3.9874    2.5964    9.1021 H         3 RES3    0.0000
     91 C50        4.9460    2.8297   10.8252 C.ar      3 RES3    0.0000
     92 H36        4.3964    2.2347   11.3011 H         3 RES3    0.0000
     93 C51        6.0224    3.4868   11.5095 C.ar      3 RES3    0.0000
     94 C52        6.8404    4.3827   10.7549 C.ar      3 RES3    0.0000
     95 C53        6.5749    4.6065    9.3716 C.ar      3 RES3    0.0000
     96 C54        5.2101    1.0991   15.7277 C.3       3 RES3    0.0000
     97 H37        4.5041    0.7150   15.1857 H         3 RES3    0.0000
     98 H38        4.8703    1.2882   16.6157 H         3 RES3    0.0000
     99 H39        5.9477    0.4735   15.7894 H         3 RES3    0.0000
    100 N4         7.2724    7.0076    4.0324 N.3       4 RES4    0.0000
    101 O4         6.0945    6.2725    3.4661 O.3       4 RES4    0.0000
    102 C55        7.0959    6.8507    2.6418 C.3       4 RES4    0.0000
    103 H40        6.8270    7.6672    2.1505 H         4 RES4    0.0000
    104 C56        7.9825    5.9140    1.8969 C.ar      4 RES4    0.0000
    105 C57        8.9855    5.2244    2.5689 C.ar      4 RES4    0.0000
    106 H41        9.1006    5.3634    3.4923 H         4 RES4    0.0000
    107 C58        9.8160    4.3367    1.9092 C.ar      4 RES4    0.0000
    108 H42       10.4953    3.8947    2.3841 H         4 RES4    0.0000
    109 C59        9.6575    4.0914    0.5524 C.ar      4 RES4    0.0000
    110 C60       10.5000    3.1830   -0.1756 C.ar      4 RES4    0.0000
    111 H43       11.2006    2.7496    0.2776 H         4 RES4    0.0000
    112 C61       10.3191    2.9364   -1.4745 C.ar      4 RES4    0.0000
    113 H44       10.8897    2.3318   -1.9125 H         4 RES4    0.0000
    114 C62        9.2721    3.5746   -2.2173 C.ar      4 RES4    0.0000
    115 C63        9.0438    3.3148   -3.5646 C.ar      4 RES4    0.0000
    116 H45        9.5943    2.7025   -4.0190 H         4 RES4    0.0000
    117 C64        8.0265    3.9415   -4.2408 C.ar      4 RES4    0.0000
    118 H46        7.8880    3.7500   -5.1515 H         4 RES4    0.0000
    119 C65        7.2058    4.8464   -3.6054 C.ar      4 RES4    0.0000
    120 H47        6.5155    5.2663   -4.0851 H         4 RES4    0.0000
    121 C66        7.3891    5.1470   -2.2499 C.ar      4 RES4    0.0000
    122 C67        6.5641    6.0744   -1.5465 C.ar      4 RES4    0.0000
    123 H48        5.8720    6.5117   -2.0095 H         4 RES4    0.0000
    124 C68        6.7470    6.3396   -0.2426 C.ar      4 RES4    0.0000
    125 H49        6.1837    6.9623    0.1807 H         4 RES4    0.0000
    126 C69        7.7859    5.6947    0.5246 C.ar      4 RES4    0.0000
    127 C70        8.6281    4.7707   -0.1553 C.ar      4 RES4    0.0000
    128 C71        8.4298    4.5017   -1.5375 C.ar      4 RES4    0.0000
    129 C72        6.7848    8.3002    4.5486 C.3       4 RES4    0.0000
    130 H50        7.5287    8.9147    4.6359 H         4 RES4    0.0000
    131 H51        6.3712    8.1656    5.4159 H         4 RES4    0.0000
    132 H52        6.1317    8.6684    3.9330 H         4 RES4    0.0000
@<TRIPOS>BOND
     1    1    2 1
     2    2    3 1
     3    3    1 1
     4    4    3 1
     5    5    3 1
     6    6    5 ar
     7    7    6 1
     8    8    6 ar
     9    9    8 1
    10   10    8 ar
    11   11   10 ar
    12   12   11 1
    13   13   11 ar
    14   14   13 1
    15   15   13 ar
    16   16   15 ar
    17   17   16 1
    18   18   16 ar
    19   19   18 1
    20   20   18 ar
    21   21   20 1
    22   22   20 ar
    23   23   22 ar
    24   24   23 1
    25   25   23 ar
    26   26   25 1
    27   27    5 ar
    28   28   10 ar
    29   29   15 ar
    30   30    2 1
    31   31   30 1
    32   32   30 1
    33   33   30 1
    34   34   35 1
    35   35   36 1
    36   36   34 1
    37   37   36 1
    38   38   36 1
    39   39   38 ar
    40   40   39 1
    41   41   39 ar
    42   42   41 1
    43   43   41 ar
    44   44   43 ar
    45   45   44 1
    46   46   44 ar
    47   47   46 1
    48   48   46 ar
    49   49   48 ar
    50   50   49 1
    51   51   49 ar
    52   52   51 1
    53   53   51 ar
    54   54   53 1
    55   55   53 ar
    56   56   55 ar
    57   57   56 1
    58   58   56 ar
    59   59   58 1
    60   60   38 ar
    61   61   43 ar
    62   62   48 ar
    63   63   35 1
    64   64   63 1
    65   65   63 1
    66   66   63 1
    67   67   68 1
    68   68   69 1
    69   69   67 1
    70   70   69 1
    71   71   69 1
    72   72   71 ar
    73   73   72 1
    74   74   72 ar
    75   75   74 1
    76   76   74 ar
    77   77   76 ar
    78   78   77 1
    79   79   77 ar
    80   80   79 1
    81   81   79 ar
    82   82   81 ar
    83   83   82 1
    84   84   82 ar
    85   85   84 1
    86   86   84 ar
    87   87   86 1
    88   88   86 ar
    89   89   88 ar
    90   90   89 1
    91   91   89 ar
    92   92   91 1
    93   93   71 ar
    94   94   76 ar
    95   95   81 ar
    96   96   67 1
    97   97   96 1
    98   98   96 1
    99   99   96 1
   100  100  101 1
   101  101  102 1
   102  102  100 1
   103  103  102 1
   104  104  102 1
   105  105  104 ar
   106  106  105 1
   107  107  105 ar
   108  108  107 1
   109  109  107 ar
   110  110  109 ar
   111  111  110 1
   112  112  110 ar
   113  113  112 1
   114  114  112 ar
   115  115  114 ar
   116  116  115 1
   117  117  115 ar
   118  118  117 1
   119  119  117 ar
   120  120  119 1
   121  121  119 ar
   122  122  121 ar
   123  123  122 1
   124  124  122 ar
   125  125  124 1
   126  126  104 ar
   127  127  109 ar
   128  128  114 ar
   129  129  100 1
   130  130  129 1
   131  131  129 1
   132  132  129 1
   133   22   29 ar
   134   25   27 ar
   135   27   28 ar
   136   28   29 ar
   137   55   62 ar
   138   58   60 ar
   139   60   61 ar
   140   61   62 ar
   141   88   95 ar
   142   91   93 ar
   143   93   94 ar
   144   94   95 ar
   145  121  128 ar
   146  124  126 ar
   147  126  127 ar
   148  127  128 ar
@<TRIPOS>SUBSTRUCTURE
     1 RES1 1
     2 RES2 34
     3 RES3 67
     4 RES4 100

@<TRIPOS>CRYSIN
   9.8789   12.1070   23.0938 104.8550  98.8180  90.3400   2 1

