# MOL2 file generated by ConQuest
# Please check atom types

@<TRIPOS>MOLECULE
KUPJIQ
    77    80     1
SMALL
NO_CHARGES
****
Generated from CSD

@<TRIPOS>ATOM
      1 O1         8.0463   19.3909    8.4489 O.2       1 RES1    0.0000
      2 O2         9.2505   18.4553    6.7995 O.3       1 RES1    0.0000
      3 O3         8.4974   13.1115    7.7618 O.2       1 RES1    0.0000
      4 O4        11.1799   19.9970    8.4269 O.2       1 RES1    0.0000
      5 O5        12.5587   20.6501    6.7932 O.3       1 RES1    0.0000
      6 O6        16.8832   17.4254    7.3311 O.2       1 RES1    0.0000
      7 N1         8.6575   14.3523    7.4761 N.3       1 RES1    0.0000
      8 N2        15.8645   18.1727    7.1945 N.3       1 RES1    0.0000
      9 C1         8.5859   22.2655    8.6044 C.2       1 RES1    0.0000
     10 C2         9.8204   22.7384    8.5403 C.2       1 RES1    0.0000
     11 C3         8.1190   21.9993    7.2218 C.3       1 RES1    0.0000
     12 C4        10.1915   22.7937    7.0926 C.3       1 RES1    0.0000
     13 C5         8.8479   23.1192    6.4580 C.3       1 RES1    0.0000
     14 C6         8.9000   20.7750    6.6734 C.3       1 RES1    0.0000
     15 C7        10.3552   21.3032    6.5820 C.3       1 RES1    0.0000
     16 C8         8.6781   19.5015    7.4351 C.2       1 RES1    0.0000
     17 C9         9.0480   17.1531    7.4067 C.3       1 RES1    0.0000
     18 C10        7.7346   16.5860    6.9781 C.3       1 RES1    0.0000
     19 C11       10.1418   16.2482    6.9066 C.3       1 RES1    0.0000
     20 C12        7.4508   15.2101    7.5948 C.3       1 RES1    0.0000
     21 C13        7.0591   15.3473    9.0520 C.3       1 RES1    0.0000
     22 C14        6.3364   14.5181    6.8562 C.3       1 RES1    0.0000
     23 C15       10.0496   14.8498    7.5402 C.3       1 RES1    0.0000
     24 C16       10.5105   14.8498    8.9889 C.3       1 RES1    0.0000
     25 C17       10.8997   13.8773    6.7249 C.3       1 RES1    0.0000
     26 C18       11.3654   20.5579    7.4015 C.2       1 RES1    0.0000
     27 C19       13.6368   19.9028    7.3973 C.3       1 RES1    0.0000
     28 C20       13.4476   18.4327    7.1168 C.3       1 RES1    0.0000
     29 C21       14.8786   20.3798    6.7039 C.3       1 RES1    0.0000
     30 C22       14.5912   17.5728    7.6253 C.3       1 RES1    0.0000
     31 C23       14.5657   17.4336    9.1287 C.3       1 RES1    0.0000
     32 C24       14.5075   16.1786    7.0044 C.3       1 RES1    0.0000
     33 C25       16.1325   19.6469    7.1294 C.3       1 RES1    0.0000
     34 C26       16.6637   20.1198    8.4720 C.3       1 RES1    0.0000
     35 C27       17.1852   19.8577    6.0693 C.3       1 RES1    0.0000
     36 H1         8.2488   22.0914    9.7779 H         1 RES1    0.0000
     37 H2        10.6669   22.9104    9.3041 H         1 RES1    0.0000
     38 H3         7.1755   21.9768    7.1115 H         1 RES1    0.0000
     39 H4        10.9034   23.3813    6.8709 H         1 RES1    0.0000
     40 H5         8.5374   23.9853    6.6955 H         1 RES1    0.0000
     41 H6         8.8248   23.0210    5.5135 H         1 RES1    0.0000
     42 H7         8.5908   20.6214    5.7888 H         1 RES1    0.0000
     43 H8        10.6378   21.3073    5.6743 H         1 RES1    0.0000
     44 H9         9.0807   17.2248    8.3533 H         1 RES1    0.0000
     45 H10        7.0434   17.1838    7.2365 H         1 RES1    0.0000
     46 H11        7.7395   16.4979    6.0325 H         1 RES1    0.0000
     47 H12       10.0727   16.1704    5.9632 H         1 RES1    0.0000
     48 H13       10.9798   16.6351    7.1325 H         1 RES1    0.0000
     49 H14        6.2854   15.8919    9.1371 H         1 RES1    0.0000
     50 H15        7.7795   15.7466    9.5268 H         1 RES1    0.0000
     51 H16        6.8821   14.4854    9.4102 H         1 RES1    0.0000
     52 H17        5.5372   15.0279    6.9277 H         1 RES1    0.0000
     53 H18        6.1969   13.6562    7.2313 H         1 RES1    0.0000
     54 H19        6.5753   14.4301    5.9411 H         1 RES1    0.0000
     55 H20        9.9526   15.4313    9.4911 H         1 RES1    0.0000
     56 H21       10.4510   13.9694    9.3419 H         1 RES1    0.0000
     57 H22       11.4103   15.1508    9.0404 H         1 RES1    0.0000
     58 H23       10.5966   13.8998    5.8245 H         1 RES1    0.0000
     59 H24       10.7991   12.9989    7.0705 H         1 RES1    0.0000
     60 H25       11.8153   14.1271    6.7575 H         1 RES1    0.0000
     61 H26       13.6841   20.0727    8.3313 H         1 RES1    0.0000
     62 H27       12.6460   18.1420    7.5360 H         1 RES1    0.0000
     63 H28       13.3724   18.3181    6.1765 H         1 RES1    0.0000
     64 H29       14.7513   20.2590    5.7709 H         1 RES1    0.0000
     65 H30       14.9950   21.3032    6.8909 H         1 RES1    0.0000
     66 H31       13.7411   17.0385    9.3882 H         1 RES1    0.0000
     67 H32       15.2837   16.8829    9.4186 H         1 RES1    0.0000
     68 H33       14.6446   18.2935    9.5258 H         1 RES1    0.0000
     69 H34       14.5281   16.2707    6.0588 H         1 RES1    0.0000
     70 H35       13.6962   15.7568    7.2628 H         1 RES1    0.0000
     71 H36       15.2436   15.6503    7.2870 H         1 RES1    0.0000
     72 H37       16.0246   19.9314    9.1497 H         1 RES1    0.0000
     73 H38       17.4689   19.6509    8.6590 H         1 RES1    0.0000
     74 H39       16.8371   21.0534    8.4489 H         1 RES1    0.0000
     75 H40       16.8638   19.5322    5.2372 H         1 RES1    0.0000
     76 H41       17.9698   19.3807    6.3141 H         1 RES1    0.0000
     77 H42       17.3877   20.7832    5.9905 H         1 RES1    0.0000
@<TRIPOS>BOND
     1    1   16 2
     2    2   16 1
     3    3    7 1
     4    4   26 2
     5    5   26 1
     6    6    8 1
     7    7   20 1
     8    8   30 1
     9    9   10 2
    10   10   12 1
    11   11    9 1
    12   12   13 1
    13   13   11 1
    14   14   11 1
    15   15   12 1
    16   16   14 1
    17   17    2 1
    18   18   17 1
    19   19   17 1
    20   20   18 1
    21   21   20 1
    22   22   20 1
    23   23    7 1
    24   24   23 1
    25   25   23 1
    26   26   15 1
    27   27    5 1
    28   28   27 1
    29   29   27 1
    30   30   28 1
    31   31   30 1
    32   32   30 1
    33   33    8 1
    34   34   33 1
    35   35   33 1
    36   36    9 1
    37   37   10 1
    38   38   11 1
    39   39   12 1
    40   40   13 1
    41   41   13 1
    42   42   14 1
    43   43   15 1
    44   44   17 1
    45   45   18 1
    46   46   18 1
    47   47   19 1
    48   48   19 1
    49   49   21 1
    50   50   21 1
    51   51   21 1
    52   52   22 1
    53   53   22 1
    54   54   22 1
    55   55   24 1
    56   56   24 1
    57   57   24 1
    58   58   25 1
    59   59   25 1
    60   60   25 1
    61   61   27 1
    62   62   28 1
    63   63   28 1
    64   64   29 1
    65   65   29 1
    66   66   31 1
    67   67   31 1
    68   68   31 1
    69   69   32 1
    70   70   32 1
    71   71   32 1
    72   72   34 1
    73   73   34 1
    74   74   34 1
    75   75   35 1
    76   76   35 1
    77   77   35 1
    78   14   15 1
    79   19   23 1
    80   29   33 1
@<TRIPOS>SUBSTRUCTURE
     1 RES1 1

@<TRIPOS>CRYSIN
  12.1270   20.4740   10.5060  90.0000  90.0000  90.0000  19 1

