# MOL2 file generated by ConQuest
# Please check atom types

@<TRIPOS>MOLECULE
KUQKEN
    35    37     1
SMALL
NO_CHARGES
****
Generated from CSD

@<TRIPOS>ATOM
      1 N1        -1.4905    1.2252    7.3590 N.am      1 RES1    0.0000
      2 H1        -2.2541    1.5843    7.1106 H         1 RES1    0.0000
      3 C1        -0.3080    1.8413    7.2753 C.2       1 RES1    0.0000
      4 C2         0.7817    0.8730    7.7695 C.3       1 RES1    0.0000
      5 C3        -0.0331   -0.3050    8.2020 C.ar      1 RES1    0.0000
      6 C4         0.3409   -1.5174    8.7386 C.ar      1 RES1    0.0000
      7 H2         1.2479   -1.6950    8.9574 H         1 RES1    0.0000
      8 C5        -0.6419   -2.4708    8.9510 C.ar      1 RES1    0.0000
      9 H3        -0.4103   -3.3097    9.3319 H         1 RES1    0.0000
     10 C6        -1.9524   -2.2132    8.6164 C.ar      1 RES1    0.0000
     11 H4        -2.6077   -2.8854    8.7618 H         1 RES1    0.0000
     12 C7        -2.3379   -1.0082    8.0784 C.ar      1 RES1    0.0000
     13 H5        -3.2426   -0.8364    7.8442 H         1 RES1    0.0000
     14 C8        -1.3619   -0.0692    7.8944 C.ar      1 RES1    0.0000
     15 O1        -0.0998    2.9503    6.7989 O.2       1 RES1    0.0000
     16 O2         1.5382    0.4944    6.6318 O.3       1 RES1    0.0000
     17 H6         2.0661    1.1426    6.4298 H         1 RES1    0.0000
     18 C9         1.7234    1.4759    8.7953 C.3       1 RES1    0.0000
     19 H7         2.3711    0.7773    9.0655 H         1 RES1    0.0000
     20 H8         2.2373    2.1979    8.3538 H         1 RES1    0.0000
     21 C10        1.1090    2.0379   10.0308 C.2       1 RES1    0.0000
     22 O3        -0.0938    2.0828   10.1865 O.2       1 RES1    0.0000
     23 C11        2.0421    2.5858   11.0655 C.ar      1 RES1    0.0000
     24 C12        3.4016    2.5694   10.8789 C.ar      1 RES1    0.0000
     25 H9         3.7627    2.1880   10.0874 H         1 RES1    0.0000
     26 C13        4.2509    3.1033   11.8325 C.ar      1 RES1    0.0000
     27 H10        5.1920    3.0984   11.7051 H         1 RES1    0.0000
     28 C14        3.6977    3.6394   12.9625 C.ar      1 RES1    0.0000
     29 C15        2.3420    3.6592   13.1890 C.ar      1 RES1    0.0000
     30 H11        1.9873    4.0270   13.9895 H         1 RES1    0.0000
     31 C16        1.5137    3.1339   12.2289 C.ar      1 RES1    0.0000
     32 H12        0.5730    3.1449   12.3602 H         1 RES1    0.0000
     33 N2         4.6054    4.1815   13.9776 N.pl3     1 RES1    0.0000
     34 O4         5.7947    4.0435   13.8279 O.2       1 RES1    0.0000
     35 O5         4.1139    4.7435   14.9304 O.2       1 RES1    0.0000
@<TRIPOS>BOND
     1    1    2 1
     2    3    1 1
     3    4    3 1
     4    5    4 1
     5    6    5 ar
     6    7    6 1
     7    8    6 ar
     8    9    8 1
     9   10    8 ar
    10   11   10 1
    11   12   10 ar
    12   13   12 1
    13   14    1 1
    14   15    3 2
    15   16    4 1
    16   17   16 1
    17   18    4 1
    18   19   18 1
    19   20   18 1
    20   21   18 1
    21   22   21 2
    22   23   21 1
    23   24   23 ar
    24   25   24 1
    25   26   24 ar
    26   27   26 1
    27   28   26 ar
    28   29   28 ar
    29   30   29 1
    30   31   23 ar
    31   32   31 1
    32   33   28 1
    33   34   33 2
    34   35   33 2
    35    5   14 ar
    36   12   14 ar
    37   29   31 ar
@<TRIPOS>SUBSTRUCTURE
     1 RES1 1

@<TRIPOS>CRYSIN
   7.0260    7.5980   13.3650  97.5400 102.6700  96.4600   2 1

