# MOL2 file generated by ConQuest
# Please check atom types

@<TRIPOS>MOLECULE
KUQMUG
   126   136     2
SMALL
NO_CHARGES
****
Generated from CSD

@<TRIPOS>ATOM
      1 O1        -2.4211    2.0463    4.6873 O.2       1 RES1    0.0000
      2 O2         0.9170    4.9344    8.9279 O.2       1 RES1    0.0000
      3 O3         0.5985    7.5386    4.8998 O.3       1 RES1    0.0000
      4 H1         0.9448    6.9760    4.4146 H         1 RES1    0.0000
      5 N1        -2.0079    3.2458    4.7334 N.pl3     1 RES1    0.0000
      6 C1        -1.2098    3.6968    5.7051 C.2       1 RES1    0.0000
      7 C2        -0.7219    2.7412    6.6605 C.2       1 RES1    0.0000
      8 H2        -0.9046    1.8367    6.5431 H         1 RES1    0.0000
      9 C3        -0.0068    3.1429    7.7154 C.2       1 RES1    0.0000
     10 H3         0.3093    2.5127    8.3222 H         1 RES1    0.0000
     11 C4         0.2818    4.5447    7.9267 C.2       1 RES1    0.0000
     12 C5        -0.1664    5.4810    6.9164 C.2       1 RES1    0.0000
     13 H4         0.0323    6.3831    7.0267 H         1 RES1    0.0000
     14 C6        -0.8643    5.0984    5.8168 C.2       1 RES1    0.0000
     15 C7        -1.2725    6.0125    4.7400 C.2       1 RES1    0.0000
     16 C8        -1.9957    5.5219    3.7413 C.2       1 RES1    0.0000
     17 H5        -2.2109    6.1089    3.0532 H         1 RES1    0.0000
     18 C9        -2.4999    4.1192    3.6124 C.3       1 RES1    0.0000
     19 C10       -4.0273    4.2430    3.7090 C.ar      1 RES1    0.0000
     20 C11       -4.6991    4.0593    4.8861 C.ar      1 RES1    0.0000
     21 H6        -4.2441    3.7488    5.6355 H         1 RES1    0.0000
     22 C12       -6.0537    4.3338    4.9675 C.ar      1 RES1    0.0000
     23 H7        -6.5023    4.1988    5.7718 H         1 RES1    0.0000
     24 C13       -6.7343    4.7952    3.8907 C.ar      1 RES1    0.0000
     25 H8        -7.6435    4.9790    3.9565 H         1 RES1    0.0000
     26 C14       -6.0840    4.9883    2.7201 C.ar      1 RES1    0.0000
     27 H9        -6.5477    5.3054    1.9793 H         1 RES1    0.0000
     28 C15       -4.7330    4.7160    2.6243 C.ar      1 RES1    0.0000
     29 H10       -4.2936    4.8535    1.8153 H         1 RES1    0.0000
     30 C16       -1.9798    3.4774    2.3202 C.ar      1 RES1    0.0000
     31 C17       -2.6561    2.4366    1.7124 C.ar      1 RES1    0.0000
     32 H11       -3.4599    2.1341    2.0710 H         1 RES1    0.0000
     33 C18       -2.1404    1.8442    0.5727 C.ar      1 RES1    0.0000
     34 H12       -2.5987    1.1395    0.1726 H         1 RES1    0.0000
     35 C19       -0.9686    2.2823    0.0292 C.ar      1 RES1    0.0000
     36 H13       -0.6389    1.8927   -0.7478 H         1 RES1    0.0000
     37 C20       -0.2823    3.2984    0.6343 C.ar      1 RES1    0.0000
     38 H14        0.5243    3.5904    0.2748 H         1 RES1    0.0000
     39 C21       -0.7808    3.8930    1.7763 C.ar      1 RES1    0.0000
     40 H15       -0.3043    4.5812    2.1839 H         1 RES1    0.0000
     41 C22       -0.8226    7.4923    4.7457 C.3       1 RES1    0.0000
     42 C23       -1.4174    8.2592    5.9167 C.ar      1 RES1    0.0000
     43 C24       -0.7005    9.2933    6.4875 C.ar      1 RES1    0.0000
     44 H16        0.1542    9.4887    6.1788 H         1 RES1    0.0000
     45 C25       -1.2412   10.0363    7.5087 C.ar      1 RES1    0.0000
     46 H17       -0.7499   10.7306    7.8832 H         1 RES1    0.0000
     47 C26       -2.4932    9.7643    7.9795 C.ar      1 RES1    0.0000
     48 H18       -2.8496   10.2690    8.6758 H         1 RES1    0.0000
     49 C27       -3.2232    8.7486    7.4258 C.ar      1 RES1    0.0000
     50 H19       -4.0794    8.5655    7.7405 H         1 RES1    0.0000
     51 C28       -2.6835    7.9917    6.3918 C.ar      1 RES1    0.0000
     52 H20       -3.1803    7.3005    6.0190 H         1 RES1    0.0000
     53 C29       -1.2015    8.1545    3.4077 C.ar      1 RES1    0.0000
     54 C30       -0.3982    7.9624    2.3094 C.ar      1 RES1    0.0000
     55 H21        0.4044    7.5052    2.4097 H         1 RES1    0.0000
     56 C31       -0.7555    8.4342    1.0593 C.ar      1 RES1    0.0000
     57 H22       -0.2029    8.2797    0.3281 H         1 RES1    0.0000
     58 C32       -1.9283    9.1307    0.8981 C.ar      1 RES1    0.0000
     59 H23       -2.1694    9.4578    0.0618 H         1 RES1    0.0000
     60 C33       -2.7258    9.3340    1.9661 C.ar      1 RES1    0.0000
     61 H24       -3.5197    9.8055    1.8643 H         1 RES1    0.0000
     62 C34       -2.3717    8.8467    3.2123 C.ar      1 RES1    0.0000
     63 H25       -2.9398    8.9904    3.9352 H         1 RES1    0.0000
     64 O4         4.5015    1.4389    7.8281 O.2       2 RES2    0.0000
     65 O5         1.8220    5.2569    3.8383 O.2       2 RES2    0.0000
     66 O6         2.2864    7.2298    8.1971 O.3       2 RES2    0.0000
     67 H26        1.8777    6.5936    8.5118 H         2 RES2    0.0000
     68 N2         4.3829    2.7066    7.8519 N.pl3     2 RES2    0.0000
     69 C35        3.7487    3.3774    6.8842 C.2       2 RES2    0.0000
     70 C36        3.2262    2.6293    5.7737 C.2       2 RES2    0.0000
     71 H27        3.3336    1.7054    5.7505 H         2 RES2    0.0000
     72 C37        2.5886    3.2435    4.7723 C.2       2 RES2    0.0000
     73 H28        2.2493    2.7387    4.0695 H         2 RES2    0.0000
     74 C38        2.4174    4.6889    4.7662 C.2       2 RES2    0.0000
     75 C39        2.9292    5.4124    5.9050 C.2       2 RES2    0.0000
     76 H29        2.8188    6.3348    5.9273 H         2 RES2    0.0000
     77 C40        3.5631    4.8170    6.9443 C.2       2 RES2    0.0000
     78 C41        4.0068    5.5198    8.1515 C.2       2 RES2    0.0000
     79 C42        4.6373    4.8263    9.0881 C.2       2 RES2    0.0000
     80 H30        4.8643    5.2880    9.8626 H         2 RES2    0.0000
     81 C43        5.0240    3.3802    9.0353 C.3       2 RES2    0.0000
     82 C44        4.4899    2.6842   10.2991 C.ar      2 RES2    0.0000
     83 C45        3.2279    3.0112   10.7451 C.ar      2 RES2    0.0000
     84 H31        2.7007    3.5981   10.2525 H         2 RES2    0.0000
     85 C46        2.7442    2.4727   11.9173 C.ar      2 RES2    0.0000
     86 H32        1.8944    2.7039   12.2169 H         2 RES2    0.0000
     87 C47        3.5112    1.5974   12.6430 C.ar      2 RES2    0.0000
     88 H33        3.1864    1.2380   13.4377 H         2 RES2    0.0000
     89 C48        4.7510    1.2594   12.1939 C.ar      2 RES2    0.0000
     90 H34        5.2665    0.6567   12.6792 H         2 RES2    0.0000
     91 C49        5.2513    1.7969   11.0295 C.ar      2 RES2    0.0000
     92 H35        6.1018    1.5625   10.7361 H         2 RES2    0.0000
     93 C50        6.5620    3.2978    8.9025 C.ar      2 RES2    0.0000
     94 C51        7.2249    2.3588    8.1749 C.ar      2 RES2    0.0000
     95 H36        6.7406    1.7305    7.6894 H         2 RES2    0.0000
     96 C52        8.6061    2.3221    8.1438 C.ar      2 RES2    0.0000
     97 H37        9.0338    1.6783    7.6254 H         2 RES2    0.0000
     98 C53        9.3416    3.1952    8.8463 C.ar      2 RES2    0.0000
     99 H38       10.2698    3.1384    8.8527 H         2 RES2    0.0000
    100 C54        8.7001    4.1640    9.5470 C.ar      2 RES2    0.0000
    101 H39        9.1951    4.7975   10.0160 H         2 RES2    0.0000
    102 C55        7.3221    4.2177    9.5722 C.ar      2 RES2    0.0000
    103 H40        6.9015    4.8921   10.0543 H         2 RES2    0.0000
    104 C56        3.6878    7.0185    8.3526 C.3       2 RES2    0.0000
    105 C57        4.1177    7.4463    9.7648 C.ar      2 RES2    0.0000
    106 C58        3.2470    7.3229   10.8150 C.ar      2 RES2    0.0000
    107 H41        2.3711    7.0475   10.6616 H         2 RES2    0.0000
    108 C59        3.6665    7.6101   12.1159 C.ar      2 RES2    0.0000
    109 H42        3.0684    7.5226   12.8220 H         2 RES2    0.0000
    110 C60        4.9380    8.0159   12.3599 C.ar      2 RES2    0.0000
    111 H43        5.2097    8.2063   13.2289 H         2 RES2    0.0000
    112 C61        5.8038    8.1428   11.3363 C.ar      2 RES2    0.0000
    113 H44        6.6747    8.4207   11.5031 H         2 RES2    0.0000
    114 C62        5.4088    7.8629   10.0420 C.ar      2 RES2    0.0000
    115 H45        6.0196    7.9552    9.3470 H         2 RES2    0.0000
    116 C63        4.3757    7.8724    7.2924 C.ar      2 RES2    0.0000
    117 C64        5.6003    7.5255    6.7653 C.ar      2 RES2    0.0000
    118 H46        6.0176    6.7462    7.0523 H         2 RES2    0.0000
    119 C65        6.2202    8.3199    5.8144 C.ar      2 RES2    0.0000
    120 H47        7.0412    8.0672    5.4586 H         2 RES2    0.0000
    121 C66        5.6175    9.4841    5.4000 C.ar      2 RES2    0.0000
    122 H48        6.0362   10.0295    4.7747 H         2 RES2    0.0000
    123 C67        4.4059    9.8327    5.9112 C.ar      2 RES2    0.0000
    124 H49        3.9960   10.6166    5.6248 H         2 RES2    0.0000
    125 C68        3.7765    9.0414    6.8471 C.ar      2 RES2    0.0000
    126 H50        2.9459    9.2917    7.1823 H         2 RES2    0.0000
@<TRIPOS>BOND
     1    1    5 1
     2    2   11 2
     3    3    4 1
     4    5    6 2
     5    6    7 1
     6    7    8 1
     7    9    7 2
     8   10    9 1
     9   11    9 1
    10   12   11 1
    11   13   12 1
    12   14    6 1
    13   15   14 1
    14   16   15 2
    15   17   16 1
    16   18    5 1
    17   19   18 1
    18   20   19 ar
    19   21   20 1
    20   22   20 ar
    21   23   22 1
    22   24   22 ar
    23   25   24 1
    24   26   24 ar
    25   27   26 1
    26   28   19 ar
    27   29   28 1
    28   30   18 1
    29   31   30 ar
    30   32   31 1
    31   33   31 ar
    32   34   33 1
    33   35   33 ar
    34   36   35 1
    35   37   35 ar
    36   38   37 1
    37   39   30 ar
    38   40   39 1
    39   41    3 1
    40   42   41 1
    41   43   42 ar
    42   44   43 1
    43   45   43 ar
    44   46   45 1
    45   47   45 ar
    46   48   47 1
    47   49   47 ar
    48   50   49 1
    49   51   42 ar
    50   52   51 1
    51   53   41 1
    52   54   53 ar
    53   55   54 1
    54   56   54 ar
    55   57   56 1
    56   58   56 ar
    57   59   58 1
    58   60   58 ar
    59   61   60 1
    60   62   53 ar
    61   63   62 1
    62   64   68 1
    63   65   74 2
    64   66   67 1
    65   68   69 2
    66   69   70 1
    67   70   71 1
    68   72   70 2
    69   73   72 1
    70   74   72 1
    71   75   74 1
    72   76   75 1
    73   77   69 1
    74   78   77 1
    75   79   78 2
    76   80   79 1
    77   81   68 1
    78   82   81 1
    79   83   82 ar
    80   84   83 1
    81   85   83 ar
    82   86   85 1
    83   87   85 ar
    84   88   87 1
    85   89   87 ar
    86   90   89 1
    87   91   82 ar
    88   92   91 1
    89   93   81 1
    90   94   93 ar
    91   95   94 1
    92   96   94 ar
    93   97   96 1
    94   98   96 ar
    95   99   98 1
    96  100   98 ar
    97  101  100 1
    98  102   93 ar
    99  103  102 1
   100  104   66 1
   101  105  104 1
   102  106  105 ar
   103  107  106 1
   104  108  106 ar
   105  109  108 1
   106  110  108 ar
   107  111  110 1
   108  112  110 ar
   109  113  112 1
   110  114  105 ar
   111  115  114 1
   112  116  104 1
   113  117  116 ar
   114  118  117 1
   115  119  117 ar
   116  120  119 1
   117  121  119 ar
   118  122  121 1
   119  123  121 ar
   120  124  123 1
   121  125  116 ar
   122  126  125 1
   123   12   14 2
   124   15   41 1
   125   16   18 1
   126   26   28 ar
   127   37   39 ar
   128   49   51 ar
   129   60   62 ar
   130   75   77 2
   131   78  104 1
   132   79   81 1
   133   89   91 ar
   134  100  102 ar
   135  112  114 ar
   136  123  125 ar
@<TRIPOS>SUBSTRUCTURE
     1 RES1 1
     2 RES2 64

@<TRIPOS>CRYSIN
  12.8819   19.3135   21.3820  90.0000  94.8300  90.0000  14 1

