# MOL2 file generated by ConQuest
# Please check atom types

@<TRIPOS>MOLECULE
KURFAF
    27    29     1
SMALL
NO_CHARGES
****
Generated from CSD

@<TRIPOS>ATOM
      1 O1         4.4280    3.3375    1.3858 O.3       1 RES1    0.0000
      2 N1         4.9353    3.0295    2.7023 N.3       1 RES1    0.0000
      3 C1         5.9863    2.0330    2.3862 C.3       1 RES1    0.0000
      4 H1         6.1593    1.4493    3.1794 H         1 RES1    0.0000
      5 C2         5.3722    1.2059    1.2395 C.3       1 RES1    0.0000
      6 H2         6.0189    1.0898    0.4992 H         1 RES1    0.0000
      7 H3         5.0846    0.3144    1.5599 H         1 RES1    0.0000
      8 C3         4.1789    2.0375    0.7964 C.3       1 RES1    0.0000
      9 H4         4.1451    2.1033   -0.2013 H         1 RES1    0.0000
     10 C4         2.8568    1.5632    1.3439 C.3       1 RES1    0.0000
     11 H5         2.1187    2.0693    0.9217 H         1 RES1    0.0000
     12 H6         2.7336    0.6030    1.1349 H         1 RES1    0.0000
     13 C5         2.8263    1.7667    2.8334 C.ar      1 RES1    0.0000
     14 C6         1.7848    1.2925    3.6148 C.ar      1 RES1    0.0000
     15 H7         1.0597    0.8382    3.2006 H         1 RES1    0.0000
     16 C7         1.7818    1.4678    4.9768 C.ar      1 RES1    0.0000
     17 H8         1.0564    1.1408    5.4955 H         1 RES1    0.0000
     18 C8         2.8333    2.1188    5.5919 C.ar      1 RES1    0.0000
     19 H9         2.8411    2.2232    6.5363 H         1 RES1    0.0000
     20 C9         3.8719    2.6167    4.8313 C.ar      1 RES1    0.0000
     21 H10        4.5916    3.0754    5.2479 H         1 RES1    0.0000
     22 C10        3.8590    2.4448    3.4632 C.ar      1 RES1    0.0000
     23 C11        7.2344    2.7440    1.9886 C.2       1 RES1    0.0000
     24 H11        7.1783    3.3884    1.2938 H         1 RES1    0.0000
     25 C12        8.4055    2.5339    2.5393 C.2       1 RES1    0.0000
     26 H12        8.4939    1.8954    3.2377 H         1 RES1    0.0000
     27 H13        9.1646    3.0199    2.2406 H         1 RES1    0.0000
@<TRIPOS>BOND
     1    1    2 1
     2    2    3 1
     3    3    4 1
     4    5    3 1
     5    6    5 1
     6    7    5 1
     7    8    1 1
     8    9    8 1
     9   10    8 1
    10   11   10 1
    11   12   10 1
    12   13   10 1
    13   14   13 ar
    14   15   14 1
    15   16   14 ar
    16   17   16 1
    17   18   16 ar
    18   19   18 1
    19   20   18 ar
    20   21   20 1
    21   22    2 1
    22   23    3 1
    23   24   23 1
    24   25   23 2
    25   26   25 1
    26   27   25 1
    27    5    8 1
    28   13   22 ar
    29   20   22 ar
@<TRIPOS>SUBSTRUCTURE
     1 RES1 1

@<TRIPOS>CRYSIN
   9.8070    7.3982   13.7380  90.0000 105.4410  90.0000 231 1

