# MOL2 file generated by ConQuest
# Please check atom types

@<TRIPOS>MOLECULE
KURHOV
    72    78     2
SMALL
NO_CHARGES
****
Generated from CSD

@<TRIPOS>ATOM
      1 N1         6.0252    4.9903    7.3041 N.3       1 RES1    0.0000
      2 C1         6.2011    5.8912    6.1493 C.3       1 RES1    0.0000
      3 H1         7.0282    5.6266    5.6532 H         1 RES1    0.0000
      4 C2         4.9641    5.5991    5.2629 C.3       1 RES1    0.0000
      5 H2         4.5400    6.4392    4.9546 H         1 RES1    0.0000
      6 H3         5.2113    5.0533    4.4743 H         1 RES1    0.0000
      7 C3         4.0439    4.8311    6.1927 C.3       1 RES1    0.0000
      8 H4         3.1103    5.1860    6.1344 H         1 RES1    0.0000
      9 C4         4.0570    3.3362    5.9991 C.3       1 RES1    0.0000
     10 H5         3.3764    2.9187    6.5830 H         1 RES1    0.0000
     11 H6         3.8331    3.1201    5.0593 H         1 RES1    0.0000
     12 C5         5.4173    2.7906    6.3340 C.ar      1 RES1    0.0000
     13 C6         5.7936    1.4909    6.0593 C.ar      1 RES1    0.0000
     14 H7         5.1693    0.9074    5.6433 H         1 RES1    0.0000
     15 C7         7.0527    1.0163    6.3696 C.ar      1 RES1    0.0000
     16 H8         7.2887    0.1185    6.1740 H         1 RES1    0.0000
     17 C8         7.9650    1.8669    6.9714 C.ar      1 RES1    0.0000
     18 H9         8.8375    1.5541    7.1779 H         1 RES1    0.0000
     19 C9         7.6115    3.1625    7.2718 C.ar      1 RES1    0.0000
     20 H10        8.2372    3.7408    7.6927 H         1 RES1    0.0000
     21 C10        6.3462    3.6226    6.9605 C.ar      1 RES1    0.0000
     22 O1         4.6037    5.0815    7.5141 O.3       1 RES1    0.0000
     23 C11        6.3258    7.3352    6.5801 C.ar      1 RES1    0.0000
     24 C12        6.4619    8.3158    5.6117 C.ar      1 RES1    0.0000
     25 H11        6.4353    8.0668    4.6957 H         1 RES1    0.0000
     26 C13        6.6351    9.6493    5.9398 C.ar      1 RES1    0.0000
     27 C14        6.6392    9.9995    7.2807 C.ar      1 RES1    0.0000
     28 H12        6.7353   10.9121    7.5287 H         1 RES1    0.0000
     29 C15        6.5058    9.0381    8.2560 C.ar      1 RES1    0.0000
     30 H13        6.5141    9.2916    9.1710 H         1 RES1    0.0000
     31 C16        6.3605    7.7064    7.9131 C.ar      1 RES1    0.0000
     32 H14        6.2855    7.0457    8.5920 H         1 RES1    0.0000
     33 C17        6.8534   10.6801    4.8696 C.3       1 RES1    0.0000
     34 H15        7.5416   10.3648    4.2471 H         1 RES1    0.0000
     35 H16        7.1447   11.5209    5.2797 H         1 RES1    0.0000
     36 H17        6.0154   10.8268    4.3824 H         1 RES1    0.0000
     37 N2         1.0264    6.7034    5.9599 N.3       2 RES2    0.0000
     38 C18        0.2636    5.8638    6.9200 C.3       2 RES2    0.0000
     39 H18        0.5262    6.1075    7.8538 H         2 RES2    0.0000
     40 C19       -1.2195    6.2613    6.6838 C.3       2 RES2    0.0000
     41 H19       -1.7626    5.4726    6.4289 H         2 RES2    0.0000
     42 H20       -1.6110    6.6738    7.4951 H         2 RES2    0.0000
     43 C20       -1.1425    7.2606    5.5485 C.3       2 RES2    0.0000
     44 H21       -1.9217    7.1405    4.9328 H         2 RES2    0.0000
     45 C21       -1.0481    8.7022    5.9892 C.3       2 RES2    0.0000
     46 H22       -1.2173    9.2963    5.2164 H         2 RES2    0.0000
     47 H23       -1.7383    8.8865    6.6749 H         2 RES2    0.0000
     48 C22        0.3146    8.9895    6.5564 C.ar      2 RES2    0.0000
     49 C23        0.6383   10.2248    7.0870 C.ar      2 RES2    0.0000
     50 H24       -0.0211   10.9073    7.1137 H         2 RES2    0.0000
     51 C24        1.9003   10.4845    7.5781 C.ar      2 RES2    0.0000
     52 H25        2.1036   11.3361    7.9467 H         2 RES2    0.0000
     53 C25        2.8637    9.5010    7.5307 C.ar      2 RES2    0.0000
     54 H26        3.7358    9.6778    7.8627 H         2 RES2    0.0000
     55 C26        2.5652    8.2627    7.0030 C.ar      2 RES2    0.0000
     56 H27        3.2310    7.5859    6.9714 H         2 RES2    0.0000
     57 C27        1.2975    8.0095    6.5208 C.ar      2 RES2    0.0000
     58 O2         0.0781    6.8998    4.8766 O.3       2 RES2    0.0000
     59 C28        0.4880    4.3933    6.7095 C.ar      2 RES2    0.0000
     60 C29        0.6197    3.5475    7.7955 C.ar      2 RES2    0.0000
     61 H28        0.6243    3.9185    8.6700 H         2 RES2    0.0000
     62 C30        0.7456    2.1713    7.6502 C.ar      2 RES2    0.0000
     63 C31        0.7391    1.6408    6.3736 C.ar      2 RES2    0.0000
     64 H29        0.8130    0.7013    6.2510 H         2 RES2    0.0000
     65 C32        0.6253    2.4738    5.2757 C.ar      2 RES2    0.0000
     66 H30        0.6328    2.1014    4.4012 H         2 RES2    0.0000
     67 C33        0.5031    3.8320    5.4338 C.ar      2 RES2    0.0000
     68 H31        0.4282    4.3923    4.6700 H         2 RES2    0.0000
     69 C34        0.8960    1.2976    8.8607 C.3       2 RES2    0.0000
     70 H32        0.8764    0.3554    8.5890 H         2 RES2    0.0000
     71 H33        0.1594    1.4736    9.4833 H         2 RES2    0.0000
     72 H34        1.7492    1.4925    9.3014 H         2 RES2    0.0000
@<TRIPOS>BOND
     1    1    2 1
     2    2    3 1
     3    4    2 1
     4    5    4 1
     5    6    4 1
     6    7    4 1
     7    8    7 1
     8    9    7 1
     9   10    9 1
    10   11    9 1
    11   12    9 1
    12   13   12 ar
    13   14   13 1
    14   15   13 ar
    15   16   15 1
    16   17   15 ar
    17   18   17 1
    18   19   17 ar
    19   20   19 1
    20   21    1 1
    21   22    1 1
    22   23    2 1
    23   24   23 ar
    24   25   24 1
    25   26   24 ar
    26   27   26 ar
    27   28   27 1
    28   29   27 ar
    29   30   29 1
    30   31   23 ar
    31   32   31 1
    32   33   26 1
    33   34   33 1
    34   35   33 1
    35   36   33 1
    36   37   38 1
    37   38   39 1
    38   40   38 1
    39   41   40 1
    40   42   40 1
    41   43   40 1
    42   44   43 1
    43   45   43 1
    44   46   45 1
    45   47   45 1
    46   48   45 1
    47   49   48 ar
    48   50   49 1
    49   51   49 ar
    50   52   51 1
    51   53   51 ar
    52   54   53 1
    53   55   53 ar
    54   56   55 1
    55   57   37 1
    56   58   37 1
    57   59   38 1
    58   60   59 ar
    59   61   60 1
    60   62   60 ar
    61   63   62 ar
    62   64   63 1
    63   65   63 ar
    64   66   65 1
    65   67   59 ar
    66   68   67 1
    67   69   62 1
    68   70   69 1
    69   71   69 1
    70   72   69 1
    71    7   22 1
    72   12   21 ar
    73   19   21 ar
    74   29   31 ar
    75   43   58 1
    76   48   57 ar
    77   55   57 ar
    78   65   67 ar
@<TRIPOS>SUBSTRUCTURE
     1 RES1 1
     2 RES2 37

@<TRIPOS>CRYSIN
  10.9966   23.6910   10.6323  90.0000 111.6610  90.0000  14 1

