# MOL2 file generated by ConQuest
# Please check atom types

@<TRIPOS>MOLECULE
KURHEL
    66    72     2
SMALL
NO_CHARGES
****
Generated from CSD

@<TRIPOS>ATOM
      1 N1         5.7404    7.6147   12.5402 N.3       1 RES1    0.0000
      2 C1         6.9226    8.4214   12.8330 C.3       1 RES1    0.0000
      3 H1         7.0074    8.5432   13.8205 H         1 RES1    0.0000
      4 C2         8.0997    7.5392   12.3125 C.3       1 RES1    0.0000
      5 H2         8.7574    8.0784   11.8064 H         1 RES1    0.0000
      6 H3         8.5604    7.0798   13.0572 H         1 RES1    0.0000
      7 C3         7.3797    6.5374   11.3991 C.3       1 RES1    0.0000
      8 H4         7.8442    6.4597   10.5165 H         1 RES1    0.0000
      9 C4         7.1830    5.1915   12.0183 C.3       1 RES1    0.0000
     10 H5         8.0528    4.8421   12.3372 H         1 RES1    0.0000
     11 H6         6.8279    4.5628   11.3415 H         1 RES1    0.0000
     12 C5         6.2215    5.2853   13.1745 C.ar      1 RES1    0.0000
     13 C6         5.9364    4.2080   13.9871 C.ar      1 RES1    0.0000
     14 H7         6.3065    3.3550   13.7916 H         1 RES1    0.0000
     15 C7         5.1163    4.3644   15.0815 C.ar      1 RES1    0.0000
     16 H8         4.9269    3.6170   15.6370 H         1 RES1    0.0000
     17 C8         4.5724    5.5808   15.3778 C.ar      1 RES1    0.0000
     18 H9         4.0336    5.6854   16.1533 H         1 RES1    0.0000
     19 C9         4.8050    6.6495   14.5569 C.ar      1 RES1    0.0000
     20 H10        4.4220    7.4972   14.7524 H         1 RES1    0.0000
     21 C10        5.6021    6.4824   13.4419 C.ar      1 RES1    0.0000
     22 O1         6.0592    7.1100   11.2401 O.3       1 RES1    0.0000
     23 C11        6.8401    9.7608   12.1685 C.ar      1 RES1    0.0000
     24 C12        7.8711   10.6699   12.3392 C.ar      1 RES1    0.0000
     25 H11        8.6342   10.4229   12.8474 H         1 RES1    0.0000
     26 C13        7.8058   11.9241   11.7817 C.ar      1 RES1    0.0000
     27 H12        8.5100   12.5463   11.9216 H         1 RES1    0.0000
     28 C14        6.7053   12.2746   11.0164 C.ar      1 RES1    0.0000
     29 H13        6.6610   13.1373   10.6235 H         1 RES1    0.0000
     30 C15        5.6866   11.3892   10.8272 C.ar      1 RES1    0.0000
     31 H14        4.9393   11.6329   10.2923 H         1 RES1    0.0000
     32 C16        5.7415   10.1404   11.4073 C.ar      1 RES1    0.0000
     33 H15        5.0207    9.5332   11.2859 H         1 RES1    0.0000
     34 N2         8.2423    4.5973    7.5467 N.3       2 RES2    0.0000
     35 C17        7.4278    3.4186    7.2497 C.3       2 RES2    0.0000
     36 H16        7.3334    3.3183    6.2601 H         2 RES2    0.0000
     37 C18        8.2593    2.2485    7.8092 C.3       2 RES2    0.0000
     38 H17        7.6870    1.6058    8.3009 H         2 RES2    0.0000
     39 H18        8.7363    1.7697    7.0851 H         2 RES2    0.0000
     40 C19        9.2428    2.9462    8.7535 C.3       2 RES2    0.0000
     41 H19        9.2737    2.4858    9.6402 H         2 RES2    0.0000
     42 C20       10.6354    3.1091    8.1816 C.3       2 RES2    0.0000
     43 H20       11.2374    3.4919    8.8687 H         2 RES2    0.0000
     44 H21       10.9926    2.2259    7.9121 H         2 RES2    0.0000
     45 C21       10.5789    4.0128    6.9987 C.ar      2 RES2    0.0000
     46 C22       11.6653    4.2058    6.1635 C.ar      2 RES2    0.0000
     47 H22       12.4991    3.8111    6.3897 H         2 RES2    0.0000
     48 C23       11.5648    4.9575    5.0176 C.ar      2 RES2    0.0000
     49 H23       12.3218    5.0750    4.4560 H         2 RES2    0.0000
     50 C24       10.3611    5.5377    4.6864 C.ar      2 RES2    0.0000
     51 H24       10.2786    6.0294    3.8779 H         2 RES2    0.0000
     52 C25        9.2757    5.4104    5.5216 C.ar      2 RES2    0.0000
     53 H25        8.4514    5.8278    5.3035 H         2 RES2    0.0000
     54 C26        9.3953    4.6717    6.6798 C.ar      2 RES2    0.0000
     55 O2         8.7113    4.2781    8.8850 O.3       2 RES2    0.0000
     56 C27        6.0561    3.5286    7.8812 C.ar      2 RES2    0.0000
     57 C28        5.1384    2.5289    7.6570 C.ar      2 RES2    0.0000
     58 H26        5.3757    1.7837    7.1180 H         2 RES2    0.0000
     59 C29        3.8808    2.5990    8.2083 C.ar      2 RES2    0.0000
     60 H27        3.2496    1.9099    8.0376 H         2 RES2    0.0000
     61 C30        3.5338    3.6645    9.0065 C.ar      2 RES2    0.0000
     62 H28        2.6679    3.7087    9.3954 H         2 RES2    0.0000
     63 C31        4.4491    4.6631    9.2390 C.ar      2 RES2    0.0000
     64 H29        4.2209    5.3964    9.7986 H         2 RES2    0.0000
     65 C32        5.7001    4.6005    8.6568 C.ar      2 RES2    0.0000
     66 H30        6.3193    5.3069    8.7967 H         2 RES2    0.0000
@<TRIPOS>BOND
     1    1    2 1
     2    2    3 1
     3    4    2 1
     4    5    4 1
     5    6    4 1
     6    7    4 1
     7    8    7 1
     8    9    7 1
     9   10    9 1
    10   11    9 1
    11   12    9 1
    12   13   12 ar
    13   14   13 1
    14   15   13 ar
    15   16   15 1
    16   17   15 ar
    17   18   17 1
    18   19   17 ar
    19   20   19 1
    20   21    1 1
    21   22    1 1
    22   23    2 1
    23   24   23 ar
    24   25   24 1
    25   26   24 ar
    26   27   26 1
    27   28   26 ar
    28   29   28 1
    29   30   28 ar
    30   31   30 1
    31   32   23 ar
    32   33   32 1
    33   34   35 1
    34   35   36 1
    35   37   35 1
    36   38   37 1
    37   39   37 1
    38   40   37 1
    39   41   40 1
    40   42   40 1
    41   43   42 1
    42   44   42 1
    43   45   42 1
    44   46   45 ar
    45   47   46 1
    46   48   46 ar
    47   49   48 1
    48   50   48 ar
    49   51   50 1
    50   52   50 ar
    51   53   52 1
    52   54   34 1
    53   55   34 1
    54   56   35 1
    55   57   56 ar
    56   58   57 1
    57   59   57 ar
    58   60   59 1
    59   61   59 ar
    60   62   61 1
    61   63   61 ar
    62   64   63 1
    63   65   56 ar
    64   66   65 1
    65    7   22 1
    66   12   21 ar
    67   19   21 ar
    68   30   32 ar
    69   40   55 1
    70   45   54 ar
    71   52   54 ar
    72   63   65 ar
@<TRIPOS>SUBSTRUCTURE
     1 RES1 1
     2 RES2 34

@<TRIPOS>CRYSIN
  10.7475   10.7842   20.5812  90.0000  91.6880  90.0000   9 1

