# MOL2 file generated by ConQuest
# Please check atom types

@<TRIPOS>MOLECULE
KUSBOR
   152   124     3
SMALL
NO_CHARGES
****
Generated from CSD

@<TRIPOS>ATOM
      1 O1         2.7018    7.0040    5.4322 O.3       1 RES1    0.0000
      2 O2         2.0045   10.2107    2.8056 O.2       1 RES1    0.0000
      3 O3         4.6447   13.8481    9.7456 O.2       1 RES1    0.0000
      4 O4         4.0427   15.0162    7.9247 O.3       1 RES1    0.0000
      5 O5         3.6627   14.7946    2.1707 O.2       1 RES1    0.0000
      6 O6         4.3564   15.9305    3.8779 O.2       1 RES1    0.0000
      7 N1         2.5877    9.1487    4.7197 N.am      1 RES1    0.0000
      8 N2         3.4256   10.3521    6.6085 N.3       1 RES1    0.0000
      9 N3         4.2547   12.7875    7.7871 N.am      1 RES1    0.0000
     10 N4         3.9271   14.8918    3.3741 N.pl3     1 RES1    0.0000
     11 C1         3.5633    9.0703    5.8324 C.3       1 RES1    0.0000
     12 H1         4.4968    8.9376    5.4998 H         1 RES1    0.0000
     13 C2         3.0219    7.8076    6.5417 C.3       1 RES1    0.0000
     14 C3         1.8206    8.0799    7.3948 C.3       1 RES1    0.0000
     15 H2         1.2275    8.7085    6.9329 H         1 RES1    0.0000
     16 H3         2.1080    8.4678    8.2478 H         1 RES1    0.0000
     17 H4         1.3417    7.2412    7.5627 H         1 RES1    0.0000
     18 C4         4.1065    7.0113    7.2917 C.3       1 RES1    0.0000
     19 H5         3.7589    6.1267    7.5264 H         1 RES1    0.0000
     20 H6         4.3569    7.4915    8.1085 H         1 RES1    0.0000
     21 H7         4.8944    6.9118    6.7173 H         1 RES1    0.0000
     22 C5         2.2297    7.7763    4.3220 C.3       1 RES1    0.0000
     23 C6         0.7309    7.6111    4.1851 C.3       1 RES1    0.0000
     24 H8         0.2982    7.8415    5.0342 H         1 RES1    0.0000
     25 H9         0.5241    6.6809    3.9541 H         1 RES1    0.0000
     26 H10        0.4000    8.2047    3.4789 H         1 RES1    0.0000
     27 C7         2.9862    7.3391    3.0911 C.3       1 RES1    0.0000
     28 H11        2.6637    7.8399    2.3129 H         1 RES1    0.0000
     29 H12        2.8446    6.3805    2.9426 H         1 RES1    0.0000
     30 H13        3.9432    7.5124    3.2174 H         1 RES1    0.0000
     31 C8         2.5102   10.2340    3.9153 C.2       1 RES1    0.0000
     32 C9         3.0840   11.4690    4.5021 C.ar      1 RES1    0.0000
     33 C10        3.4790   11.5053    5.8532 C.ar      1 RES1    0.0000
     34 C11        3.9267   12.7383    6.4068 C.ar      1 RES1    0.0000
     35 C12        4.0948   13.8218    5.5528 C.ar      1 RES1    0.0000
     36 H14        4.4602   14.6328    5.8853 H         1 RES1    0.0000
     37 C13        3.7345   13.7252    4.2220 C.ar      1 RES1    0.0000
     38 C14        3.2035   12.5766    3.6819 C.ar      1 RES1    0.0000
     39 H15        2.9284   12.5455    2.7728 H         1 RES1    0.0000
     40 C15        4.2907   10.3294    7.7955 C.3       1 RES1    0.0000
     41 H16        5.2422   10.3097    7.5226 H         1 RES1    0.0000
     42 H17        4.1034    9.5231    8.3375 H         1 RES1    0.0000
     43 C16        4.0147   11.5607    8.5970 C.3       1 RES1    0.0000
     44 H18        3.0742   11.5495    8.9081 H         1 RES1    0.0000
     45 H19        4.6000   11.5737    9.3966 H         1 RES1    0.0000
     46 C17        4.3395   13.9089    8.5877 C.2       1 RES1    0.0000
     47 C18        4.1481   16.3425    8.5453 C.3       1 RES1    0.0000
     48 C19        3.2189   16.4278    9.7306 C.3       1 RES1    0.0000
     49 H20        2.3392   16.0750    9.4825 H         1 RES1    0.0000
     50 H21        3.1295   17.3625   10.0092 H         1 RES1    0.0000
     51 H22        3.5851   15.9003   10.4710 H         1 RES1    0.0000
     52 C20        3.6714   17.2369    7.4177 C.3       1 RES1    0.0000
     53 H23        4.1994   17.0568    6.6123 H         1 RES1    0.0000
     54 H24        3.7804   18.1754    7.6772 H         1 RES1    0.0000
     55 H25        2.7251   17.0548    7.2345 H         1 RES1    0.0000
     56 C21        5.5727   16.6008    8.8737 C.3       1 RES1    0.0000
     57 H26        5.8501   16.0133    9.6065 H         1 RES1    0.0000
     58 H27        5.6816   17.5364    9.1447 H         1 RES1    0.0000
     59 H28        6.1270   16.4226    8.0856 H         1 RES1    0.0000
     60 C22        2.6262    9.2382    6.2211 Du        3 SUP3    0.0000
     61 H29        1.7125    9.2615    6.6276 Du        3 SUP3    0.0000
     62 C23        3.3667    7.8733    6.4788 Du        3 SUP3    0.0000
     63 C24        3.0204    7.2222    7.7993 Du        3 SUP3    0.0000
     64 H30        2.0656    7.3419    7.9825 Du        3 SUP3    0.0000
     65 H31        3.5449    7.6355    8.5169 Du        3 SUP3    0.0000
     66 H32        3.2269    6.2647    7.7554 Du        3 SUP3    0.0000
     67 C25        4.8177    7.9685    6.2040 Du        3 SUP3    0.0000
     68 H33        5.1821    7.0707    6.0608 Du        3 SUP3    0.0000
     69 H34        5.2681    8.3867    6.9692 Du        3 SUP3    0.0000
     70 H35        4.9635    8.5123    5.4025 Du        3 SUP3    0.0000
     71 C26        3.4801   10.5706    8.1047 Du        3 SUP3    0.0000
     72 H36        2.6299   10.9620    8.4253 Du        3 SUP3    0.0000
     73 H37        3.6252    9.7090    8.5703 Du        3 SUP3    0.0000
     74 C27        4.6110   11.4994    8.3737 Du        3 SUP3    0.0000
     75 H38        4.7526   11.5939    9.3489 Du        3 SUP3    0.0000
     76 H39        5.4446   11.1555    7.9654 Du        3 SUP3    0.0000
     77 O7         6.3089   11.0213   -0.5992 O.3       2 RES2    0.0000
     78 O8         5.6997    9.9151    3.4190 O.2       2 RES2    0.0000
     79 O9         7.3823   16.7023    5.7376 O.2       2 RES2    0.0000
     80 O10        7.4348   17.8726    3.8321 O.3       2 RES2    0.0000
     81 O11        7.5820   11.2701    7.7885 O.2       2 RES2    0.0000
     82 O12        8.1450   13.3235    8.1180 O.2       2 RES2    0.0000
     83 N5         6.2306   11.2434    1.6536 N.am      2 RES2    0.0000
     84 N6         6.8914   13.5110    1.9673 N.3       2 RES2    0.0000
     85 N7         7.5691   15.6526    3.7209 N.am      2 RES2    0.0000
     86 N8         7.7377   12.4195    7.3950 N.pl3     2 RES2    0.0000
     87 C28        7.0768   12.3153    1.1374 C.3       2 RES2    0.0000
     88 H40        8.0372   12.0356    1.1316 H         2 RES2    0.0000
     89 C29        6.5290   12.4092   -0.3040 C.3       2 RES2    0.0000
     90 C30        5.2441   13.2166   -0.3893 C.3       2 RES2    0.0000
     91 H41        4.8075   13.0462   -1.2500 H         2 RES2    0.0000
     92 H42        5.4518   14.1707   -0.3130 H         2 RES2    0.0000
     93 H43        4.6439   12.9538    0.3397 H         2 RES2    0.0000
     94 C31        7.5499   12.8718   -1.3435 C.3       2 RES2    0.0000
     95 H44        7.6467   13.8466   -1.2938 H         2 RES2    0.0000
     96 H45        7.2419   12.6198   -2.2385 H         2 RES2    0.0000
     97 H46        8.4149   12.4486   -1.1641 H         2 RES2    0.0000
     98 C32        5.9075   10.2876    0.5675 C.3       2 RES2    0.0000
     99 C33        4.4378    9.9667    0.5030 C.3       2 RES2    0.0000
    100 H47        3.9255   10.7986    0.4217 H         2 RES2    0.0000
    101 H48        4.1703    9.4967    1.3206 H         2 RES2    0.0000
    102 H49        4.2618    9.3969   -0.2748 H         2 RES2    0.0000
    103 C34        6.7766    9.0407    0.6448 C.3       2 RES2    0.0000
    104 H50        6.6990    8.5359   -0.1927 H         2 RES2    0.0000
    105 H51        6.4780    8.4809    1.3912 H         2 RES2    0.0000
    106 H52        7.7105    9.3008    0.7843 H         2 RES2    0.0000
    107 C35        6.1828   10.9483    2.9736 C.2       2 RES2    0.0000
    108 C36        6.7408   12.0116    3.8504 C.ar      2 RES2    0.0000
    109 C37        7.0214   13.2911    3.3344 C.ar      2 RES2    0.0000
    110 C38        7.4141   14.3298    4.2208 C.ar      2 RES2    0.0000
    111 C39        7.6681   14.0108    5.5464 C.ar      2 RES2    0.0000
    112 H53        7.9980   14.6725    6.1410 H         2 RES2    0.0000
    113 C40        7.4362   12.7175    6.0002 C.ar      2 RES2    0.0000
    114 C41        6.9401   11.7198    5.1872 C.ar      2 RES2    0.0000
    115 H54        6.7413   10.8593    5.5361 H         2 RES2    0.0000
    116 C42        7.6605   14.6614    1.4921 C.3       2 RES2    0.0000
    117 H55        7.4587   14.8297    0.5381 H         2 RES2    0.0000
    118 H56        8.6295   14.4760    1.5763 H         2 RES2    0.0000
    119 C43        7.3011   15.8660    2.3072 C.3       2 RES2    0.0000
    120 H57        7.8231   16.6445    1.9885 H         2 RES2    0.0000
    121 H58        6.3408   16.0713    2.1831 H         2 RES2    0.0000
    122 C44        7.4535   16.7532    4.5449 C.2       2 RES2    0.0000
    123 C45        7.2632   19.1972    4.4712 C.3       2 RES2    0.0000
    124 C46        7.2678   20.1477    3.3285 C.3       2 RES2    0.0000
    125 H59        8.1206   20.0796    2.8510 H         2 RES2    0.0000
    126 H60        7.1524   21.0613    3.6640 H         2 RES2    0.0000
    127 H61        6.5330   19.9277    2.7175 H         2 RES2    0.0000
    128 C47        5.8909   19.2297    5.1582 C.3       2 RES2    0.0000
    129 H62        5.2330   18.7724    4.5933 H         2 RES2    0.0000
    130 H63        5.6155   20.1612    5.2937 H         2 RES2    0.0000
    131 H64        5.9486   18.7769    6.0246 H         2 RES2    0.0000
    132 C48        8.4219   19.4664    5.3624 C.3       2 RES2    0.0000
    133 H65        8.3601   18.8996    6.1601 H         2 RES2    0.0000
    134 H66        8.4152   20.4098    5.6334 H         2 RES2    0.0000
    135 H67        9.2546   19.2693    4.8853 H         2 RES2    0.0000
    136 C49        6.2009   12.5955    1.0610 Du        3 SUP3    0.0000
    137 H68        5.2649   12.8962    0.8950 Du        3 SUP3    0.0000
    138 C50        6.9578   12.3406   -0.2824 Du        3 SUP3    0.0000
    139 C51        6.6070   13.1665   -1.4503 Du        3 SUP3    0.0000
    140 H69        6.9843   14.0630   -1.3435 Du        3 SUP3    0.0000
    141 H70        6.9644   12.7530   -2.2633 Du        3 SUP3    0.0000
    142 H71        5.6285   13.2309   -1.5228 Du        3 SUP3    0.0000
    143 C52        8.4504   12.1104    0.0954 Du        3 SUP3    0.0000
    144 H72        8.4993   11.5436    0.8931 Du        3 SUP3    0.0000
    145 H73        8.9105   11.6719   -0.6488 Du        3 SUP3    0.0000
    146 H74        8.8749   12.9743    0.2824 Du        3 SUP3    0.0000
    147 C53        6.8024   14.9373    1.4732 Du        3 SUP3    0.0000
    148 H75        7.0112   14.9700    0.5057 Du        3 SUP3    0.0000
    149 H76        5.8862   15.2822    1.6049 Du        3 SUP3    0.0000
    150 C54        7.7429   15.7626    2.2003 Du        3 SUP3    0.0000
    151 H77        7.6293   16.6993    1.9255 Du        3 SUP3    0.0000
    152 H78        8.6640   15.4798    1.9618 Du        3 SUP3    0.0000
@<TRIPOS>BOND
     1    1   13 1
     2    2   31 2
     3    3   46 2
     4    4   46 1
     5    5   10 2
     6    6   10 2
     7    7   11 1
     8    8   11 1
     9    9   34 1
    10   10   37 1
    11   11   12 1
    12   13   11 1
    13   14   13 1
    14   15   14 1
    15   16   14 1
    16   17   14 1
    17   18   13 1
    18   19   18 1
    19   20   18 1
    20   21   18 1
    21   22    1 1
    22   23   22 1
    23   24   23 1
    24   25   23 1
    25   26   23 1
    26   27   22 1
    27   28   27 1
    28   29   27 1
    29   30   27 1
    30   31    7 1
    31   32   31 1
    32   33    8 1
    33   34   33 ar
    34   35   34 ar
    35   36   35 1
    36   37   35 ar
    37   38   32 ar
    38   39   38 1
    39   40    8 1
    40   41   40 1
    41   42   40 1
    42   43    9 1
    43   44   43 1
    44   45   43 1
    45   46    9 1
    46   47    4 1
    47   48   47 1
    48   49   48 1
    49   50   48 1
    50   51   48 1
    51   52   47 1
    52   53   52 1
    53   54   52 1
    54   55   52 1
    55   56   47 1
    56   57   56 1
    57   58   56 1
    58   59   56 1
    59   77   89 1
    60   78  107 2
    61   79  122 2
    62   80  122 1
    63   81   86 2
    64   82   86 2
    65   83   87 1
    66   84   87 1
    67   85  110 1
    68   86  113 1
    69   87   88 1
    70   89   87 1
    71   90   89 1
    72   91   90 1
    73   92   90 1
    74   93   90 1
    75   94   89 1
    76   95   94 1
    77   96   94 1
    78   97   94 1
    79   98   77 1
    80   99   98 1
    81  100   99 1
    82  101   99 1
    83  102   99 1
    84  103   98 1
    85  104  103 1
    86  105  103 1
    87  106  103 1
    88  107   83 1
    89  108  107 1
    90  109   84 1
    91  110  109 ar
    92  111  110 ar
    93  112  111 1
    94  113  111 ar
    95  114  108 ar
    96  115  114 1
    97  116   84 1
    98  117  116 1
    99  118  116 1
   100  119   85 1
   101  120  119 1
   102  121  119 1
   103  122   85 1
   104  123   80 1
   105  124  123 1
   106  125  124 1
   107  126  124 1
   108  127  124 1
   109  128  123 1
   110  129  128 1
   111  130  128 1
   112  131  128 1
   113  132  123 1
   114  133  132 1
   115  134  132 1
   116  135  132 1
   117    7   22 1
   118   32   33 ar
   119   37   38 ar
   120   40   43 1
   121   83   98 1
   122  108  109 ar
   123  113  114 ar
   124  116  119 1
@<TRIPOS>SUBSTRUCTURE
     1 RES1 1
     2 RES2 77
     3 SUP3 60

@<TRIPOS>CRYSIN
   7.2339   15.6981   20.0319  73.0250  83.3904  83.9990   2 1

