# MOL2 file generated by ConQuest
# Please check atom types

@<TRIPOS>MOLECULE
KUSBUX
   124   105     2
SMALL
NO_CHARGES
****
Generated from CSD

@<TRIPOS>ATOM
      1 C1         9.2112    1.9238   18.8401 C.2       1 RES1    0.0000
      2 O1         9.7303    2.9573   18.5014 O.2       1 RES1    0.0000
      3 C2         8.3862    1.0410   17.8898 C.3       1 RES1    0.0000
      4 H1         8.1026    0.2042   18.3577 H         1 RES1    0.0000
      5 C3         7.1517    1.8161   17.4013 C.3       1 RES1    0.0000
      6 H2         7.4371    2.6559   16.9394 H         1 RES1    0.0000
      7 C4         6.2106    2.1479   18.5425 C.2       1 RES1    0.0000
      8 O2         5.3041    1.4070   18.8729 O.2       1 RES1    0.0000
      9 O3         6.5501    3.2486   19.1541 O.3       1 RES1    0.0000
     10 C5         5.7812    3.6433   20.3323 C.3       1 RES1    0.0000
     11 H3         5.6068    2.8576   20.9254 H         1 RES1    0.0000
     12 C6         4.4767    4.2709   19.8602 C.3       1 RES1    0.0000
     13 H4         3.9298    3.5929   19.4127 H         1 RES1    0.0000
     14 H5         4.6718    4.9993   19.2342 H         1 RES1    0.0000
     15 H6         3.9881    4.6276   20.6319 H         1 RES1    0.0000
     16 C7         6.6459    4.6793   21.0363 C.3       1 RES1    0.0000
     17 H7         7.4741    4.2572   21.3441 H         1 RES1    0.0000
     18 H8         6.1582    5.0429   21.8039 H         1 RES1    0.0000
     19 H9         6.8608    5.4040   20.4123 H         1 RES1    0.0000
     20 O4         9.2345    1.4045   20.0408 O.3       1 RES1    0.0000
     21 C8         9.9838    2.1604   21.0506 C.3       1 RES1    0.0000
     22 H10       10.9288    1.9057   21.0157 H         1 RES1    0.0000
     23 H11        9.6242    1.9655   21.9414 H         1 RES1    0.0000
     24 H12        9.8988    3.1210   20.8680 H         1 RES1    0.0000
     25 O5         9.1214    0.7191   16.7167 O.3       1 RES1    0.0000
     26 C9        10.1446   -0.2441   16.9661 C.3       1 RES1    0.0000
     27 H13        9.7739   -0.9737   17.5408 H         1 RES1    0.0000
     28 O6        11.2544    0.3505   17.6240 O.3       1 RES1    0.0000
     29 C10       11.9127    1.3728   16.8409 C.3       1 RES1    0.0000
     30 H14       11.2506    2.0944   16.6377 H         1 RES1    0.0000
     31 C11       12.4173    0.8118   15.5458 C.3       1 RES1    0.0000
     32 H15       12.8521    1.5328   15.0060 H         1 RES1    0.0000
     33 C12       11.2491    0.1837   14.7494 C.3       1 RES1    0.0000
     34 H16       10.5943    0.9127   14.5483 H         1 RES1    0.0000
     35 C13       10.5510   -0.8255   15.6279 C.3       1 RES1    0.0000
     36 H17       11.1746   -1.5894   15.7921 H         1 RES1    0.0000
     37 O7         6.5168    0.9320   16.4612 O.3       1 RES1    0.0000
     38 C14        5.4865    1.4817   15.7633 C.2       1 RES1    0.0000
     39 O8         5.1234    2.6211   15.9686 O.2       1 RES1    0.0000
     40 C15        4.9157    0.5641   14.7904 C.ar      1 RES1    0.0000
     41 C16        5.4706   -0.6873   14.5113 C.ar      1 RES1    0.0000
     42 H18        6.2501   -0.9687   14.9731 H         1 RES1    0.0000
     43 C17        4.9011   -1.5129   13.5774 C.ar      1 RES1    0.0000
     44 H19        5.2993   -2.3465   13.3516 H         1 RES1    0.0000
     45 C18        3.7182   -1.0895   12.9658 C.ar      1 RES1    0.0000
     46 N1         3.0806   -2.0172   12.0011 N.pl3     1 RES1    0.0000
     47 O9         3.5889   -3.0768   11.7527 O.2       1 RES1    0.0000
     48 C19        3.1753    0.1245   13.2018 C.ar      1 RES1    0.0000
     49 H20        2.3919    0.3947   12.7359 H         1 RES1    0.0000
     50 O10        2.0483   -1.6405   11.4715 O.2       1 RES1    0.0000
     51 C20        3.7536    0.9775   14.1152 C.ar      1 RES1    0.0000
     52 H21        3.3737    1.8298   14.2896 H         1 RES1    0.0000
     53 C21       13.0055    1.9549   17.7256 C.3       1 RES1    0.0000
     54 H22       12.6334    2.1772   18.6020 H         1 RES1    0.0000
     55 H23       13.3674    2.7643   17.3068 H         1 RES1    0.0000
     56 H24       13.7230    1.2950   17.8323 H         1 RES1    0.0000
     57 O11       13.3870   -0.2148   15.8742 O.3       1 RES1    0.0000
     58 C22       14.4506   -0.4171   14.9444 C.3       1 RES1    0.0000
     59 H25       14.6517    0.4352   14.4785 H         1 RES1    0.0000
     60 H26       14.1781   -1.0814   14.2630 H         1 RES1    0.0000
     61 C23       15.6245   -0.8778   15.6299 C.ar      1 RES1    0.0000
     62 C24       16.0880   -2.1846   15.5170 C.ar      1 RES1    0.0000
     63 H27       15.5852   -2.8265   15.0285 H         1 RES1    0.0000
     64 C25       17.2873   -2.5513   16.1164 C.ar      1 RES1    0.0000
     65 H28       17.6041   -3.4435   16.0384 H         1 RES1    0.0000
     66 C26       18.0228   -1.6125   16.8307 C.ar      1 RES1    0.0000
     67 H29       18.8408   -1.8634   17.2412 H         1 RES1    0.0000
     68 C27       17.5589   -0.3051   16.9456 C.ar      1 RES1    0.0000
     69 H30       18.0602    0.3343   17.4341 H         1 RES1    0.0000
     70 C28       16.3600    0.0598   16.3442 C.ar      1 RES1    0.0000
     71 H31       16.0433    0.9519   16.4222 H         1 RES1    0.0000
     72 O12       11.5998   -0.4022   13.5466 O.3       1 RES1    0.0000
     73 C29       11.5927    0.4234   12.3952 C.3       1 RES1    0.0000
     74 H32       10.9606    1.1705   12.5368 H         1 RES1    0.0000
     75 H33       11.2674   -0.1052   11.6234 H         1 RES1    0.0000
     76 C30       12.9511    0.9837   12.0688 C.ar      1 RES1    0.0000
     77 C31       13.8380    0.1494   11.4407 C.ar      1 RES1    0.0000
     78 H34       13.5680   -0.7259   11.2006 H         1 RES1    0.0000
     79 C32       15.1544    0.5852   11.1452 C.ar      1 RES1    0.0000
     80 H35       15.7720    0.0162   10.7039 H         1 RES1    0.0000
     81 C33       15.5060    1.8428   11.5167 C.ar      1 RES1    0.0000
     82 H36       16.3982    2.1249   11.3463 H         1 RES1    0.0000
     83 C34       14.6500    2.7394   12.1222 C.ar      1 RES1    0.0000
     84 H37       14.9301    3.6172   12.3438 H         1 RES1    0.0000
     85 C35       13.3331    2.2911   12.4054 C.ar      1 RES1    0.0000
     86 H38       12.7116    2.8776   12.8200 H         1 RES1    0.0000
     87 O13        9.3670   -1.3329   14.9690 O.3       1 RES1    0.0000
     88 C36        9.5297   -2.6516   14.4785 C.3       1 RES1    0.0000
     89 H39        9.3750   -3.3003   15.2092 H         1 RES1    0.0000
     90 H40       10.4548   -2.7723   14.1480 H         1 RES1    0.0000
     91 C37        8.5464   -2.9106   13.3475 C.ar      1 RES1    0.0000
     92 C38        7.9138   -4.1339   13.2798 C.ar      1 RES1    0.0000
     93 H41        8.0409   -4.7789   13.9674 H         1 RES1    0.0000
     94 C39        7.0728   -4.4328   12.1735 C.ar      1 RES1    0.0000
     95 H42        6.6112   -5.2596   12.1263 H         1 RES1    0.0000
     96 C40        6.9395   -3.5051   11.1760 C.ar      1 RES1    0.0000
     97 H43        6.4055   -3.7087   10.4165 H         1 RES1    0.0000
     98 C41        7.5588   -2.2973   11.2478 C.ar      1 RES1    0.0000
     99 H44        7.4361   -1.6592   10.5541 H         1 RES1    0.0000
    100 C42        8.3875   -1.9916   12.3541 C.ar      1 RES1    0.0000
    101 H45        8.8281   -1.1518   12.4054 H         1 RES1    0.0000
    102 H46        4.8019    3.5636   20.1414 Du        2 SUP2    0.0000
    103 C43        6.1502    5.1020   20.5662 Du        2 SUP2    0.0000
    104 H47        5.9827    5.6144   19.7432 Du        2 SUP2    0.0000
    105 H48        7.0970    5.1662   20.8023 Du        2 SUP2    0.0000
    106 H49        5.6031    5.4656   21.2908 Du        2 SUP2    0.0000
    107 C44        6.1470    2.8265   21.5638 Du        2 SUP2    0.0000
    108 H50        5.7456    1.9306   21.4878 Du        2 SUP2    0.0000
    109 H51        5.7936    3.2685   22.3642 Du        2 SUP2    0.0000
    110 H52        7.1148    2.7456   21.6294 Du        2 SUP2    0.0000
    111 C45       14.4584   -0.3816   14.9444 Du        2 SUP2    0.0000
    112 H53       14.7617    0.5037   14.6221 Du        2 SUP2    0.0000
    113 H54       14.1429   -0.9015   14.1624 Du        2 SUP2    0.0000
    114 C46       15.5511   -1.0708   15.5725 Du        2 SUP2    0.0000
    115 C47       15.4159   -1.3199   16.9333 Du        2 SUP2    0.0000
    116 H55       14.6364   -1.0329   17.3930 Du        2 SUP2    0.0000
    117 C48       16.4235   -1.9860   17.6209 Du        2 SUP2    0.0000
    118 H56       16.3319   -2.1566   18.5507 Du        2 SUP2    0.0000
    119 C49       17.5647   -2.4032   16.9476 Du        2 SUP2    0.0000
    120 H57       18.2527   -2.8608   17.4177 Du        2 SUP2    0.0000
    121 C50       17.6998   -2.1541   15.5868 Du        2 SUP2    0.0000
    122 H58       18.4794   -2.4411   15.1271 Du        2 SUP2    0.0000
    123 C51       16.6922   -1.4880   14.8992 Du        2 SUP2    0.0000
    124 H59       16.7854   -1.3180   13.9694 Du        2 SUP2    0.0000
@<TRIPOS>BOND
     1    1    2 2
     2    3    1 1
     3    4    3 1
     4    5    3 1
     5    6    5 1
     6    7    5 1
     7    8    7 2
     8    9    7 1
     9   10    9 1
    10   11   10 1
    11   12   10 1
    12   13   12 1
    13   14   12 1
    14   15   12 1
    15   16   10 1
    16   17   16 1
    17   18   16 1
    18   19   16 1
    19   20    1 1
    20   21   20 1
    21   22   21 1
    22   23   21 1
    23   24   21 1
    24   25    3 1
    25   26   25 1
    26   27   26 1
    27   28   26 1
    28   29   28 1
    29   30   29 1
    30   31   29 1
    31   32   31 1
    32   33   31 1
    33   34   33 1
    34   35   26 1
    35   36   35 1
    36   37    5 1
    37   38   37 1
    38   39   38 2
    39   40   38 1
    40   41   40 ar
    41   42   41 1
    42   43   41 ar
    43   44   43 1
    44   45   43 ar
    45   46   45 1
    46   47   46 2
    47   48   45 ar
    48   49   48 1
    49   50   46 2
    50   51   40 ar
    51   52   51 1
    52   53   29 1
    53   54   53 1
    54   55   53 1
    55   56   53 1
    56   57   31 1
    57   58   57 1
    58   59   58 1
    59   60   58 1
    60   61   58 1
    61   62   61 ar
    62   63   62 1
    63   64   62 ar
    64   65   64 1
    65   66   64 ar
    66   67   66 1
    67   68   66 ar
    68   69   68 1
    69   70   61 ar
    70   71   70 1
    71   72   33 1
    72   73   72 1
    73   74   73 1
    74   75   73 1
    75   76   73 1
    76   77   76 ar
    77   78   77 1
    78   79   77 ar
    79   80   79 1
    80   81   79 ar
    81   82   81 1
    82   83   81 ar
    83   84   83 1
    84   85   76 ar
    85   86   85 1
    86   87   35 1
    87   88   87 1
    88   89   88 1
    89   90   88 1
    90   91   88 1
    91   92   91 ar
    92   93   92 1
    93   94   92 ar
    94   95   94 1
    95   96   94 ar
    96   97   96 1
    97   98   96 ar
    98   99   98 1
    99  100   91 ar
   100  101  100 1
   101   33   35 1
   102   48   51 ar
   103   68   70 ar
   104   83   85 ar
   105   98  100 ar
@<TRIPOS>SUBSTRUCTURE
     1 RES1 1
     2 SUP2 102

@<TRIPOS>CRYSIN
  15.5024    6.2258   20.9530  90.0000 101.5980  90.0000   4 1

