# MOL2 file generated by ConQuest
# Please check atom types

@<TRIPOS>MOLECULE
KUSHOW
    57    60     1
SMALL
NO_CHARGES
****
Generated from CSD

@<TRIPOS>ATOM
      1 C1         1.6567   -0.4848    1.0319 C.3       1 RES1    0.0000
      2 H1         2.4532   -1.0188    0.9829 H         1 RES1    0.0000
      3 H2         1.3594   -0.2721    0.1443 H         1 RES1    0.0000
      4 H3         0.9704   -0.9760    1.4894 H         1 RES1    0.0000
      5 C2         1.9451    0.7678    1.7698 C.3       1 RES1    0.0000
      6 H4         2.2527    0.5507    2.6643 H         1 RES1    0.0000
      7 H5         2.6536    1.2521    1.3178 H         1 RES1    0.0000
      8 C3         0.5425    2.4710    0.8600 C.2       1 RES1    0.0000
      9 C4        -0.6943    3.2765    1.0868 C.2       1 RES1    0.0000
     10 C5        -1.4334    3.1342    2.2330 C.2       1 RES1    0.0000
     11 H6        -1.1948    2.5013    2.8712 H         1 RES1    0.0000
     12 C6        -2.5575    3.9557    2.4327 C.2       1 RES1    0.0000
     13 C7        -2.1694    5.0012    0.2883 C.2       1 RES1    0.0000
     14 H7        -2.4333    5.6112   -0.3621 H         1 RES1    0.0000
     15 C8        -1.0854    4.2235    0.1029 C.2       1 RES1    0.0000
     16 H8        -0.5873    4.3068   -0.6780 H         1 RES1    0.0000
     17 C9        -3.5051    4.1380    3.4491 C.2       1 RES1    0.0000
     18 C10       -4.3048    5.2063    3.0112 C.2       1 RES1    0.0000
     19 C11       -5.3867    5.9285    3.7176 C.ar      1 RES1    0.0000
     20 C12       -5.3005    6.1853    5.0767 C.ar      1 RES1    0.0000
     21 H9        -4.5790    5.8580    5.5641 H         1 RES1    0.0000
     22 C13       -6.2788    6.9272    5.7166 C.ar      1 RES1    0.0000
     23 H10       -6.2086    7.0999    6.6273 H         1 RES1    0.0000
     24 C14       -7.3569    7.4107    5.0059 C.ar      1 RES1    0.0000
     25 H11       -8.0197    7.9011    5.4361 H         1 RES1    0.0000
     26 C15       -7.4459    7.1640    3.6581 C.ar      1 RES1    0.0000
     27 H12       -8.1730    7.4894    3.1789 H         1 RES1    0.0000
     28 C16       -6.4695    6.4383    3.0087 C.ar      1 RES1    0.0000
     29 H13       -6.5353    6.2883    2.0938 H         1 RES1    0.0000
     30 C17       -3.6821    3.2529    4.6017 C.2       1 RES1    0.0000
     31 C18       -4.8801    2.8803    5.2546 C.2       1 RES1    0.0000
     32 H14       -5.7352    3.2098    5.0958 H         1 RES1    0.0000
     33 C19       -4.5201    1.9503    6.1504 C.2       1 RES1    0.0000
     34 C20       -5.2943    1.0974    7.1011 C.3       1 RES1    0.0000
     35 H15       -6.1763    0.9347    6.7322 H         1 RES1    0.0000
     36 H16       -4.8480    0.2406    7.1923 H         1 RES1    0.0000
     37 C21       -4.2409    2.4670   10.4434 C.3       1 RES1    0.0000
     38 H17       -3.3831    2.4109   10.8709 H         1 RES1    0.0000
     39 H18       -4.9126    2.1015   11.0233 H         1 RES1    0.0000
     40 H19       -4.4463    3.3857   10.2569 H         1 RES1    0.0000
     41 C22       -4.2106    1.6758    9.1364 C.3       1 RES1    0.0000
     42 H20       -3.5136    2.0391    8.5674 H         1 RES1    0.0000
     43 H21       -3.9809    0.7551    9.3325 H         1 RES1    0.0000
     44 C23       -6.5863    1.0927    9.1514 C.3       1 RES1    0.0000
     45 H22       -6.7575    1.6259    9.9437 H         1 RES1    0.0000
     46 H23       -7.3706    1.1603    8.5837 H         1 RES1    0.0000
     47 C24       -6.4408   -0.3162    9.5666 C.3       1 RES1    0.0000
     48 H24       -7.2380   -0.5993   10.0213 H         1 RES1    0.0000
     49 H25       -5.6894   -0.3988   10.1588 H         1 RES1    0.0000
     50 H26       -6.3017   -0.8651    8.7920 H         1 RES1    0.0000
     51 N1        -2.8755    4.8746    1.4552 N.pl3     1 RES1    0.0000
     52 N2        -3.9352    5.6529    1.7956 N.2       1 RES1    0.0000
     53 N3        -2.6481    2.6092    5.0877 N.2       1 RES1    0.0000
     54 N4        -5.4389    1.7003    8.4256 N.3       1 RES1    0.0000
     55 O1         0.7664    1.6102    1.8568 O.3       1 RES1    0.0000
     56 O2         1.2545    2.5921   -0.0994 O.2       1 RES1    0.0000
     57 O3        -3.1846    1.7604    6.0874 O.3       1 RES1    0.0000
@<TRIPOS>BOND
     1    1    2 1
     2    3    1 1
     3    4    1 1
     4    5    1 1
     5    6    5 1
     6    7    5 1
     7    8    9 1
     8    9   10 2
     9   10   11 1
    10   12   10 1
    11   13   14 1
    12   15    9 1
    13   16   15 1
    14   17   12 2
    15   18   17 1
    16   19   18 1
    17   20   19 ar
    18   21   20 1
    19   22   20 ar
    20   23   22 1
    21   24   22 ar
    22   25   24 1
    23   26   24 ar
    24   27   26 1
    25   28   19 ar
    26   29   28 1
    27   30   17 1
    28   31   30 1
    29   32   31 1
    30   33   31 2
    31   34   33 1
    32   35   34 1
    33   36   34 1
    34   37   38 1
    35   39   37 1
    36   40   37 1
    37   41   37 1
    38   42   41 1
    39   43   41 1
    40   44   45 1
    41   46   44 1
    42   47   44 1
    43   48   47 1
    44   49   47 1
    45   50   47 1
    46   51   12 1
    47   52   18 2
    48   53   30 2
    49   54   34 1
    50   55    5 1
    51   56    8 2
    52   57   33 1
    53    8   55 1
    54   13   15 2
    55   13   51 1
    56   26   28 ar
    57   41   54 1
    58   44   54 1
    59   51   52 1
    60   53   57 1
@<TRIPOS>SUBSTRUCTURE
     1 RES1 1

@<TRIPOS>CRYSIN
   6.1250   13.1425   13.7139  93.6000  95.5140  95.6370   2 1

