# MOL2 file generated by ConQuest
# Please check atom types

@<TRIPOS>MOLECULE
KUSTAU
    28    29     1
SMALL
NO_CHARGES
****
Generated from CSD

@<TRIPOS>ATOM
      1 O1         4.7317    8.4847    4.9916 O.3       1 RES1    0.0000
      2 O2         2.8043    6.0560    1.0557 O.3       1 RES1    0.0000
      3 N1         3.7911    7.4181    3.0986 N.2       1 RES1    0.0000
      4 N2         5.7723    9.4219    5.2787 N.2       1 RES1    0.0000
      5 C1         1.0046    5.3167    4.1845 C.ar      1 RES1    0.0000
      6 H1         1.0309    5.5276    5.0898 H         1 RES1    0.0000
      7 C2         0.0335    4.4463    3.7169 C.ar      1 RES1    0.0000
      8 H2        -0.5999    4.0885    4.2969 H         1 RES1    0.0000
      9 C3         0.0216    4.1165    2.3631 C.ar      1 RES1    0.0000
     10 H3        -0.6236    3.5272    2.0450 H         1 RES1    0.0000
     11 C4         0.9483    4.6468    1.4769 C.ar      1 RES1    0.0000
     12 H4         0.9247    4.4084    0.5788 H         1 RES1    0.0000
     13 C5         1.9223    5.5430    1.9445 C.ar      1 RES1    0.0000
     14 C6         1.9549    5.8879    3.3138 C.ar      1 RES1    0.0000
     15 C7         2.9418    6.8042    3.8568 C.2       1 RES1    0.0000
     16 H5         2.9633    6.9545    4.7740 H         1 RES1    0.0000
     17 C8         4.7189    8.2800    3.6499 C.2       1 RES1    0.0000
     18 C9         5.6914    9.0189    3.0364 C.2       1 RES1    0.0000
     19 C10        6.3095    9.7081    4.1211 C.2       1 RES1    0.0000
     20 C11        6.0396    9.0702    1.5870 C.3       1 RES1    0.0000
     21 H6         5.4775    8.4620    1.1014 H         1 RES1    0.0000
     22 H7         6.9588    8.8198    1.4698 H         1 RES1    0.0000
     23 H8         5.9059    9.9619    1.2569 H         1 RES1    0.0000
     24 C12        7.4522   10.6736    4.0493 C.3       1 RES1    0.0000
     25 H9         7.6603   10.9889    4.9319 H         1 RES1    0.0000
     26 H10        7.2091   11.4168    3.4920 H         1 RES1    0.0000
     27 H11        8.2202   10.2333    3.6774 H         1 RES1    0.0000
     28 H12        3.3187    6.6575    1.5786 H         1 RES1    0.0000
@<TRIPOS>BOND
     1    1    4 1
     2    2   13 1
     3    3   15 2
     4    4   19 2
     5    5    6 1
     6    7    5 ar
     7    8    7 1
     8    9    7 ar
     9   10    9 1
    10   11    9 ar
    11   12   11 1
    12   13   11 ar
    13   14    5 ar
    14   15   14 1
    15   16   15 1
    16   17    1 1
    17   18   17 2
    18   19   18 1
    19   20   18 1
    20   21   20 1
    21   22   20 1
    22   23   20 1
    23   24   19 1
    24   25   24 1
    25   26   24 1
    26   27   24 1
    27   28    2 1
    28    3   17 1
    29   13   14 ar
@<TRIPOS>SUBSTRUCTURE
     1 RES1 1

@<TRIPOS>CRYSIN
   5.3475    8.6150   12.3210 103.6960  91.4860  94.0590   2 1

