# MOL2 file generated by ConQuest
# Please check atom types

@<TRIPOS>MOLECULE
KUTFOU
    25    27     1
SMALL
NO_CHARGES
****
Generated from CSD

@<TRIPOS>ATOM
      1 C1        -1.6167    6.3031   13.2701 C.ar      1 RES1    0.0000
      2 C2        -1.7877    6.8858   14.4922 C.ar      1 RES1    0.0000
      3 N1        -2.7557    8.0062   14.6114 N.pl3     1 RES1    0.0000
      4 O1        -2.9259    8.4942   15.7076 O.2       1 RES1    0.0000
      5 O2        -3.2653    8.4041   13.6075 O.2       1 RES1    0.0000
      6 C3        -1.0847    6.4950   15.6237 C.ar      1 RES1    0.0000
      7 C4        -0.1632    5.4575   15.4810 C.ar      1 RES1    0.0000
      8 C5         0.4491    1.6534   14.8817 C.ar      1 RES1    0.0000
      9 C6        -0.0743    0.4050   14.6567 C.ar      1 RES1    0.0000
     10 C7        -0.7056    0.1421   13.4514 C.ar      1 RES1    0.0000
     11 C8        -0.8006    1.1204   12.4912 C.ar      1 RES1    0.0000
     12 N2        -0.2712    3.3470   11.6250 N.am      1 RES1    0.0000
     13 C9        -0.4836    4.6758   11.7727 C.2       1 RES1    0.0000
     14 O3        -0.5423    5.4220   10.8226 O.2       1 RES1    0.0000
     15 C10       -0.7073    5.2443   13.1409 C.ar      1 RES1    0.0000
     16 C11        0.0104    4.8629   14.2807 C.ar      1 RES1    0.0000
     17 O4         0.9534    3.8468   14.1430 O.3       1 RES1    0.0000
     18 C12        0.3765    2.6079   13.9114 C.ar      1 RES1    0.0000
     19 C13       -0.2565    2.3876   12.6641 C.ar      1 RES1    0.0000
     20 C14       -0.1520    2.8661   10.2182 C.3       1 RES1    0.0000
     21 C15        1.1866    2.3379    9.8943 C.3       1 RES1    0.0000
     22 C16        1.2185    1.7386    8.5160 C.3       1 RES1    0.0000
     23 N3         0.9301    2.6601    7.4635 N.3       1 RES1    0.0000
     24 C17        1.9811    3.5436    7.1328 C.3       1 RES1    0.0000
     25 C18        0.5579    1.9329    6.2985 C.3       1 RES1    0.0000
@<TRIPOS>BOND
     1    1    2 ar
     2    2    3 1
     3    3    4 2
     4    5    3 2
     5    6    2 ar
     6    7    6 ar
     7    8    9 ar
     8    9   10 ar
     9   10   11 ar
    10   11   19 ar
    11   12   13 1
    12   13   14 2
    13   15    1 ar
    14   16    7 ar
    15   17   16 1
    16   18    8 ar
    17   19   12 1
    18   20   12 1
    19   21   20 1
    20   22   21 1
    21   23   22 1
    22   24   23 1
    23   25   23 1
    24   13   15 1
    25   15   16 ar
    26   17   18 1
    27   18   19 ar
@<TRIPOS>SUBSTRUCTURE
     1 RES1 1

@<TRIPOS>CRYSIN
   8.6360   23.6870   16.7870  90.0000  90.0000  90.0000  61 1

