# MOL2 file generated by ConQuest
# Please check atom types

@<TRIPOS>MOLECULE
KUVFOX
    33    31     2
SMALL
NO_CHARGES
****
Generated from CSD

@<TRIPOS>ATOM
      1 N1        -1.2506    2.2705    3.9221 N.pl3     1 RES1    0.0000
      2 O1        -1.8199    2.7542    3.0053 O.2       1 RES1    0.0000
      3 O2        -1.6559    1.3008    4.5334 O.2       1 RES1    0.0000
      4 O3         4.0868    4.3788    6.8782 O.2       1 RES1    0.0000
      5 N2         4.5425    4.9969    4.7331 N.am      1 RES1    0.0000
      6 H1         4.3024    4.9436    3.8885 H         1 RES1    0.0000
      7 N3         5.6993    5.6646    5.0901 N.2       1 RES1    0.0000
      8 N4         9.1702    8.3679    3.1784 N.ar      1 RES1    0.0000
      9 C1         2.4789    3.8491    5.2130 C.ar      1 RES1    0.0000
     10 C2         1.8173    4.3112    4.0788 C.ar      1 RES1    0.0000
     11 H2         2.2072    4.9968    3.5493 H         1 RES1    0.0000
     12 C3         0.5907    3.7737    3.7199 C.ar      1 RES1    0.0000
     13 H3         0.1281    4.0886    2.9523 H         1 RES1    0.0000
     14 C4         0.0578    2.7710    4.5043 C.ar      1 RES1    0.0000
     15 C5         0.6875    2.2949    5.6345 C.ar      1 RES1    0.0000
     16 H4         0.2974    1.6009    6.1531 H         1 RES1    0.0000
     17 C6         1.9009    2.8523    5.9938 C.ar      1 RES1    0.0000
     18 H5         2.3431    2.5525    6.7797 H         1 RES1    0.0000
     19 C7         3.7829    4.4266    5.6971 C.2       1 RES1    0.0000
     20 C8         6.3018    6.2129    4.1043 C.2       1 RES1    0.0000
     21 H6         5.9580    6.0903    3.2273 H         1 RES1    0.0000
     22 C9         7.5041    7.0231    4.2899 C.ar      1 RES1    0.0000
     23 C10        8.0823    7.5865    3.1547 C.ar      1 RES1    0.0000
     24 H7         7.6815    7.4059    2.3125 H         1 RES1    0.0000
     25 C11        9.7157    8.6221    4.3770 C.ar      1 RES1    0.0000
     26 H8        10.4915    9.1691    4.4152 H         1 RES1    0.0000
     27 C12        9.1985    8.1227    5.5649 C.ar      1 RES1    0.0000
     28 H9         9.6106    8.3346    6.3946 H         1 RES1    0.0000
     29 C13        8.0795    7.3150    5.5284 C.ar      1 RES1    0.0000
     30 H10        7.7082    6.9649    6.3294 H         1 RES1    0.0000
     31 N5        -1.2353    2.1230    4.3164 Du        2 SUP2    0.0000
     32 O4        -1.8110    2.5492    3.2701 Du        2 SUP2    0.0000
     33 O5        -1.7208    1.2886    5.0906 Du        2 SUP2    0.0000
@<TRIPOS>BOND
     1    1    2 2
     2    3    1 2
     3    4   19 2
     4    5    6 1
     5    7    5 1
     6    8   23 ar
     7    9   10 ar
     8   10   11 1
     9   12   10 ar
    10   13   12 1
    11   14    1 1
    12   15   14 ar
    13   16   15 1
    14   17    9 ar
    15   18   17 1
    16   19    5 1
    17   20    7 2
    18   21   20 1
    19   22   20 1
    20   23   22 ar
    21   24   23 1
    22   25    8 ar
    23   26   25 1
    24   27   25 ar
    25   28   27 1
    26   29   22 ar
    27   30   29 1
    28    9   19 1
    29   12   14 ar
    30   15   17 ar
    31   27   29 ar
@<TRIPOS>SUBSTRUCTURE
     1 RES1 1
     2 SUP2 31

@<TRIPOS>CRYSIN
  14.6158    8.1969   10.3645  90.0000 100.6090  90.0000  14 1

