# MOL2 file generated by ConQuest
# Please check atom types

@<TRIPOS>MOLECULE
KUVTAY
    50    52     1
SMALL
NO_CHARGES
****
Generated from CSD

@<TRIPOS>ATOM
      1 O1         7.8825    3.7141    4.3863 O.3       1 RES1    0.0000
      2 O2        -1.6517    8.1777    7.8457 O.2       1 RES1    0.0000
      3 O3        -3.3074    9.5755    7.9359 O.2       1 RES1    0.0000
      4 O4        -8.2970    6.1464    8.4501 O.2       1 RES1    0.0000
      5 O5        -7.8290    8.2016    7.9848 O.2       1 RES1    0.0000
      6 N1        -1.7765    4.2788    7.6915 N.2       1 RES1    0.0000
      7 N2        -2.0900    5.6124    7.6828 N.pl3     1 RES1    0.0000
      8 H1        -1.4593    6.2209    7.5968 H         1 RES1    0.0000
      9 N3        -2.8678    8.4313    7.8899 N.pl3     1 RES1    0.0000
     10 N4        -7.5015    7.0311    8.1625 N.pl3     1 RES1    0.0000
     11 C1         8.9002    2.7882    4.7871 C.3       1 RES1    0.0000
     12 H2         9.7602    3.0635    4.4058 H         1 RES1    0.0000
     13 H3         8.6714    1.8921    4.4652 H         1 RES1    0.0000
     14 H4         8.9659    2.7777    5.7654 H         1 RES1    0.0000
     15 C2         6.6166    3.4958    4.8733 C.ar      1 RES1    0.0000
     16 C3         5.6529    4.4208    4.4776 C.ar      1 RES1    0.0000
     17 H5         5.8971    5.1433    3.9117 H         1 RES1    0.0000
     18 C4         4.3429    4.2937    4.9039 C.ar      1 RES1    0.0000
     19 H6         3.7005    4.9329    4.6194 H         1 RES1    0.0000
     20 C5         3.9380    3.2459    5.7437 C.ar      1 RES1    0.0000
     21 C6         4.9353    2.3419    6.1305 C.ar      1 RES1    0.0000
     22 H7         4.6999    1.6212    6.7034 H         1 RES1    0.0000
     23 C7         6.2556    2.4585    5.7082 C.ar      1 RES1    0.0000
     24 H8         6.9061    1.8273    5.9938 H         1 RES1    0.0000
     25 C8         2.5175    3.0784    6.1443 C.2       1 RES1    0.0000
     26 C9         1.4658    3.9035    5.4314 C.3       1 RES1    0.0000
     27 H9         0.6468    3.3581    5.3215 H         1 RES1    0.0000
     28 H10        1.7961    4.1367    4.5284 H         1 RES1    0.0000
     29 C10        1.1101    5.1968    6.1842 C.3       1 RES1    0.0000
     30 H11        1.9043    5.7869    6.2112 H         1 RES1    0.0000
     31 H12        0.3927    5.6720    5.6948 H         1 RES1    0.0000
     32 C11        0.6445    4.9153    7.6133 C.3       1 RES1    0.0000
     33 H13        1.3967    4.5357    8.1317 H         1 RES1    0.0000
     34 H14        0.3783    5.7676    8.0426 H         1 RES1    0.0000
     35 C12       -0.5123    3.9614    7.6505 C.2       1 RES1    0.0000
     36 C13       -0.3068    2.5182    7.6755 C.2       1 RES1    0.0000
     37 H15       -1.0881    2.0026    7.8364 H         1 RES1    0.0000
     38 C14        0.8177    1.8088    7.5050 C.2       1 RES1    0.0000
     39 H16        0.7190    0.8821    7.6897 H         1 RES1    0.0000
     40 C15        2.1595    2.1894    7.0919 C.2       1 RES1    0.0000
     41 H17        2.8733    1.7571    7.5466 H         1 RES1    0.0000
     42 C16       -3.3912    5.9780    7.8089 C.ar      1 RES1    0.0000
     43 C17       -3.8131    7.3257    7.8819 C.ar      1 RES1    0.0000
     44 C18       -5.1536    7.6694    7.9863 C.ar      1 RES1    0.0000
     45 H18       -5.4163    8.5812    8.0240 H         1 RES1    0.0000
     46 C19       -6.0939    6.6707    8.0340 C.ar      1 RES1    0.0000
     47 C20       -5.7277    5.3309    7.9980 C.ar      1 RES1    0.0000
     48 H19       -6.3902    4.6532    8.0537 H         1 RES1    0.0000
     49 C21       -4.4040    4.9916    7.8806 C.ar      1 RES1    0.0000
     50 H20       -4.1610    4.0736    7.8475 H         1 RES1    0.0000
@<TRIPOS>BOND
     1    1   11 1
     2    2    9 2
     3    3    9 2
     4    4   10 2
     5    5   10 2
     6    6    7 1
     7    7    8 1
     8    9   43 1
     9   10   46 1
    10   11   12 1
    11   13   11 1
    12   14   11 1
    13   15    1 1
    14   16   15 ar
    15   17   16 1
    16   18   16 ar
    17   19   18 1
    18   20   18 ar
    19   21   20 ar
    20   22   21 1
    21   23   15 ar
    22   24   23 1
    23   25   20 1
    24   26   25 1
    25   27   26 1
    26   28   26 1
    27   29   26 1
    28   30   29 1
    29   31   29 1
    30   32   29 1
    31   33   32 1
    32   34   32 1
    33   35    6 2
    34   36   35 1
    35   37   36 1
    36   38   36 2
    37   39   38 1
    38   40   25 2
    39   41   40 1
    40   42    7 1
    41   43   42 ar
    42   44   43 ar
    43   45   44 1
    44   46   44 ar
    45   47   46 ar
    46   48   47 1
    47   49   42 ar
    48   50   49 1
    49   21   23 ar
    50   32   35 1
    51   38   40 1
    52   47   49 ar
@<TRIPOS>SUBSTRUCTURE
     1 RES1 1

@<TRIPOS>CRYSIN
  11.8640    8.7680   18.6960  90.0000  96.5480  90.0000 231 1

