# MOL2 file generated by ConQuest
# Please check atom types

@<TRIPOS>MOLECULE
KUVTEC
    82    85     2
SMALL
NO_CHARGES
****
Generated from CSD

@<TRIPOS>ATOM
      1 O1        16.2266   -2.2582   -8.7160 O.3       1 RES1    0.0000
      2 O2         2.4320   -3.0479   -3.5746 O.3       1 RES1    0.0000
      3 O3         3.5465   -4.2942   -0.4571 O.2       1 RES1    0.0000
      4 O4         4.2107   -5.5153    1.1922 O.2       1 RES1    0.0000
      5 O5         9.1765   -8.3842   -0.9690 O.2       1 RES1    0.0000
      6 O6         8.1817   -7.9647    0.9332 O.2       1 RES1    0.0000
      7 N1         8.4942   -6.7506   -4.4847 N.pl3     1 RES1    0.0000
      8 H1         7.8166   -6.9528   -4.9750 H         1 RES1    0.0000
      9 N2         8.5156   -7.0333   -3.1222 N.pl3     1 RES1    0.0000
     10 H2         9.1384   -7.5302   -2.7975 H         1 RES1    0.0000
     11 N3         4.3435   -5.0707    0.0639 N.pl3     1 RES1    0.0000
     12 N4         8.2469   -7.8661   -0.3379 N.pl3     1 RES1    0.0000
     13 C1        17.0128   -1.2574   -8.0498 C.3       1 RES1    0.0000
     14 H3        17.7240   -0.9486   -8.6487 H         1 RES1    0.0000
     15 H4        17.4103   -1.6396   -7.2393 H         1 RES1    0.0000
     16 H5        16.4387   -0.5009   -7.8064 H         1 RES1    0.0000
     17 C2        15.1990   -2.8316   -8.0132 C.ar      1 RES1    0.0000
     18 C3        14.4837   -3.8053   -8.6950 C.ar      1 RES1    0.0000
     19 H6        14.7301   -4.0357   -9.5840 H         1 RES1    0.0000
     20 C4        13.4227   -4.4390   -8.0945 C.ar      1 RES1    0.0000
     21 H7        12.9450   -5.1029   -8.5788 H         1 RES1    0.0000
     22 C5        13.0269   -4.1332   -6.7926 C.ar      1 RES1    0.0000
     23 C6        13.7610   -3.1656   -6.1296 C.ar      1 RES1    0.0000
     24 H8        13.5216   -2.9382   -5.2396 H         1 RES1    0.0000
     25 C7        14.8372   -2.5148   -6.7232 C.ar      1 RES1    0.0000
     26 H9        15.3200   -1.8549   -6.2405 H         1 RES1    0.0000
     27 C8        11.8553   -4.8072   -6.1658 C.ar      1 RES1    0.0000
     28 C9        10.8226   -5.3343   -6.9536 C.ar      1 RES1    0.0000
     29 H10       10.8902   -5.2548   -7.8974 H         1 RES1    0.0000
     30 C10        9.7063   -5.9640   -6.4246 C.ar      1 RES1    0.0000
     31 C11        9.6382   -6.1118   -5.0288 C.ar      1 RES1    0.0000
     32 C12       10.6336   -5.5797   -4.2245 C.ar      1 RES1    0.0000
     33 H11       10.5687   -5.6592   -3.2800 H         1 RES1    0.0000
     34 C13       11.7223   -4.9329   -4.7835 C.ar      1 RES1    0.0000
     35 H12       12.3905   -4.5688   -4.2154 H         1 RES1    0.0000
     36 C14        8.5492   -6.3231   -7.3301 C.3       1 RES1    0.0000
     37 H13        8.1813   -7.2032   -7.0658 H         1 RES1    0.0000
     38 H14        8.8663   -6.3895   -8.2657 H         1 RES1    0.0000
     39 C15        7.4530   -5.2508   -7.2296 C.3       1 RES1    0.0000
     40 H15        7.0420   -5.3041   -6.3294 H         1 RES1    0.0000
     41 H16        7.8753   -4.3596   -7.3113 H         1 RES1    0.0000
     42 C16        6.3445   -5.3584   -8.2747 C.3       1 RES1    0.0000
     43 H17        6.7906   -5.3936   -9.1692 H         1 RES1    0.0000
     44 C17        5.5414   -6.6208   -8.1351 C.2       1 RES1    0.0000
     45 H18        5.0689   -6.7486   -7.3219 H         1 RES1    0.0000
     46 C18        5.4397   -7.5664   -9.0467 C.2       1 RES1    0.0000
     47 H19        5.9450   -7.4557   -9.8443 H         1 RES1    0.0000
     48 C19        4.6021   -8.7936   -8.9386 C.3       1 RES1    0.0000
     49 H20        5.1692   -9.5862   -9.0423 H         1 RES1    0.0000
     50 H21        3.9197   -8.7865   -9.6411 H         1 RES1    0.0000
     51 H22        4.1680   -8.8157   -8.0604 H         1 RES1    0.0000
     52 C20        5.4620   -4.1141   -8.2661 C.3       1 RES1    0.0000
     53 C21        5.9667   -2.9362   -9.0499 C.3       1 RES1    0.0000
     54 H23        6.8391   -3.0278   -9.5099 H         1 RES1    0.0000
     55 H24        5.7720   -2.0309   -8.6995 H         1 RES1    0.0000
     56 C22        4.8005   -3.7601   -9.5726 C.3       1 RES1    0.0000
     57 H25        3.8970   -3.3557   -9.5396 H         1 RES1    0.0000
     58 H26        4.9634   -4.3525  -10.3479 H         1 RES1    0.0000
     59 C23        4.6985   -3.8355   -6.9945 C.ar      1 RES1    0.0000
     60 C24        3.4601   -4.4300   -6.7583 C.ar      1 RES1    0.0000
     61 H27        3.1000   -5.0265   -7.4044 H         1 RES1    0.0000
     62 C25        2.7506   -4.1705   -5.6088 C.ar      1 RES1    0.0000
     63 H28        1.9202   -4.6060   -5.4596 H         1 RES1    0.0000
     64 C26        3.2389   -3.2782   -4.6699 C.ar      1 RES1    0.0000
     65 C27        4.4654   -2.6787   -4.8701 C.ar      1 RES1    0.0000
     66 H29        4.8188   -2.0762   -4.2259 H         1 RES1    0.0000
     67 C28        5.1764   -2.9694   -6.0276 C.ar      1 RES1    0.0000
     68 H30        6.0215   -2.5570   -6.1601 H         1 RES1    0.0000
     69 C29        2.8494   -2.0480   -2.6409 C.3       1 RES1    0.0000
     70 H31        2.1763   -1.9575   -1.9363 H         1 RES1    0.0000
     71 H32        2.9529   -1.1910   -3.1065 H         1 RES1    0.0000
     72 H33        3.7052   -2.3085   -2.2431 H         1 RES1    0.0000
     73 C30        7.5581   -6.5253   -2.3148 C.ar      1 RES1    0.0000
     74 C31        6.6586   -5.5586   -2.7997 C.ar      1 RES1    0.0000
     75 H34        6.7631   -5.2337   -3.6863 H         1 RES1    0.0000
     76 C32        5.6383   -5.0738   -2.0315 C.ar      1 RES1    0.0000
     77 H35        5.0432   -4.4250   -2.3870 H         1 RES1    0.0000
     78 C33        5.4752   -5.5304   -0.7364 C.ar      1 RES1    0.0000
     79 C34        6.3335   -6.4307   -0.2006 C.ar      1 RES1    0.0000
     80 H36        6.2223   -6.7244    0.6962 H         1 RES1    0.0000
     81 C35        7.3759   -6.9176   -0.9724 C.ar      1 RES1    0.0000
     82 O7         7.5957   -8.6759    0.4846 Du        2 SUP2    0.0000
@<TRIPOS>BOND
     1    1   13 1
     2    2   64 1
     3    3   11 2
     4    4   11 2
     5    5   12 2
     6    6   12 2
     7    7    8 1
     8    9    7 1
     9   10    9 1
    10   11   78 1
    11   12   81 1
    12   13   14 1
    13   15   13 1
    14   16   13 1
    15   17    1 1
    16   18   17 ar
    17   19   18 1
    18   20   18 ar
    19   21   20 1
    20   22   20 ar
    21   23   22 ar
    22   24   23 1
    23   25   17 ar
    24   26   25 1
    25   27   22 1
    26   28   27 ar
    27   29   28 1
    28   30   28 ar
    29   31    7 1
    30   32   31 ar
    31   33   32 1
    32   34   27 ar
    33   35   34 1
    34   36   30 1
    35   37   36 1
    36   38   36 1
    37   39   36 1
    38   40   39 1
    39   41   39 1
    40   42   39 1
    41   43   42 1
    42   44   42 1
    43   45   44 1
    44   46   44 2
    45   47   46 1
    46   48   46 1
    47   49   48 1
    48   50   48 1
    49   51   48 1
    50   52   42 1
    51   53   52 1
    52   54   53 1
    53   55   53 1
    54   56   52 1
    55   57   56 1
    56   58   56 1
    57   59   52 1
    58   60   59 ar
    59   61   60 1
    60   62   60 ar
    61   63   62 1
    62   64   62 ar
    63   65   64 ar
    64   66   65 1
    65   67   59 ar
    66   68   67 1
    67   69    2 1
    68   70   69 1
    69   71   69 1
    70   72   69 1
    71   73    9 1
    72   74   73 ar
    73   75   74 1
    74   76   74 ar
    75   77   76 1
    76   78   76 ar
    77   79   78 ar
    78   80   79 1
    79   81   73 ar
    80   23   25 ar
    81   30   31 ar
    82   32   34 ar
    83   53   56 1
    84   65   67 ar
    85   79   81 ar
@<TRIPOS>SUBSTRUCTURE
     1 RES1 1
     2 SUP2 82

@<TRIPOS>CRYSIN
  14.8540   10.0590   22.5570  90.0000 110.2600  90.0000  14 1

