# MOL2 file generated by ConQuest
# Please check atom types

@<TRIPOS>MOLECULE
KUVYOP
    60    66     2
SMALL
NO_CHARGES
****
Generated from CSD

@<TRIPOS>ATOM
      1 C1         9.5544    1.0001    1.2740 C.3       1 RES1    0.0000
      2 C2        10.0025    0.2657    2.5278 C.3       1 RES1    0.0000
      3 C3        10.6066    1.1304    3.6372 C.2       1 RES1    0.0000
      4 N1        10.1080    0.8959    4.8097 N.2       1 RES1    0.0000
      5 O1         9.1386   -0.1427    4.6695 O.3       1 RES1    0.0000
      6 C4         8.8054   -0.3282    3.2958 C.3       1 RES1    0.0000
      7 C5         7.4478    0.3073    3.0093 C.3       1 RES1    0.0000
      8 C6         7.3497    0.9376    1.6215 C.3       1 RES1    0.0000
      9 C7         7.6528   -0.0469    0.4938 C.3       1 RES1    0.0000
     10 O2         9.0915    0.0344    0.3170 O.3       1 RES1    0.0000
     11 O3         8.4689    1.8492    1.4854 O.3       1 RES1    0.0000
     12 C8        11.6840    2.1081    3.4645 C.ar      1 RES1    0.0000
     13 C9        12.5398    1.9956    2.3672 C.ar      1 RES1    0.0000
     14 C10       13.6345    2.8498    2.2453 C.ar      1 RES1    0.0000
     15 C11       13.8770    3.8172    3.2227 C.ar      1 RES1    0.0000
     16 C12       13.0220    3.9302    4.3179 C.ar      1 RES1    0.0000
     17 C13       11.9272    3.0759    4.4398 C.ar      1 RES1    0.0000
     18 C14        8.2901    4.0422    9.6437 C.3       2 RES2    0.0000
     19 C15        9.4173    4.7871   10.3773 C.3       2 RES2    0.0000
     20 C16       10.2170    4.0422   11.4014 C.2       2 RES2    0.0000
     21 N2        11.4766    4.1583   11.2998 N.2       2 RES2    0.0000
     22 O4        11.7769    5.0902   10.2878 O.3       2 RES2    0.0000
     23 C17       10.5371    5.2455    9.4852 C.3       2 RES2    0.0000
     24 C18       10.7353    4.4641    8.1705 C.3       2 RES2    0.0000
     25 C19        9.3816    3.9640    7.7479 C.3       2 RES2    0.0000
     26 C20        8.3028    4.9381    7.5528 C.3       2 RES2    0.0000
     27 O5         7.5967    4.9433    8.8025 O.3       2 RES2    0.0000
     28 O6         8.8829    3.0816    8.7781 O.3       2 RES2    0.0000
     29 C21        9.6371    3.0806   12.4153 C.ar      2 RES2    0.0000
     30 C22        8.3725    3.3478   12.9416 C.ar      2 RES2    0.0000
     31 C23        7.8708    2.5639   13.9799 C.ar      2 RES2    0.0000
     32 C24        8.6314    1.5132   14.4920 C.ar      2 RES2    0.0000
     33 C25        9.8959    1.2460   13.9657 C.ar      2 RES2    0.0000
     34 C26       10.3977    2.0294   12.9274 C.ar      2 RES2    0.0000
     35 H1        10.3961    1.5809    0.9286 H         1 RES1    0.0000
     36 H2        10.7261   -0.4157    2.1051 H         1 RES1    0.0000
     37 H3         8.6623   -1.3523    2.9829 H         1 RES1    0.0000
     38 H4         7.2853    1.0882    3.7368 H         1 RES1    0.0000
     39 H5         6.6779   -0.4417    3.1048 H         1 RES1    0.0000
     40 H6         6.3526    1.3429    1.5443 H         1 RES1    0.0000
     41 H7         7.1333    0.2412   -0.4084 H         1 RES1    0.0000
     42 H8         7.3603   -1.0454    0.7762 H         1 RES1    0.0000
     43 H9        12.3531    1.2465    1.6113 H         1 RES1    0.0000
     44 H10       14.2971    2.7623    1.3980 H         1 RES1    0.0000
     45 H11       14.7256    4.4787    3.1272 H         1 RES1    0.0000
     46 H12       13.2086    4.6792    5.0738 H         1 RES1    0.0000
     47 H13       11.2639    3.1629    5.2892 H         1 RES1    0.0000
     48 H14        7.6302    3.5968   10.3752 H         2 RES2    0.0000
     49 H15        8.7946    5.5491   10.8202 H         2 RES2    0.0000
     50 H16       10.2788    6.2518    9.1845 H         2 RES2    0.0000
     51 H17       11.1241    5.1288    7.4126 H         2 RES2    0.0000
     52 H18       11.4229    3.6453    8.3189 H         2 RES2    0.0000
     53 H19        9.5778    3.5025    6.7929 H         2 RES2    0.0000
     54 H20        8.7198    5.9143    7.3476 H         2 RES2    0.0000
     55 H21        7.6456    4.6501    6.7461 H         2 RES2    0.0000
     56 H22        7.7837    4.1609   12.5454 H         2 RES2    0.0000
     57 H23        6.8928    2.7707   14.3884 H         2 RES2    0.0000
     58 H24        8.2422    0.9064   15.2966 H         2 RES2    0.0000
     59 H25       10.4847    0.4323   14.3619 H         2 RES2    0.0000
     60 H26       11.3778    1.8226   12.5189 H         2 RES2    0.0000
@<TRIPOS>BOND
     1    1    2 1
     2    2    3 1
     3    3    4 2
     4    4    5 1
     5    5    6 1
     6    6    2 1
     7    7    6 1
     8    8    7 1
     9    9    8 1
    10   10    1 1
    11   11    1 1
    12   12    3 1
    13   13   12 ar
    14   14   13 ar
    15   15   14 ar
    16   16   15 ar
    17   17   12 ar
    18   18   19 1
    19   19   20 1
    20   20   21 2
    21   21   22 1
    22   22   23 1
    23   23   19 1
    24   24   23 1
    25   25   24 1
    26   26   25 1
    27   27   18 1
    28   28   18 1
    29   29   20 1
    30   30   29 ar
    31   31   30 ar
    32   32   31 ar
    33   33   32 ar
    34   34   29 ar
    35   35    1 1
    36   36    2 1
    37   37    6 1
    38   38    7 1
    39   39    7 1
    40   40    8 1
    41   41    9 1
    42   42    9 1
    43   43   13 1
    44   44   14 1
    45   45   15 1
    46   46   16 1
    47   47   17 1
    48   48   18 1
    49   49   19 1
    50   50   23 1
    51   51   24 1
    52   52   24 1
    53   53   25 1
    54   54   26 1
    55   55   26 1
    56   56   30 1
    57   57   31 1
    58   58   32 1
    59   59   33 1
    60   60   34 1
    61    8   11 1
    62    9   10 1
    63   16   17 ar
    64   25   28 1
    65   26   27 1
    66   33   34 ar
@<TRIPOS>SUBSTRUCTURE
     1 RES1 1
     2 RES2 18

@<TRIPOS>CRYSIN
  21.2840    5.2090   21.6840  90.0000 110.4330  90.0000 231 1

