# MOL2 file generated by ConQuest
# Please check atom types

@<TRIPOS>MOLECULE
KUVYAB
    53    57     1
SMALL
NO_CHARGES
****
Generated from CSD

@<TRIPOS>ATOM
      1 C1         8.3221    8.6262    5.8108 C.3       1 RES1    0.0000
      2 C2         8.2099   10.1011    5.3918 C.3       1 RES1    0.0000
      3 C3         8.9994   10.3406    4.1586 C.2       1 RES1    0.0000
      4 C4         9.6099    9.3215    3.4058 C.2       1 RES1    0.0000
      5 C5         9.5840    7.8670    3.8054 C.3       1 RES1    0.0000
      6 C6         9.8170    6.8901    2.6762 C.3       1 RES1    0.0000
      7 C7         9.7868    5.4574    3.1941 C.3       1 RES1    0.0000
      8 C8         8.5141    5.1608    3.9877 C.3       1 RES1    0.0000
      9 C9         8.3544    6.1703    5.1513 C.3       1 RES1    0.0000
     10 C10        8.2940    7.6289    4.6321 C.3       1 RES1    0.0000
     11 C11        7.1853    5.8070    6.0920 C.3       1 RES1    0.0000
     12 C12        7.1659    4.3444    6.5430 C.3       1 RES1    0.0000
     13 C13        7.2112    3.4205    5.3405 C.3       1 RES1    0.0000
     14 C14        8.5184    3.7553    4.5701 C.3       1 RES1    0.0000
     15 C15        8.7643    2.5117    3.7077 C.3       1 RES1    0.0000
     16 C16        8.2574    1.4463    4.6365 C.2       1 RES1    0.0000
     17 C17        7.4398    1.9429    5.5860 C.2       1 RES1    0.0000
     18 C18        5.9493    3.5525    4.4799 C.3       1 RES1    0.0000
     19 C19        7.0408    7.8643    3.7753 C.3       1 RES1    0.0000
     20 C20        6.7064    1.1620    6.6068 C.2       1 RES1    0.0000
     21 C21        7.0947   -0.2653    6.8404 C.3       1 RES1    0.0000
     22 N1        10.1858    9.8235    2.3417 N.2       1 RES1    0.0000
     23 N2         9.2022   11.4930    3.5743 N.2       1 RES1    0.0000
     24 O1         5.8069    1.6803    7.2419 O.2       1 RES1    0.0000
     25 O2         9.9529   11.1964    2.4338 O.3       1 RES1    0.0000
     26 H1         9.2561    8.5065    6.3388 H         1 RES1    0.0000
     27 H2         7.5024    8.3854    6.4716 H         1 RES1    0.0000
     28 H3         8.5637   10.7365    6.1903 H         1 RES1    0.0000
     29 H4         7.1745   10.3256    5.1851 H         1 RES1    0.0000
     30 H5        10.4253    7.6017    4.4286 H         1 RES1    0.0000
     31 H6         9.0512    7.0193    1.9271 H         1 RES1    0.0000
     32 H7        10.7855    7.0969    2.2415 H         1 RES1    0.0000
     33 H8        10.6410    5.2941    3.8367 H         1 RES1    0.0000
     34 H9         9.8407    4.7852    2.3499 H         1 RES1    0.0000
     35 H10        7.6901    5.2574    3.2962 H         1 RES1    0.0000
     36 H11        9.2345    6.0873    5.7701 H         1 RES1    0.0000
     37 H12        6.2621    6.0057    5.5666 H         1 RES1    0.0000
     38 H13        7.2435    6.4356    6.9676 H         1 RES1    0.0000
     39 H14        6.2599    4.1512    7.0991 H         1 RES1    0.0000
     40 H15        8.0223    4.1621    7.1749 H         1 RES1    0.0000
     41 H16        9.4157    3.8723    5.1613 H         1 RES1    0.0000
     42 H17        9.8062    2.3783    3.4591 H         1 RES1    0.0000
     43 H18        8.1797    2.5552    2.7996 H         1 RES1    0.0000
     44 H19        8.3415    0.3701    4.6089 H         1 RES1    0.0000
     45 H20        5.7659    4.5811    4.2044 H         1 RES1    0.0000
     46 H21        5.1296    3.1892    5.0805 H         1 RES1    0.0000
     47 H22        6.0356    2.9511    3.5874 H         1 RES1    0.0000
     48 H23        6.2017    7.8411    4.4530 H         1 RES1    0.0000
     49 H24        6.9523    7.0561    3.0639 H         1 RES1    0.0000
     50 H25        7.0559    8.8072    3.2499 H         1 RES1    0.0000
     51 H26        8.0978   -0.5252    6.5367 H         1 RES1    0.0000
     52 H27        6.3850   -0.7715    6.2048 H         1 RES1    0.0000
     53 H28        6.9394   -0.5674    7.8657 H         1 RES1    0.0000
@<TRIPOS>BOND
     1    1    2 1
     2    2    3 1
     3    3    4 un
     4    4    5 1
     5    5    6 1
     6    6    7 1
     7    7    8 1
     8    8    9 1
     9    9   10 1
    10   10    1 1
    11   11    9 1
    12   12   11 1
    13   13   12 1
    14   14    8 1
    15   15   14 1
    16   16   15 1
    17   17   13 1
    18   18   13 1
    19   19   10 1
    20   20   17 1
    21   21   20 1
    22   22    4 un
    23   23    3 un
    24   24   20 2
    25   25   22 1
    26   26    1 1
    27   27    1 1
    28   28    2 1
    29   29    2 1
    30   30    5 1
    31   31    6 1
    32   32    6 1
    33   33    7 1
    34   34    7 1
    35   35    8 1
    36   36    9 1
    37   37   11 1
    38   38   11 1
    39   39   12 1
    40   40   12 1
    41   41   14 1
    42   42   15 1
    43   43   15 1
    44   44   16 1
    45   45   18 1
    46   46   18 1
    47   47   18 1
    48   48   19 1
    49   49   19 1
    50   50   19 1
    51   51   21 1
    52   52   21 1
    53   53   21 1
    54    5   10 1
    55   13   14 1
    56   16   17 2
    57   23   25 1
@<TRIPOS>SUBSTRUCTURE
     1 RES1 1

@<TRIPOS>CRYSIN
  21.5710   13.6060    6.2630  90.0000  90.0000  90.0000  19 1

