# MOL2 file generated by ConQuest
# Please check atom types

@<TRIPOS>MOLECULE
KUVZAC
    41    44     1
SMALL
NO_CHARGES
****
Generated from CSD

@<TRIPOS>ATOM
      1 O1         8.3401    0.7876    3.4511 O.3       1 RES1    0.0000
      2 N1         9.7108   -1.5345    6.3997 N.3       1 RES1    0.0000
      3 O2        10.8195   -1.6412    1.6902 O.3       1 RES1    0.0000
      4 C1        10.1582   -1.4223    3.8774 C.3       1 RES1    0.0000
      5 C2        10.6347   -0.0132    3.4435 C.3       1 RES1    0.0000
      6 C3        11.2255   -3.1097    7.0033 C.ar      1 RES1    0.0000
      7 N2        10.8558   -2.3408    2.9508 N.3       1 RES1    0.0000
      8 C4        12.3089   -3.4133    4.5866 C.3       1 RES1    0.0000
      9 C5        10.1758   -2.2935    7.4732 C.ar      1 RES1    0.0000
     10 C6        11.8504   -3.9897    7.8919 C.ar      1 RES1    0.0000
     11 C7         9.7519   -2.3056    8.8055 C.ar      1 RES1    0.0000
     12 C8        11.4209   -4.0348    9.2014 C.ar      1 RES1    0.0000
     13 C9        10.4425   -1.8865    5.2740 C.2       1 RES1    0.0000
     14 C10       10.9213   -0.2035    1.9306 C.3       1 RES1    0.0000
     15 C11        9.6844    1.1187    3.7926 C.3       1 RES1    0.0000
     16 C12       12.2732   -2.5608    3.3184 C.3       1 RES1    0.0000
     17 C13       11.3777   -2.8237    5.6024 C.2       1 RES1    0.0000
     18 C14       10.3849   -3.2142    9.6539 C.ar      1 RES1    0.0000
     19 C15        8.5426   -0.6699    6.4823 C.3       1 RES1    0.0000
     20 C16        9.9880    0.4169    0.9365 C.2       1 RES1    0.0000
     21 C17       10.3783    1.2144   -0.0152 C.2       1 RES1    0.0000
     22 H1        12.6737   -4.6200    7.5591 H         1 RES1    0.0000
     23 H2        11.8754   -4.6860    9.8757 H         1 RES1    0.0000
     24 H3        10.1004   -3.3220   10.6697 H         1 RES1    0.0000
     25 H4         8.9653   -1.6390    9.1253 H         1 RES1    0.0000
     26 H5        12.0277   -4.4220    4.3397 H         1 RES1    0.0000
     27 H6        13.2998   -3.4210    4.9270 H         1 RES1    0.0000
     28 H7        12.7483   -1.6500    3.4804 H         1 RES1    0.0000
     29 H8        12.7366   -3.0470    2.5342 H         1 RES1    0.0000
     30 H9        11.9094    0.2420    1.7728 H         1 RES1    0.0000
     31 H10        9.1146   -1.4850    3.7850 H         1 RES1    0.0000
     32 H11       11.5156    0.2420    3.9590 H         1 RES1    0.0000
     33 H12        8.9510    0.1760    1.0115 H         1 RES1    0.0000
     34 H13        9.7805    1.3200    4.8726 H         1 RES1    0.0000
     35 H14        9.9591    1.9800    3.2303 H         1 RES1    0.0000
     36 H15        8.6857    0.0770    7.2002 H         1 RES1    0.0000
     37 H16        8.3705   -0.1980    5.5687 H         1 RES1    0.0000
     38 H17        7.7334   -1.2430    6.7760 H         1 RES1    0.0000
     39 H18        7.7175    0.8140    4.3179 H         1 RES1    0.0000
     40 H19        9.7145    1.5950   -0.7070 H         1 RES1    0.0000
     41 H20       11.3922    1.4410   -0.1088 H         1 RES1    0.0000
@<TRIPOS>BOND
     1    1   15 1
     2    2    9 1
     3    3    7 1
     4    4    5 1
     5    5   14 1
     6    6    9 ar
     7    7    4 1
     8    8   16 1
     9    9   11 ar
    10   10    6 ar
    11   11   18 ar
    12   12   10 ar
    13   13    2 1
    14   14    3 1
    15   15    5 1
    16   16    7 1
    17   17    6 1
    18   18   12 ar
    19   19    2 1
    20   20   14 1
    21   21   20 2
    22   22   10 1
    23   23   12 1
    24   24   18 1
    25   25   11 1
    26   26    8 1
    27   27    8 1
    28   28   16 1
    29   29   16 1
    30   30   14 1
    31   31    4 1
    32   32    5 1
    33   33   20 1
    34   34   15 1
    35   35   15 1
    36   36   19 1
    37   37   19 1
    38   38   19 1
    39   39    1 1
    40   40   21 1
    41   41   21 1
    42    4   13 1
    43    8   17 1
    44   13   17 2
@<TRIPOS>SUBSTRUCTURE
     1 RES1 1

@<TRIPOS>CRYSIN
  12.3200   11.0000   10.9100  90.0000  94.5000  90.0000 231 1

