# MOL2 file generated by ConQuest
# Please check atom types

@<TRIPOS>MOLECULE
KUXSEC
    17    17     1
SMALL
NO_CHARGES
****
Generated from CSD

@<TRIPOS>ATOM
      1 O1         6.1812    7.2729    5.3228 O.3       1 RES1    0.0000
      2 N1         5.3106    7.0559    4.2092 N.2       1 RES1    0.0000
      3 C1         4.9583    8.2762    3.9197 C.2       1 RES1    0.0000
      4 N2         5.4959    9.2594    4.7059 N.2       1 RES1    0.0000
      5 C2         6.2235    8.5873    5.5330 C.2       1 RES1    0.0000
      6 C3         7.0672    9.0473    6.6541 C.3       1 RES1    0.0000
      7 N3         4.1106    8.6246    2.8872 N.am      1 RES1    0.0000
      8 C4         3.4871    7.7510    2.0420 C.2       1 RES1    0.0000
      9 O2         3.6208    6.5485    2.1632 O.2       1 RES1    0.0000
     10 C5         2.6519    8.3784    0.9733 C.3       1 RES1    0.0000
     11 H1         6.6951    8.7689    7.4895 H         1 RES1    0.0000
     12 H2         7.9452    8.6335    6.5817 H         1 RES1    0.0000
     13 H3         7.1710    9.9387    6.6515 H         1 RES1    0.0000
     14 H4         3.9582    9.4466    2.7845 H         1 RES1    0.0000
     15 H5         1.8007    7.9365    0.9323 H         1 RES1    0.0000
     16 H6         3.0980    8.2942    0.1274 H         1 RES1    0.0000
     17 H7         2.5202    9.3074    1.1749 H         1 RES1    0.0000
@<TRIPOS>BOND
     1    1    2 1
     2    2    3 2
     3    3    4 1
     4    4    5 2
     5    5    1 1
     6    6    5 1
     7    7    3 1
     8    8    7 1
     9    9    8 2
    10   10    8 1
    11   11    6 1
    12   12    6 1
    13   13    6 1
    14   14    7 1
    15   15   10 1
    16   16   10 1
    17   17   10 1
@<TRIPOS>SUBSTRUCTURE
     1 RES1 1

@<TRIPOS>CRYSIN
   7.9490    9.6680    8.8400  90.0000  99.0900  90.0000  14 1

