# MOL2 file generated by ConQuest
# Please check atom types

@<TRIPOS>MOLECULE
KUYGUI
    64    64     2
SMALL
NO_CHARGES
****
Generated from CSD

@<TRIPOS>ATOM
      1 O1        -1.9852    5.1129    9.0315 O.2       1 RES1    0.0000
      2 O2         0.1744    5.1950    9.0847 O.2       1 RES1    0.0000
      3 O3         2.2256    2.3742    8.5331 O.2       1 RES1    0.0000
      4 O4         2.9309    4.2323    7.6293 O.3       1 RES1    0.0000
      5 O5         1.5129    5.5490    6.1994 O.3       1 RES1    0.0000
      6 O6        -0.5920    5.0089    5.9415 O.2       1 RES1    0.0000
      7 N1        -0.8943    4.5749    9.0332 N.pl3     1 RES1    0.0000
      8 C1        -2.0786    2.3964    9.3719 C.3       1 RES1    0.0000
      9 H1        -2.2758    2.6363   10.2798 H         1 RES1    0.0000
     10 H2        -1.9815    1.4432    9.3074 H         1 RES1    0.0000
     11 H3        -2.7948    2.6845    8.8018 H         1 RES1    0.0000
     12 C2        -0.7900    3.0653    8.9410 C.3       1 RES1    0.0000
     13 H4        -0.0727    2.7682    9.5389 H         1 RES1    0.0000
     14 C3        -0.4217    2.6632    7.5111 C.3       1 RES1    0.0000
     15 H5        -1.1892    2.8531    6.9489 H         1 RES1    0.0000
     16 H6        -0.2967    1.7013    7.5036 H         1 RES1    0.0000
     17 C4         0.8098    3.2929    6.8357 C.3       1 RES1    0.0000
     18 C5         2.0195    3.2557    7.7472 C.2       1 RES1    0.0000
     19 C6         2.8341    5.3672    6.7618 C.3       1 RES1    0.0000
     20 C7         0.5031    4.6811    6.3201 C.2       1 RES1    0.0000
     21 C8         1.1446    2.4163    5.5982 C.3       1 RES1    0.0000
     22 H7         1.8679    2.8164    5.1089 H         1 RES1    0.0000
     23 H8         0.3716    2.3529    5.0326 H         1 RES1    0.0000
     24 H9         1.4012    1.5384    5.8886 H         1 RES1    0.0000
     25 C9         3.8151    5.2001    5.6331 C.3       1 RES1    0.0000
     26 H10        3.5560    4.4501    5.0921 H         1 RES1    0.0000
     27 H11        4.6925    5.0489    5.9920 H         1 RES1    0.0000
     28 H12        3.8219    5.9954    5.0946 H         1 RES1    0.0000
     29 C10        3.0819    6.5798    7.6218 C.3       1 RES1    0.0000
     30 H13        2.3918    6.6481    8.2859 H         1 RES1    0.0000
     31 H14        3.0776    7.3674    7.0730 H         1 RES1    0.0000
     32 H15        3.9350    6.4967    8.0544 H         1 RES1    0.0000
     33 O7         3.6671    6.3828    0.4590 O.2       2 RES2    0.0000
     34 O8         1.5257    6.1663    0.6478 O.2       2 RES2    0.0000
     35 O9        -0.2395    3.5867   -1.0259 O.2       2 RES2    0.0000
     36 O10       -1.0190    4.1965    0.9124 O.3       2 RES2    0.0000
     37 O11        0.4074    4.3135    2.8442 O.3       2 RES2    0.0000
     38 O12        2.5506    3.9223    2.6695 O.2       2 RES2    0.0000
     39 N2         2.6051    5.8632    0.1509 N.pl3     2 RES2    0.0000
     40 C11        3.8210    4.7770   -1.7286 C.3       2 RES2    0.0000
     41 H16        3.9037    5.6420   -2.1348 H         2 RES2    0.0000
     42 H17        3.7502    4.1070   -2.4128 H         2 RES2    0.0000
     43 H18        4.5955    4.6015   -1.1883 H         2 RES2    0.0000
     44 C12        2.5770    4.7439   -0.8559 C.3       2 RES2    0.0000
     45 H19        1.7948    4.8699   -1.4327 H         2 RES2    0.0000
     46 C13        2.4289    3.4036   -0.1328 C.3       2 RES2    0.0000
     47 H20        3.2373    3.2570    0.3827 H         2 RES2    0.0000
     48 H21        2.3926    2.7086   -0.8082 H         2 RES2    0.0000
     49 C14        1.2235    3.1976    0.8171 C.3       2 RES2    0.0000
     50 C15       -0.0537    3.6739    0.1521 C.2       2 RES2    0.0000
     51 C16       -0.9518    4.3573    2.3417 C.3       2 RES2    0.0000
     52 C17        1.4665    3.8604    2.1626 C.2       2 RES2    0.0000
     53 C18        1.0978    1.6801    1.1087 C.3       2 RES2    0.0000
     54 H22        0.3889    1.5327    1.7392 H         2 RES2    0.0000
     55 H23        1.9243    1.3549    1.4741 H         2 RES2    0.0000
     56 H24        0.9034    1.2126    0.2935 H         2 RES2    0.0000
     57 C19       -1.7562    3.2679    2.9955 C.3       2 RES2    0.0000
     58 H25       -1.3854    2.4138    2.7633 H         2 RES2    0.0000
     59 H26       -2.6657    3.3155    2.6921 H         2 RES2    0.0000
     60 H27       -1.7305    3.3797    3.9490 H         2 RES2    0.0000
     61 C20       -1.4571    5.7401    2.6418 C.3       2 RES2    0.0000
     62 H28       -0.9017    6.3866    2.2008 H         2 RES2    0.0000
     63 H29       -1.4328    5.8910    3.5895 H         2 RES2    0.0000
     64 H30       -2.3600    5.8256    2.3275 H         2 RES2    0.0000
@<TRIPOS>BOND
     1    1    7 2
     2    2    7 2
     3    3   18 2
     4    4   18 1
     5    5   19 1
     6    6   20 2
     7    7   12 1
     8    8    9 1
     9   10    8 1
    10   11    8 1
    11   12    8 1
    12   13   12 1
    13   14   12 1
    14   15   14 1
    15   16   14 1
    16   17   14 1
    17   18   17 1
    18   19    4 1
    19   20    5 1
    20   21   17 1
    21   22   21 1
    22   23   21 1
    23   24   21 1
    24   25   19 1
    25   26   25 1
    26   27   25 1
    27   28   25 1
    28   29   19 1
    29   30   29 1
    30   31   29 1
    31   32   29 1
    32   33   39 2
    33   34   39 2
    34   35   50 2
    35   36   50 1
    36   37   51 1
    37   38   52 2
    38   39   44 1
    39   40   41 1
    40   42   40 1
    41   43   40 1
    42   44   40 1
    43   45   44 1
    44   46   44 1
    45   47   46 1
    46   48   46 1
    47   49   46 1
    48   50   49 1
    49   51   36 1
    50   52   37 1
    51   53   49 1
    52   54   53 1
    53   55   53 1
    54   56   53 1
    55   57   51 1
    56   58   57 1
    57   59   57 1
    58   60   57 1
    59   61   51 1
    60   62   61 1
    61   63   61 1
    62   64   61 1
    63   17   20 1
    64   49   52 1
@<TRIPOS>SUBSTRUCTURE
     1 RES1 1
     2 RES2 33

@<TRIPOS>CRYSIN
   7.8901   11.4722   12.9352  90.0000  91.5360  90.0000   4 1

