# MOL2 file generated by ConQuest
# Please check atom types

@<TRIPOS>MOLECULE
KUYVEF
    41    44     1
SMALL
NO_CHARGES
****
Generated from CSD

@<TRIPOS>ATOM
      1 C1         3.2177    2.8576    7.1262 C.ar      1 RES1    0.0000
      2 C2         2.7600    3.2167    8.3851 C.ar      1 RES1    0.0000
      3 C3         3.4237    2.9339    9.5378 C.ar      1 RES1    0.0000
      4 C4         4.6348    2.2276    9.4083 C.ar      1 RES1    0.0000
      5 C5         5.1235    1.8275    8.1986 C.ar      1 RES1    0.0000
      6 C6         4.4281    2.1464    7.0459 C.ar      1 RES1    0.0000
      7 C7         5.0350    1.7913    5.7533 C.2       1 RES1    0.0000
      8 C8         5.0283    2.1317    3.3882 C.3       1 RES1    0.0000
      9 C9         5.8817    3.3184    2.9764 C.3       1 RES1    0.0000
     10 C10        6.5253    2.9760    1.6294 C.3       1 RES1    0.0000
     11 C11        5.3333    2.9642    0.6580 C.3       1 RES1    0.0000
     12 C12        4.2284    3.4397    1.6164 C.3       1 RES1    0.0000
     13 C13        3.8910    2.1464    2.3676 C.3       1 RES1    0.0000
     14 C14        6.7929    3.9171    4.0229 C.3       1 RES1    0.0000
     15 C15        3.9820    1.0429    1.3004 C.3       1 RES1    0.0000
     16 C16        4.9081    1.5819    0.1969 C.3       1 RES1    0.0000
     17 N1         5.4141    1.9615   10.6258 N.pl3     1 RES1    0.0000
     18 N2         1.5148    4.0120    8.4810 N.pl3     1 RES1    0.0000
     19 O1         4.4400    2.3469    4.7145 O.3       1 RES1    0.0000
     20 O2         4.9105    2.2061   11.7138 O.2       1 RES1    0.0000
     21 O3         6.5406    1.5105   10.4833 O.2       1 RES1    0.0000
     22 O4         0.8316    4.1167    7.4811 O.2       1 RES1    0.0000
     23 O5         1.2392    4.5012    9.5534 O.2       1 RES1    0.0000
     24 O6         5.9993    1.0849    5.6807 O.2       1 RES1    0.0000
     25 O7         4.8700    4.2703    2.5852 O.3       1 RES1    0.0000
     26 H1         5.5403    1.3256    3.4193 H         1 RES1    0.0000
     27 H2         5.5204    3.4749   -0.1192 H         1 RES1    0.0000
     28 H3         3.4901    3.8819    1.1838 H         1 RES1    0.0000
     29 H4         3.0332    2.0476    2.8080 H         1 RES1    0.0000
     30 H5         2.7083    3.0983    6.3258 H         1 RES1    0.0000
     31 H6         3.0825    3.2489   10.3953 H         1 RES1    0.0000
     32 H7         5.9418    1.3090    8.1416 H         1 RES1    0.0000
     33 H8         6.9615    2.1327    1.6553 H         1 RES1    0.0000
     34 H9         7.1680    3.6461    1.3859 H         1 RES1    0.0000
     35 H10        3.1044    0.8580    0.9455 H         1 RES1    0.0000
     36 H11        4.3178    0.2397    1.6889 H         1 RES1    0.0000
     37 H12        5.6761    1.0057    0.1140 H         1 RES1    0.0000
     38 H13        4.4621    1.6162   -0.6295 H         1 RES1    0.0000
     39 H14        6.2087    4.0893    4.9088 H         1 RES1    0.0000
     40 H15        7.1747    4.7174    3.6861 H         1 RES1    0.0000
     41 H16        7.5103    3.2949    4.2042 H         1 RES1    0.0000
@<TRIPOS>BOND
     1    1    2 ar
     2    2    3 ar
     3    3    4 ar
     4    4    5 ar
     5    5    6 ar
     6    6    1 ar
     7    7    6 1
     8    8    9 1
     9    9   10 1
    10   10   11 1
    11   11   12 1
    12   12   13 1
    13   13    8 1
    14   14    9 1
    15   15   13 1
    16   16   11 1
    17   17    4 1
    18   18    2 1
    19   19    7 1
    20   20   17 2
    21   21   17 2
    22   22   18 2
    23   23   18 2
    24   24    7 2
    25   25    9 1
    26   26    8 1
    27   27   11 1
    28   28   12 1
    29   29   13 1
    30   30    1 1
    31   31    3 1
    32   32    5 1
    33   33   10 1
    34   34   10 1
    35   35   15 1
    36   36   15 1
    37   37   16 1
    38   38   16 1
    39   39   14 1
    40   40   14 1
    41   41   14 1
    42    8   19 1
    43   12   25 1
    44   15   16 1
@<TRIPOS>SUBSTRUCTURE
     1 RES1 1

@<TRIPOS>CRYSIN
   6.2130    9.7830   25.9040  90.0000  90.0500  90.0000 231 1

