# MOL2 file generated by ConQuest
# Please check atom types

@<TRIPOS>MOLECULE
KUYYAE
    48    50     2
SMALL
NO_CHARGES
****
Generated from CSD

@<TRIPOS>ATOM
      1 O1         2.9229    3.5613   10.5859 O.2       1 RES1    0.0000
      2 O2         1.6351    3.9481    8.9155 O.2       1 RES1    0.0000
      3 O3         1.4425   -1.1852    5.7161 O.2       1 RES1    0.0000
      4 O4         0.7137    0.8291    5.5662 O.2       1 RES1    0.0000
      5 O5         5.4011   -0.2585   13.7831 O.co2     1 RES1    0.0000
      6 O6         4.7446    1.8477   13.3982 O.co2     1 RES1    0.0000
      7 N1         4.0032    1.2063   10.9006 N.3       1 RES1    0.0000
      8 N2         2.3393    3.2014    9.5620 N.pl3     1 RES1    0.0000
      9 N3         1.3287   -0.0536    6.1436 N.pl3     1 RES1    0.0000
     10 C1         3.3155    0.8903    9.7906 C.ar      1 RES1    0.0000
     11 C2         2.5011    1.8515    9.0931 C.ar      1 RES1    0.0000
     12 C3         1.8478    1.5069    7.9309 C.ar      1 RES1    0.0000
     13 C4         1.9717    0.2681    7.4142 C.ar      1 RES1    0.0000
     14 C5         2.7361   -0.7123    8.0723 C.ar      1 RES1    0.0000
     15 C6         3.3874   -0.3906    9.2196 C.ar      1 RES1    0.0000
     16 C7         4.9821    0.3312   11.5439 C.3       1 RES1    0.0000
     17 C8         6.3607    0.5629   10.8953 C.3       1 RES1    0.0000
     18 C9         7.4448   -0.3542   11.4014 C.ar      1 RES1    0.0000
     19 C10        7.6197   -1.6141   10.8294 C.ar      1 RES1    0.0000
     20 C11        8.5952   -2.4508   11.3068 C.ar      1 RES1    0.0000
     21 C12        9.3941   -2.0851   12.3626 C.ar      1 RES1    0.0000
     22 C13        9.2349   -0.8540   12.9325 C.ar      1 RES1    0.0000
     23 C14        8.2531    0.0364   12.4764 C.ar      1 RES1    0.0000
     24 C15        5.0232    0.7544   13.0038 C.2       1 RES1    0.0000
     25 O7         4.6848    1.4399    5.5832 O.2       2 RES2    0.0000
     26 O8         5.6816    0.9803    7.4322 O.2       2 RES2    0.0000
     27 O9         6.4125    4.1951   10.7826 O.2       2 RES2    0.0000
     28 O10        6.3966    6.2994   10.2924 O.2       2 RES2    0.0000
     29 O11        2.7218    5.3382    2.0510 O.co2     2 RES2    0.0000
     30 O12        2.9443    3.2110    2.7464 O.co2     2 RES2    0.0000
     31 N4         4.5278    3.9443    4.7719 N.3       2 RES2    0.0000
     32 N5         5.2017    1.7749    6.6422 N.pl3     2 RES2    0.0000
     33 N6         6.2078    5.1237    9.9915 N.pl3     2 RES2    0.0000
     34 C16        4.9151    4.1970    6.0309 C.ar      2 RES2    0.0000
     35 C17        5.2350    3.1995    6.9729 C.ar      2 RES2    0.0000
     36 C18        5.6576    3.4982    8.2680 C.ar      2 RES2    0.0000
     37 C19        5.7292    4.8002    8.6529 C.ar      2 RES2    0.0000
     38 C20        5.4129    5.8475    7.7767 C.ar      2 RES2    0.0000
     39 C21        5.0098    5.5411    6.5019 C.ar      2 RES2    0.0000
     40 C22        4.3429    4.9055    3.7023 C.3       2 RES2    0.0000
     41 C23        5.6157    5.1199    2.8708 C.3       2 RES2    0.0000
     42 C24        6.7609    5.5699    3.7491 C.ar      2 RES2    0.0000
     43 C25        7.5297    4.6393    4.4072 C.ar      2 RES2    0.0000
     44 C26        8.5106    5.0337    5.3153 C.ar      2 RES2    0.0000
     45 C27        8.7440    6.3683    5.5077 C.ar      2 RES2    0.0000
     46 C28        8.0075    7.3161    4.8485 C.ar      2 RES2    0.0000
     47 C29        7.0386    6.9236    3.9479 C.ar      2 RES2    0.0000
     48 C30        3.2353    4.3483    2.7932 C.2       2 RES2    0.0000
@<TRIPOS>BOND
     1    1    8 2
     2    2    8 2
     3    3    9 2
     4    4    9 2
     5    5   24 1
     6    6   24 2
     7    7   10 1
     8    8   11 1
     9    9   13 1
    10   10   11 ar
    11   11   12 ar
    12   12   13 ar
    13   13   14 ar
    14   14   15 ar
    15   15   10 ar
    16   16    7 1
    17   17   16 1
    18   18   17 1
    19   19   18 ar
    20   20   19 ar
    21   21   20 ar
    22   22   21 ar
    23   23   18 ar
    24   24   16 1
    25   25   32 2
    26   26   32 2
    27   27   33 2
    28   28   33 2
    29   29   48 1
    30   30   48 2
    31   31   34 1
    32   32   35 1
    33   33   37 1
    34   34   35 ar
    35   35   36 ar
    36   36   37 ar
    37   37   38 ar
    38   38   39 ar
    39   39   34 ar
    40   40   31 1
    41   41   40 1
    42   42   41 1
    43   43   42 ar
    44   44   43 ar
    45   45   44 ar
    46   46   45 ar
    47   47   42 ar
    48   48   40 1
    49   22   23 ar
    50   46   47 ar
@<TRIPOS>SUBSTRUCTURE
     1 RES1 1
     2 RES2 25

@<TRIPOS>CRYSIN
   7.2940   19.1470   10.7600  90.0000  98.8230  90.0000   4 1

