# MOL2 file generated by ConQuest
# Please check atom types

@<TRIPOS>MOLECULE
KUYYAF
    50    52     2
SMALL
NO_CHARGES
****
Generated from CSD

@<TRIPOS>ATOM
      1 O1         5.0473   11.5607    6.7907 O.2       1 RES1    0.0000
      2 O2         5.1421   12.1403    8.8580 O.2       1 RES1    0.0000
      3 O3         4.8940    9.0730   12.3653 O.2       1 RES1    0.0000
      4 O4         4.8902    6.9626   12.0043 O.2       1 RES1    0.0000
      5 O5         4.8642    9.7465    3.5608 O.2       1 RES1    0.0000
      6 O6         4.3902    7.6654    2.8703 O.3       1 RES1    0.0000
      7 N1         4.4850    9.0804    6.1154 N.3       1 RES1    0.0000
      8 N2         5.0109   11.2921    7.9864 N.pl3     1 RES1    0.0000
      9 N3         4.8655    8.1126   11.6185 N.pl3     1 RES1    0.0000
     10 C1         4.6694    8.8651    7.4181 C.ar      1 RES1    0.0000
     11 C2         4.8551    9.8992    8.3831 C.ar      1 RES1    0.0000
     12 C3         4.8759    9.6563    9.7489 C.ar      1 RES1    0.0000
     13 C4         4.8083    8.3591   10.1868 C.ar      1 RES1    0.0000
     14 C5         4.7330    7.2901    9.2891 C.ar      1 RES1    0.0000
     15 C6         4.6759    7.5311    7.9644 C.ar      1 RES1    0.0000
     16 C7         4.0331    8.1015    5.1463 C.3       1 RES1    0.0000
     17 C8         2.5399    7.9175    5.0941 C.3       1 RES1    0.0000
     18 C9         1.9802    7.4391    6.4146 C.ar      1 RES1    0.0000
     19 C10        1.5647    8.3131    7.4153 C.ar      1 RES1    0.0000
     20 C11        1.1751    7.8531    8.6549 C.ar      1 RES1    0.0000
     21 C12        1.1712    6.4970    8.9088 C.ar      1 RES1    0.0000
     22 C13        1.5257    5.6175    7.9301 C.ar      1 RES1    0.0000
     23 C14        1.9153    6.0536    6.6809 C.ar      1 RES1    0.0000
     24 C15        4.4954    8.6241    3.7818 C.2       1 RES1    0.0000
     25 C16        4.6837    8.0445    1.4976 C.3       1 RES1    0.0000
     26 O7         1.5543    9.2055   14.0043 O.2       2 RES2    0.0000
     27 O8         1.7621    8.6609   11.9452 O.2       2 RES2    0.0000
     28 O9         2.1984   11.7631    8.4805 O.2       2 RES2    0.0000
     29 O10        2.0309   13.8773    8.8594 O.2       2 RES2    0.0000
     30 O11        1.2673   10.9167   17.1944 O.2       2 RES2    0.0000
     31 O12        1.2505   13.0180   17.8945 O.3       2 RES2    0.0000
     32 N4         0.9648   11.6822   14.6453 N.3       2 RES2    0.0000
     33 N5         1.6322    9.4907   12.8183 N.pl3     2 RES2    0.0000
     34 N6         2.0477   12.7199    9.2355 N.pl3     2 RES2    0.0000
     35 C17        1.3063   11.9490   13.3674 C.ar      2 RES2    0.0000
     36 C18        1.5907   10.9094   12.4339 C.ar      2 RES2    0.0000
     37 C19        1.8659   11.1670   11.1038 C.ar      2 RES2    0.0000
     38 C20        1.8452   12.4439   10.6631 C.ar      2 RES2    0.0000
     39 C21        1.6153   13.5166   11.5224 C.ar      2 RES2    0.0000
     40 C22        1.3465   13.2664   12.8196 C.ar      2 RES2    0.0000
     41 C23        0.6220   12.6574   15.6625 C.3       2 RES2    0.0000
     42 C24       -0.8674   12.9150   15.7559 C.3       2 RES2    0.0000
     43 C25       -1.4296   13.5939   14.5190 C.ar      2 RES2    0.0000
     44 C26       -1.3569   14.9776   14.4298 C.ar      2 RES2    0.0000
     45 C27       -1.7478   15.6124   13.2575 C.ar      2 RES2    0.0000
     46 C28       -2.2062   14.8911   12.1923 C.ar      2 RES2    0.0000
     47 C29       -2.3321   13.5350   12.2966 C.ar      2 RES2    0.0000
     48 C30       -1.9231   12.8782   13.4511 C.ar      2 RES2    0.0000
     49 C31        1.0868   12.0612   16.9913 C.2       2 RES2    0.0000
     50 C32        1.6296   12.5782   19.2398 C.3       2 RES2    0.0000
@<TRIPOS>BOND
     1    1    8 2
     2    2    8 2
     3    3    9 2
     4    4    9 2
     5    5   24 2
     6    6   24 1
     7    7   10 1
     8    8   11 1
     9    9   13 1
    10   10   11 ar
    11   11   12 ar
    12   12   13 ar
    13   13   14 ar
    14   14   15 ar
    15   15   10 ar
    16   16    7 1
    17   17   16 1
    18   18   17 1
    19   19   18 ar
    20   20   19 ar
    21   21   20 ar
    22   22   21 ar
    23   23   18 ar
    24   24   16 1
    25   25    6 1
    26   26   33 2
    27   27   33 2
    28   28   34 2
    29   29   34 2
    30   30   49 2
    31   31   49 1
    32   32   35 1
    33   33   36 1
    34   34   38 1
    35   35   36 ar
    36   36   37 ar
    37   37   38 ar
    38   38   39 ar
    39   39   40 ar
    40   40   35 ar
    41   41   32 1
    42   42   41 1
    43   43   42 1
    44   44   43 ar
    45   45   44 ar
    46   46   45 ar
    47   47   46 ar
    48   48   43 ar
    49   49   41 1
    50   50   31 1
    51   22   23 ar
    52   47   48 ar
@<TRIPOS>SUBSTRUCTURE
     1 RES1 1
     2 RES2 26

@<TRIPOS>CRYSIN
  12.9850   18.4000   13.7270  90.0000  90.0000  90.0000  18 1

