# MOL2 file generated by ConQuest
# Please check atom types

@<TRIPOS>MOLECULE
KUZBUE
    91    94     3
SMALL
NO_CHARGES
****
Generated from CSD

@<TRIPOS>ATOM
      1 C1        -0.7108   11.3416    7.4108 C.3       1 RES1    0.0000
      2 H1        -1.5920   10.9360    7.5521 H         1 RES1    0.0000
      3 C2         0.2343   10.1511    7.2444 C.3       1 RES1    0.0000
      4 H2         0.1586    9.6070    8.0445 H         1 RES1    0.0000
      5 H3        -0.0991    9.6174    6.5067 H         1 RES1    0.0000
      6 C3         1.7023   10.3913    6.9994 C.2       1 RES1    0.0000
      7 C4         1.3224   11.8703    4.9619 C.3       1 RES1    0.0000
      8 C5         0.2349   12.8314    5.4892 C.3       1 RES1    0.0000
      9 H4        -0.1803   13.2010    4.6819 H         1 RES1    0.0000
     10 C6         0.6384   14.0546    6.3105 C.ar      1 RES1    0.0000
     11 C7         1.7568   14.1386    7.1157 C.ar      1 RES1    0.0000
     12 H5         2.3586   13.4298    7.1426 H         1 RES1    0.0000
     13 C8         1.9922   15.2686    7.8843 C.ar      1 RES1    0.0000
     14 H6         2.7508   15.3121    8.4197 H         1 RES1    0.0000
     15 C9         1.1202   16.3179    7.8632 C.ar      1 RES1    0.0000
     16 H7         1.2834   17.0737    8.3802 H         1 RES1    0.0000
     17 C10        0.0046   16.2497    7.0781 C.ar      1 RES1    0.0000
     18 H8        -0.6006   16.9552    7.0728 H         1 RES1    0.0000
     19 C11       -0.2315   15.1357    6.2896 C.ar      1 RES1    0.0000
     20 H9        -0.9822   15.1124    5.7404 H         1 RES1    0.0000
     21 C12       -0.4936   12.2118    8.6327 C.ar      1 RES1    0.0000
     22 C13       -1.3658   13.2694    8.8509 C.ar      1 RES1    0.0000
     23 H10       -2.0177   13.4651    8.2170 H         1 RES1    0.0000
     24 C14       -1.2777   14.0327    9.9956 C.ar      1 RES1    0.0000
     25 H11       -1.8599   14.7463   10.1221 H         1 RES1    0.0000
     26 C15       -0.3368   13.7463   10.9431 C.ar      1 RES1    0.0000
     27 H12       -0.2777   14.2617   11.7152 H         1 RES1    0.0000
     28 C16        0.5217   12.6921   10.7501 C.ar      1 RES1    0.0000
     29 H13        1.1552   12.4897   11.4005 H         1 RES1    0.0000
     30 C17        0.4529   11.9281    9.5982 C.ar      1 RES1    0.0000
     31 H14        1.0447   11.2230    9.4743 H         1 RES1    0.0000
     32 C18        0.6679   10.8391    4.0330 C.3       1 RES1    0.0000
     33 H15        1.3326   10.2164    3.7260 H         1 RES1    0.0000
     34 H16        0.2782   11.2896    3.2797 H         1 RES1    0.0000
     35 H17       -0.0164   10.3661    4.5120 H         1 RES1    0.0000
     36 C19        2.3152   12.6885    4.1486 C.3       1 RES1    0.0000
     37 H18        2.7563   13.3196    4.7227 H         1 RES1    0.0000
     38 H19        1.8486   13.1594    3.4548 H         1 RES1    0.0000
     39 H20        2.9663   12.1028    3.7563 H         1 RES1    0.0000
     40 N1        -0.8558   12.1128    6.1737 N.3       1 RES1    0.0000
     41 N2        -2.1215   12.0912    5.7113 N.2       1 RES1    0.0000
     42 N3         2.0998   11.2012    6.0211 N.am      1 RES1    0.0000
     43 H21        2.9446   11.3603    6.0037 H         1 RES1    0.0000
     44 O1         2.5251    9.8062    7.7086 O.2       1 RES1    0.0000
     45 O2        -2.3029   12.6881    4.6766 O.2       1 RES1    0.0000
     46 C20       -1.6750    6.9703   11.7898 C.3       2 RES2    0.0000
     47 H22       -1.9479    6.4123   11.0319 H         2 RES2    0.0000
     48 C21       -0.5201    7.8241   11.2528 C.3       2 RES2    0.0000
     49 H23        0.1684    7.2109   10.9516 H         2 RES2    0.0000
     50 H24       -0.8499    8.2842   10.4644 H         2 RES2    0.0000
     51 C22        0.1600    8.8632   12.1187 C.2       2 RES2    0.0000
     52 C23       -2.0243   10.0417   12.7307 C.3       2 RES2    0.0000
     53 C24       -2.9126    8.8403   13.1225 C.3       2 RES2    0.0000
     54 H25       -3.8260    9.1889   13.0502 H         2 RES2    0.0000
     55 C25       -2.8453    8.2887   14.5416 C.ar      2 RES2    0.0000
     56 C26       -1.7395    8.3501   15.3564 C.ar      2 RES2    0.0000
     57 H26       -0.9553    8.7334   15.0370 H         2 RES2    0.0000
     58 C27       -1.7799    7.8491   16.6451 C.ar      2 RES2    0.0000
     59 H27       -1.0262    7.9119   17.1870 H         2 RES2    0.0000
     60 C28       -2.9041    7.2679   17.1265 C.ar      2 RES2    0.0000
     61 H28       -2.9200    6.9260   17.9915 H         2 RES2    0.0000
     62 C29       -4.0130    7.1849   16.3365 C.ar      2 RES2    0.0000
     63 H29       -4.7858    6.7825   16.6617 H         2 RES2    0.0000
     64 C30       -3.9866    7.6999   15.0520 C.ar      2 RES2    0.0000
     65 H30       -4.7502    7.6498   14.5235 H         2 RES2    0.0000
     66 C31       -1.3399    5.9863   12.8964 C.ar      2 RES2    0.0000
     67 C32       -2.3194    5.0976   13.3176 C.ar      2 RES2    0.0000
     68 H31       -3.1702    5.1477   12.9449 H         2 RES2    0.0000
     69 C33       -2.0573    4.1489   14.2720 C.ar      2 RES2    0.0000
     70 H32       -2.7267    3.5587   14.5340 H         2 RES2    0.0000
     71 C34       -0.8123    4.0662   14.8435 C.ar      2 RES2    0.0000
     72 H33       -0.6339    3.4214   15.4899 H         2 RES2    0.0000
     73 C35        0.1643    4.9385   14.4511 C.ar      2 RES2    0.0000
     74 H34        1.0076    4.8940   14.8408 H         2 RES2    0.0000
     75 C36       -0.0932    5.8911   13.4765 C.ar      2 RES2    0.0000
     76 H35        0.5829    6.4726   13.2109 H         2 RES2    0.0000
     77 C37       -2.4445   10.5348   11.3414 C.3       2 RES2    0.0000
     78 H36       -1.9130   11.2979   11.0977 H         2 RES2    0.0000
     79 H37       -3.3723   10.7821   11.3571 H         2 RES2    0.0000
     80 H38       -2.3111    9.8337   10.6988 H         2 RES2    0.0000
     81 C38       -2.2626   11.1737   13.7299 C.3       2 RES2    0.0000
     82 H39       -1.9649   10.9007   14.5999 H         2 RES2    0.0000
     83 H40       -3.1994   11.3790   13.7625 H         2 RES2    0.0000
     84 H41       -1.7727   11.9531   13.4544 H         2 RES2    0.0000
     85 N4        -2.8671    7.7615   12.1212 N.3       2 RES2    0.0000
     86 N5        -4.0348    7.4755   11.5372 N.2       2 RES2    0.0000
     87 N6        -0.5793    9.7632   12.7836 N.am      2 RES2    0.0000
     88 H42       -0.1376   10.2580   13.3307 H         2 RES2    0.0000
     89 O3         1.3867    8.8940   12.1825 O.2       2 RES2    0.0000
     90 O4        -4.1636    6.6117   10.8132 O.2       2 RES2    0.0000
     91 O5        -4.9680    7.9139   11.6283 Du        3 SUP3    0.0000
@<TRIPOS>BOND
     1    1    2 1
     2    3    1 1
     3    4    3 1
     4    5    3 1
     5    6    3 1
     6    7    8 1
     7    8    9 1
     8   10    8 1
     9   11   10 ar
    10   12   11 1
    11   13   11 ar
    12   14   13 1
    13   15   13 ar
    14   16   15 1
    15   17   15 ar
    16   18   17 1
    17   19   10 ar
    18   20   19 1
    19   21    1 1
    20   22   21 ar
    21   23   22 1
    22   24   22 ar
    23   25   24 1
    24   26   24 ar
    25   27   26 1
    26   28   26 ar
    27   29   28 1
    28   30   21 ar
    29   31   30 1
    30   32    7 1
    31   33   32 1
    32   34   32 1
    33   35   32 1
    34   36    7 1
    35   37   36 1
    36   38   36 1
    37   39   36 1
    38   40    1 1
    39   41   40 1
    40   42    6 1
    41   43   42 1
    42   44    6 2
    43   45   41 2
    44   46   47 1
    45   48   46 1
    46   49   48 1
    47   50   48 1
    48   51   48 1
    49   52   53 1
    50   53   54 1
    51   55   53 1
    52   56   55 ar
    53   57   56 1
    54   58   56 ar
    55   59   58 1
    56   60   58 ar
    57   61   60 1
    58   62   60 ar
    59   63   62 1
    60   64   55 ar
    61   65   64 1
    62   66   46 1
    63   67   66 ar
    64   68   67 1
    65   69   67 ar
    66   70   69 1
    67   71   69 ar
    68   72   71 1
    69   73   71 ar
    70   74   73 1
    71   75   66 ar
    72   76   75 1
    73   77   52 1
    74   78   77 1
    75   79   77 1
    76   80   77 1
    77   81   52 1
    78   82   81 1
    79   83   81 1
    80   84   81 1
    81   85   46 1
    82   86   85 1
    83   87   51 1
    84   88   87 1
    85   89   51 2
    86   90   86 2
    87    7   42 1
    88    8   40 1
    89   17   19 ar
    90   28   30 ar
    91   52   87 1
    92   53   85 1
    93   62   64 ar
    94   73   75 ar
@<TRIPOS>SUBSTRUCTURE
     1 RES1 1
     2 RES2 46
     3 SUP3 91

@<TRIPOS>CRYSIN
  12.3398   20.7988   14.0352  90.0000 110.2690  90.0000  14 1

