# MOL2 file generated by ConQuest
# Please check atom types

@<TRIPOS>MOLECULE
KUZCOZ
    84    88     2
SMALL
NO_CHARGES
****
Generated from CSD

@<TRIPOS>ATOM
      1 O1        10.0085    5.0109   10.4321 O.3       1 RES1    0.0000
      2 N1         6.2529    7.6038   11.7175 N.2       1 RES1    0.0000
      3 N2         9.2614    5.7883   11.2974 N.2       1 RES1    0.0000
      4 C1         7.1814    7.6259   12.9865 C.3       1 RES1    0.0000
      5 C2         7.3379    6.9454   11.7012 C.2       1 RES1    0.0000
      6 C3         8.1105    6.0932   10.8096 C.2       1 RES1    0.0000
      7 C4         7.5384    5.7434    9.4592 C.3       1 RES1    0.0000
      8 C5         6.2637    4.8841    9.5458 C.3       1 RES1    0.0000
      9 C6         6.4346    3.5885   10.3196 C.3       1 RES1    0.0000
     10 C7         7.5218    2.6748    9.7578 C.3       1 RES1    0.0000
     11 C8         6.6763    6.8587   14.1672 C.ar      1 RES1    0.0000
     12 C9         7.3191    6.9619   15.3956 C.ar      1 RES1    0.0000
     13 C10        6.8968    6.2137   16.4861 C.ar      1 RES1    0.0000
     14 C11        5.8173    5.3567   16.3667 C.ar      1 RES1    0.0000
     15 C12        5.1661    5.2535   15.1572 C.ar      1 RES1    0.0000
     16 C13        5.5827    5.9908   14.0572 C.ar      1 RES1    0.0000
     17 C14        7.9323    8.8963   13.2281 C.ar      1 RES1    0.0000
     18 C15        9.2429    9.0318   12.7717 C.ar      1 RES1    0.0000
     19 C16        9.9327   10.2188   12.9554 C.ar      1 RES1    0.0000
     20 C17        9.3305   11.2860   13.5922 C.ar      1 RES1    0.0000
     21 C18        8.0306   11.1632   14.0572 C.ar      1 RES1    0.0000
     22 C19        7.3402    9.9715   13.8856 C.ar      1 RES1    0.0000
     23 H1        10.7489    4.8308   10.7858 H         1 RES1    0.0000
     24 H2         8.2217    5.2533    8.9372 H         1 RES1    0.0000
     25 H3         7.3292    6.5800    8.9724 H         1 RES1    0.0000
     26 H4         5.5498    5.4182    9.9764 H         1 RES1    0.0000
     27 H5         5.9638    4.6676    8.6281 H         1 RES1    0.0000
     28 H6         5.5733    3.0991   10.3174 H         1 RES1    0.0000
     29 H7         6.6541    3.8045   11.2609 H         1 RES1    0.0000
     30 H8         8.4001    3.0821    9.9068 H         1 RES1    0.0000
     31 H9         7.3783    2.5497    8.7961 H         1 RES1    0.0000
     32 H10        7.4837    1.8054   10.2089 H         1 RES1    0.0000
     33 H11        8.0568    7.5520   15.4898 H         1 RES1    0.0000
     34 H12        7.3499    6.2905   17.3180 H         1 RES1    0.0000
     35 H13        5.5290    4.8433   17.1111 H         1 RES1    0.0000
     36 H14        4.4201    4.6707   15.0755 H         1 RES1    0.0000
     37 H15        5.1264    5.9062   13.2291 H         1 RES1    0.0000
     38 H16        9.6666    8.3038   12.3317 H         1 RES1    0.0000
     39 H17       10.8257   10.2994   12.6410 H         1 RES1    0.0000
     40 H18        9.8042   12.1009   13.7110 H         1 RES1    0.0000
     41 H19        7.6121   11.8958   14.4937 H         1 RES1    0.0000
     42 H20        6.4551    9.8882   14.2198 H         1 RES1    0.0000
     43 O2         3.7228    7.6535   10.5276 O.3       2 RES2    0.0000
     44 N3         0.1214    4.8889   11.8333 N.2       2 RES2    0.0000
     45 N4         3.1168    6.6918   11.3216 N.2       2 RES2    0.0000
     46 C20        1.0644    4.7951   13.0854 C.3       2 RES2    0.0000
     47 C21        1.2057    5.5410   11.8363 C.2       2 RES2    0.0000
     48 C22        1.8776    6.5327   11.0227 C.2       2 RES2    0.0000
     49 C23        1.0608    7.3069   10.0200 C.3       2 RES2    0.0000
     50 C24        0.4086    8.5459   10.6509 C.3       2 RES2    0.0000
     51 C25       -1.6761    8.5230    9.1758 C.3       2 RES2    0.0000
     52 C26       -0.4671    9.3036    9.6720 C.3       2 RES2    0.0000
     53 C27        0.5774    5.5253   14.2992 C.ar      2 RES2    0.0000
     54 C28        1.2679    5.4284   15.5078 C.ar      2 RES2    0.0000
     55 C29        0.8732    6.1751   16.6106 C.ar      2 RES2    0.0000
     56 C30       -0.2182    7.0194   16.5349 C.ar      2 RES2    0.0000
     57 C31       -0.9229    7.1045   15.3406 C.ar      2 RES2    0.0000
     58 C32       -0.5305    6.3822   14.2338 C.ar      2 RES2    0.0000
     59 C33        1.8036    3.5066   13.2630 C.ar      2 RES2    0.0000
     60 C34        3.0391    3.3215   12.6563 C.ar      2 RES2    0.0000
     61 C35        3.7367    2.1290   12.8309 C.ar      2 RES2    0.0000
     62 C36        3.1982    1.1279   13.5998 C.ar      2 RES2    0.0000
     63 C37        1.9593    1.2909   14.2037 C.ar      2 RES2    0.0000
     64 C38        1.2660    2.4803   14.0403 C.ar      2 RES2    0.0000
     65 H21        4.4757    7.8456   10.8466 H         2 RES2    0.0000
     66 H22        0.3545    6.7192    9.6501 H         2 RES2    0.0000
     67 H23        1.6439    7.5901    9.2721 H         2 RES2    0.0000
     68 H24       -0.1405    8.2643   11.4257 H         2 RES2    0.0000
     69 H25        1.1178    9.1501   10.9862 H         2 RES2    0.0000
     70 H26       -2.1684    8.1620    9.9418 H         2 RES2    0.0000
     71 H27       -1.3766    7.7866    8.6027 H         2 RES2    0.0000
     72 H28       -2.2610    9.1190    8.6624 H         2 RES2    0.0000
     73 H29        0.0836    9.5644    8.8913 H         2 RES2    0.0000
     74 H30       -0.7831   10.1347   10.1063 H         2 RES2    0.0000
     75 H31        2.0145    4.8455   15.5773 H         2 RES2    0.0000
     76 H32        1.3593    6.1047   17.4237 H         2 RES2    0.0000
     77 H33       -0.4820    7.5339   17.2893 H         2 RES2    0.0000
     78 H34       -1.6860    7.6681   15.2844 H         2 RES2    0.0000
     79 H35       -1.0142    6.4650   13.4215 H         2 RES2    0.0000
     80 H36        3.4095    4.0111   12.1191 H         2 RES2    0.0000
     81 H37        4.5835    2.0084   12.4186 H         2 RES2    0.0000
     82 H38        3.6765    0.3158   13.7191 H         2 RES2    0.0000
     83 H39        1.5888    0.5907   14.7276 H         2 RES2    0.0000
     84 H40        0.4208    2.5964   14.4588 H         2 RES2    0.0000
@<TRIPOS>BOND
     1    1    3 1
     2    2    4 1
     3    3    6 2
     4    4    5 1
     5    5    2 2
     6    6    5 1
     7    7    6 1
     8    8    7 1
     9    9    8 1
    10   10    9 1
    11   11    4 1
    12   12   11 ar
    13   13   12 ar
    14   14   13 ar
    15   15   14 ar
    16   16   11 ar
    17   17    4 1
    18   18   17 ar
    19   19   18 ar
    20   20   19 ar
    21   21   20 ar
    22   22   17 ar
    23   23    1 1
    24   24    7 1
    25   25    7 1
    26   26    8 1
    27   27    8 1
    28   28    9 1
    29   29    9 1
    30   30   10 1
    31   31   10 1
    32   32   10 1
    33   33   12 1
    34   34   13 1
    35   35   14 1
    36   36   15 1
    37   37   16 1
    38   38   18 1
    39   39   19 1
    40   40   20 1
    41   41   21 1
    42   42   22 1
    43   43   45 1
    44   44   46 1
    45   45   48 2
    46   46   47 1
    47   47   44 2
    48   48   47 1
    49   49   48 1
    50   50   49 1
    51   51   52 1
    52   52   50 1
    53   53   46 1
    54   54   53 ar
    55   55   54 ar
    56   56   55 ar
    57   57   56 ar
    58   58   53 ar
    59   59   46 1
    60   60   59 ar
    61   61   60 ar
    62   62   61 ar
    63   63   62 ar
    64   64   59 ar
    65   65   43 1
    66   66   49 1
    67   67   49 1
    68   68   50 1
    69   69   50 1
    70   70   51 1
    71   71   51 1
    72   72   51 1
    73   73   52 1
    74   74   52 1
    75   75   54 1
    76   76   55 1
    77   77   56 1
    78   78   57 1
    79   79   58 1
    80   80   60 1
    81   81   61 1
    82   82   62 1
    83   83   63 1
    84   84   64 1
    85   15   16 ar
    86   21   22 ar
    87   57   58 ar
    88   63   64 ar
@<TRIPOS>SUBSTRUCTURE
     1 RES1 1
     2 RES2 43

@<TRIPOS>CRYSIN
  12.2761    7.8764   16.8396  90.0000  92.7067  90.0000   4 1

