# MOL2 file generated by ConQuest
# Please check atom types

@<TRIPOS>MOLECULE
KUZDIS
    17    17     1
SMALL
NO_CHARGES
****
Generated from CSD

@<TRIPOS>ATOM
      1 C1         3.6392    2.7781    2.0097 C.ar      1 RES1    0.0000
      2 C2         3.5720    1.4871    1.4670 C.ar      1 RES1    0.0000
      3 C3         2.4407    0.7099    1.6457 C.ar      1 RES1    0.0000
      4 C4         1.3551    1.2049    2.3724 C.ar      1 RES1    0.0000
      5 C5         1.4252    2.4682    2.9543 C.ar      1 RES1    0.0000
      6 C6         2.5637    3.2419    2.7704 C.ar      1 RES1    0.0000
      7 C7         4.7665    3.6762    1.7486 C.2       1 RES1    0.0000
      8 N1         5.6909    3.3622    0.9320 N.2       1 RES1    0.0000
      9 O1         6.6431    4.4029    0.7774 O.3       1 RES1    0.0000
     10 O2         0.2161    0.4837    2.5547 O.3       1 RES1    0.0000
     11 H1         4.3377    1.1069    0.9413 H         1 RES1    0.0000
     12 H2         2.3634   -0.1985    1.2708 H         1 RES1    0.0000
     13 H3         0.6728    2.7853    3.4828 H         1 RES1    0.0000
     14 H4         2.6036    4.1208    3.1847 H         1 RES1    0.0000
     15 H5         4.7682    4.5659    2.2121 H         1 RES1    0.0000
     16 H6         7.2722    4.0486    0.2824 H         1 RES1    0.0000
     17 H7         0.2226   -0.2045    1.9610 H         1 RES1    0.0000
@<TRIPOS>BOND
     1    1    2 ar
     2    2    3 ar
     3    3    4 ar
     4    4    5 ar
     5    5    6 ar
     6    6    1 ar
     7    7    1 1
     8    8    7 2
     9    9    8 1
    10   10    4 1
    11   11    2 1
    12   12    3 1
    13   13    5 1
    14   14    6 1
    15   15    7 1
    16   16    9 1
    17   17   10 1
@<TRIPOS>SUBSTRUCTURE
     1 RES1 1

@<TRIPOS>CRYSIN
   6.8060    6.0157   15.7440  90.0000  94.8200  90.0000  14 1

