# MOL2 file generated by ConQuest
# Please check atom types

@<TRIPOS>MOLECULE
KUZFAO
   170   184     2
SMALL
NO_CHARGES
****
Generated from CSD

@<TRIPOS>ATOM
      1 C1         7.1478   -0.8444   21.9484 C.2       1 RES1    0.0000
      2 C2         8.1232   -0.9240   23.0409 C.2       1 RES1    0.0000
      3 H1         8.0466   -1.4705   23.8133 H         1 RES1    0.0000
      4 C3         9.1563   -0.0858   22.7584 C.2       1 RES1    0.0000
      5 H2         9.9510    0.0339   23.2660 H         1 RES1    0.0000
      6 C4         8.7943    0.5964   21.5159 C.2       1 RES1    0.0000
      7 C5         9.5073    1.7109   20.9851 C.2       1 RES1    0.0000
      8 C6        10.8570    2.0198   21.5728 C.ar      1 RES1    0.0000
      9 C7        11.9078    1.0974   21.4717 C.ar      1 RES1    0.0000
     10 H3        11.7728    0.2905   20.9928 H         1 RES1    0.0000
     11 C8        13.1531    1.3426   22.0654 C.ar      1 RES1    0.0000
     12 H4        13.8664    0.7219   21.9749 H         1 RES1    0.0000
     13 C9        13.3166    2.5191   22.7864 C.ar      1 RES1    0.0000
     14 C10       12.3150    3.4860   22.8809 C.ar      1 RES1    0.0000
     15 H5        12.4616    4.3016   23.3455 H         1 RES1    0.0000
     16 C11       11.0823    3.2135   22.2645 C.ar      1 RES1    0.0000
     17 H6        10.3842    3.8559   22.3192 H         1 RES1    0.0000
     18 C12        8.9840    2.6057   20.0507 C.2       1 RES1    0.0000
     19 C13        9.5817    3.8169   19.5367 C.2       1 RES1    0.0000
     20 H7        10.4556    4.1313   19.7304 H         1 RES1    0.0000
     21 C14        8.6671    4.4330   18.7198 C.2       1 RES1    0.0000
     22 H8         8.7877    5.2592   18.2672 H         1 RES1    0.0000
     23 C15        7.4858    3.5968   18.6693 C.2       1 RES1    0.0000
     24 C16        6.2908    3.7804   17.9840 C.2       1 RES1    0.0000
     25 C17        5.8771    5.0972   17.4239 C.ar      1 RES1    0.0000
     26 C18        6.2869    6.3164   17.9913 C.ar      1 RES1    0.0000
     27 H9         6.7814    6.3101   18.8035 H         1 RES1    0.0000
     28 C19        5.9845    7.5261   17.3910 C.ar      1 RES1    0.0000
     29 H10        6.2804    8.3381   17.7883 H         1 RES1    0.0000
     30 C20        5.2403    7.5627   16.1948 C.ar      1 RES1    0.0000
     31 C21        4.2571    8.8589   14.4491 C.3       1 RES1    0.0000
     32 H11        4.1593    9.7926   14.1666 H         1 RES1    0.0000
     33 H12        3.3705    8.4701   14.5992 H         1 RES1    0.0000
     34 H13        4.7223    8.3531   13.7517 H         1 RES1    0.0000
     35 C22        4.7655    6.3671   15.6409 C.ar      1 RES1    0.0000
     36 H14        4.2377    6.3738   14.8508 H         1 RES1    0.0000
     37 C23        5.0813    5.1600   16.2743 C.ar      1 RES1    0.0000
     38 H15        4.7412    4.3506   15.9101 H         1 RES1    0.0000
     39 C24        5.4501    2.6107   17.7594 C.2       1 RES1    0.0000
     40 C25        4.1329    2.2762   18.0222 C.2       1 RES1    0.0000
     41 H16        3.4529    2.8531   18.3489 H         1 RES1    0.0000
     42 C26        4.0007    0.8971   17.7022 C.2       1 RES1    0.0000
     43 H17        3.2098    0.3759   17.7795 H         1 RES1    0.0000
     44 C27        5.2131    0.4569   17.2635 C.2       1 RES1    0.0000
     45 C28        5.6413   -0.7930   16.6067 C.2       1 RES1    0.0000
     46 C29        6.4256   -0.7041   15.3363 C.3       1 RES1    0.0000
     47 H18        6.6479    0.2345   15.1576 H         1 RES1    0.0000
     48 H19        5.8926   -1.0616   14.5970 H         1 RES1    0.0000
     49 H20        7.2522   -1.2232   15.4246 H         1 RES1    0.0000
     50 C30        5.1935   -1.9777   17.1394 C.2       1 RES1    0.0000
     51 C31        5.2398   -3.2900   16.3780 C.3       1 RES1    0.0000
     52 H21        4.8579   -4.0034   16.9298 H         1 RES1    0.0000
     53 H22        6.1705   -3.5080   16.1595 H         1 RES1    0.0000
     54 H23        4.7211   -3.2066   15.5504 H         1 RES1    0.0000
     55 C32        4.7658   -2.0418   18.5475 C.2       1 RES1    0.0000
     56 C33        3.6620   -2.5224   19.1875 C.2       1 RES1    0.0000
     57 H24        2.8825   -2.8853   18.7836 H         1 RES1    0.0000
     58 C34        3.9101   -2.3719   20.5801 C.2       1 RES1    0.0000
     59 H25        3.3156   -2.6115   21.2819 H         1 RES1    0.0000
     60 C35        5.1642   -1.8175   20.7324 C.2       1 RES1    0.0000
     61 C36        5.9948   -1.5999   21.8911 C.2       1 RES1    0.0000
     62 C37        5.5172   -2.2836   23.1358 C.ar      1 RES1    0.0000
     63 C38        5.2325   -3.6409   23.1535 C.ar      1 RES1    0.0000
     64 H26        5.3184   -4.1421   22.3523 H         1 RES1    0.0000
     65 C39        4.8258   -4.2832   24.3165 C.ar      1 RES1    0.0000
     66 H27        4.6817   -5.2237   24.3187 H         1 RES1    0.0000
     67 C40        4.6313   -3.5314   25.4840 C.ar      1 RES1    0.0000
     68 C41        4.8927   -2.1860   25.5127 C.ar      1 RES1    0.0000
     69 H28        4.7720   -1.6834   26.3116 H         1 RES1    0.0000
     70 C42        5.3444   -1.5643   24.3320 C.ar      1 RES1    0.0000
     71 H29        5.5373   -0.6347   24.3430 H         1 RES1    0.0000
     72 C43        3.9335   -3.5019   27.7859 C.3       1 RES1    0.0000
     73 H30        3.6106   -4.1064   28.4855 H         1 RES1    0.0000
     74 H31        3.2629   -2.8074   27.6182 H         1 RES1    0.0000
     75 H32        4.7714   -3.0831   28.0750 H         1 RES1    0.0000
     76 N1         7.6140    0.1115   21.0244 N.2       1 RES1    0.0000
     77 N2         7.7401    2.4805   19.4804 N.pl3     1 RES1    0.0000
     78 H33        7.1892    1.8052   19.6046 H         1 RES1    0.0000
     79 N3        14.5892    2.7637   23.4750 N.pl3     1 RES1    0.0000
     80 O1         5.6908   -1.6025   19.4676 O.3       1 RES1    0.0000
     81 O2         6.1204    1.4848   17.2842 O.3       1 RES1    0.0000
     82 O3        14.6632    3.7450   24.2216 O.2       1 RES1    0.0000
     83 O4        15.5160    1.9921   23.2859 O.2       1 RES1    0.0000
     84 O5         4.1655   -4.2513   26.5719 O.3       1 RES1    0.0000
     85 O6         5.0167    8.8055   15.6674 O.3       1 RES1    0.0000
     86 C44       12.0668    2.8332   14.4173 C.2       2 RES2    0.0000
     87 C45       13.2551    2.0042   14.3549 C.2       2 RES2    0.0000
     88 H34       13.3691    1.1704   14.7978 H         2 RES2    0.0000
     89 C46       14.1753    2.6064   13.5648 C.2       2 RES2    0.0000
     90 H35       15.0496    2.2839   13.3787 H         2 RES2    0.0000
     91 C47       13.5853    3.8442   13.0499 C.2       2 RES2    0.0000
     92 C48       14.1279    4.7544   12.1362 C.2       2 RES2    0.0000
     93 C49       15.4757    4.4473   11.5478 C.ar      2 RES2    0.0000
     94 C50       15.7030    3.2393   10.8511 C.ar      2 RES2    0.0000
     95 H36       15.0090    2.5942   10.7921 H         2 RES2    0.0000
     96 C51       16.9338    2.9884   10.2479 C.ar      2 RES2    0.0000
     97 H37       17.0815    2.1828    9.7659 H         2 RES2    0.0000
     98 C52       17.9375    3.9369   10.3653 C.ar      2 RES2    0.0000
     99 C53       17.7684    5.1041   11.0879 C.ar      2 RES2    0.0000
    100 H38       18.4808    5.7253   11.1806 H         2 RES2    0.0000
    101 C54       16.5309    5.3466   11.6771 C.ar      2 RES2    0.0000
    102 H39       16.4026    6.1425   12.1781 H         2 RES2    0.0000
    103 C55       13.4004    5.8715   11.6087 C.2       2 RES2    0.0000
    104 C56       13.7696    6.5702   10.3728 C.2       2 RES2    0.0000
    105 H40       14.5706    6.4565    9.8762 H         2 RES2    0.0000
    106 C57       12.7571    7.3996   10.0837 C.2       2 RES2    0.0000
    107 H41       12.6855    7.9522    9.3135 H         2 RES2    0.0000
    108 C58       11.7799    7.2985   11.1740 C.2       2 RES2    0.0000
    109 C59       10.6071    8.0678   11.2137 C.2       2 RES2    0.0000
    110 C60       10.1642    8.7616    9.9623 C.ar      2 RES2    0.0000
    111 C61        9.9336    8.0017    8.7926 C.ar      2 RES2    0.0000
    112 H42       10.0552    7.0589    8.8125 H         2 RES2    0.0000
    113 C62        9.5257    8.6246    7.5986 C.ar      2 RES2    0.0000
    114 H43        9.3810    8.1029    6.8196 H         2 RES2    0.0000
    115 C63        9.3360    9.9921    7.5545 C.ar      2 RES2    0.0000
    116 C64        8.7264    9.9796    5.2416 C.3       2 RES2    0.0000
    117 H44        8.4360   10.5919    4.5331 H         2 RES2    0.0000
    118 H45        8.0461    9.2873    5.3718 H         2 RES2    0.0000
    119 H46        9.5736    9.5610    4.9834 H         2 RES2    0.0000
    120 C65        9.5886   10.7638    8.7065 C.ar      2 RES2    0.0000
    121 H47        9.4892   11.7091    8.6801 H         2 RES2    0.0000
    122 C66        9.9834   10.1345    9.8873 C.ar      2 RES2    0.0000
    123 H48       10.1341   10.6634   10.6641 H         2 RES2    0.0000
    124 C67        9.7654    8.3045   12.3529 C.2       2 RES2    0.0000
    125 C68        8.5261    8.9075   12.4606 C.2       2 RES2    0.0000
    126 H49        7.9671    9.1738   11.7389 H         2 RES2    0.0000
    127 C69        8.2412    9.0586   13.8466 C.2       2 RES2    0.0000
    128 H50        7.4683    9.4670   14.2196 H         2 RES2    0.0000
    129 C70        9.2828    8.5086   14.5418 C.2       2 RES2    0.0000
    130 C71        9.6715    8.4089   15.9631 C.2       2 RES2    0.0000
    131 C72        9.6169    9.6584   16.7554 C.3       2 RES2    0.0000
    132 H51        9.2328   10.3746   16.2081 H         2 RES2    0.0000
    133 H52       10.5232    9.9087   17.0313 H         2 RES2    0.0000
    134 H53        9.0596    9.5185   17.5477 H         2 RES2    0.0000
    135 C73       10.1607    7.2195   16.4517 C.2       2 RES2    0.0000
    136 C74       10.9529    7.1369   17.7353 C.3       2 RES2    0.0000
    137 H54       11.2091    6.2052   17.9008 H         2 RES2    0.0000
    138 H55       10.4041    7.4609   18.4791 H         2 RES2    0.0000
    139 H56       11.7582    7.6887   17.6581 H         2 RES2    0.0000
    140 C75        9.7698    5.9736   15.7960 C.2       2 RES2    0.0000
    141 C76        8.5624    5.5215   15.3357 C.2       2 RES2    0.0000
    142 H57        7.7706    6.0354   15.2304 H         2 RES2    0.0000
    143 C77        8.7150    4.1382   15.0432 C.2       2 RES2    0.0000
    144 H58        8.0389    3.5475   14.7338 H         2 RES2    0.0000
    145 C78       10.0218    3.8185   15.2937 C.2       2 RES2    0.0000
    146 C79       10.8771    2.6492   15.1103 C.2       2 RES2    0.0000
    147 C80       10.4732    1.3415   15.6484 C.ar      2 RES2    0.0000
    148 C81        9.6935    1.2848   16.8296 C.ar      2 RES2    0.0000
    149 H59        9.3683    2.0931   17.2078 H         2 RES2    0.0000
    150 C82        9.3882    0.0742   17.4550 C.ar      2 RES2    0.0000
    151 H60        8.8607    0.0656   18.2451 H         2 RES2    0.0000
    152 C83        9.8592   -1.1207   16.9143 C.ar      2 RES2    0.0000
    153 C84        8.9685   -2.4100   18.7152 C.3       2 RES2    0.0000
    154 H61        8.8855   -3.3448   19.0021 H         2 RES2    0.0000
    155 H62        8.0765   -2.0194   18.6137 H         2 RES2    0.0000
    156 H63        9.4724   -1.9051   19.3883 H         2 RES2    0.0000
    157 C85       10.5940   -1.0989   15.7203 C.ar      2 RES2    0.0000
    158 H64       10.8971   -1.9126   15.3341 H         2 RES2    0.0000
    159 C86       10.8800    0.1103   15.0980 C.ar      2 RES2    0.0000
    160 H65       11.3640    0.1062   14.2814 H         2 RES2    0.0000
    161 N4        12.3278    3.9653   13.6288 N.2       2 RES2    0.0000
    162 N5        12.2345    6.3537   12.1013 N.pl3     2 RES2    0.0000
    163 H66       11.8416    6.1211   12.8535 H         2 RES2    0.0000
    164 N6        19.2136    3.6889    9.6690 N.pl3     2 RES2    0.0000
    165 O7        10.6855    4.9431   15.7751 O.3       2 RES2    0.0000
    166 O8        10.2325    8.0245   13.6343 O.3       2 RES2    0.0000
    167 O9        20.1488    4.4393    9.8868 O.2       2 RES2    0.0000
    168 O10       19.2831    2.7251    8.8983 O.2       2 RES2    0.0000
    169 O11        8.9062   10.7087    6.4596 O.3       2 RES2    0.0000
    170 O12        9.6561   -2.3564   17.4674 O.3       2 RES2    0.0000
@<TRIPOS>BOND
     1    1    2 1
     2    2    3 1
     3    4    2 2
     4    5    4 1
     5    6    4 1
     6    7    6 1
     7    8    7 1
     8    9    8 ar
     9   10    9 1
    10   11    9 ar
    11   12   11 1
    12   13   11 ar
    13   14   13 ar
    14   15   14 1
    15   16    8 ar
    16   17   16 1
    17   18    7 2
    18   19   18 1
    19   20   19 1
    20   21   19 2
    21   22   21 1
    22   23   21 1
    23   24   23 2
    24   25   24 1
    25   26   25 ar
    26   27   26 1
    27   28   26 ar
    28   29   28 1
    29   30   28 ar
    30   31   32 1
    31   33   31 1
    32   34   31 1
    33   35   30 ar
    34   36   35 1
    35   37   25 ar
    36   38   37 1
    37   39   24 1
    38   40   39 2
    39   41   40 1
    40   42   40 1
    41   43   42 1
    42   44   42 2
    43   45   44 1
    44   46   45 1
    45   47   46 1
    46   48   46 1
    47   49   46 1
    48   50   45 2
    49   51   50 1
    50   52   51 1
    51   53   51 1
    52   54   51 1
    53   55   50 1
    54   56   55 2
    55   57   56 1
    56   58   56 1
    57   59   58 1
    58   60   58 2
    59   61    1 2
    60   62   61 1
    61   63   62 ar
    62   64   63 1
    63   65   63 ar
    64   66   65 1
    65   67   65 ar
    66   68   67 ar
    67   69   68 1
    68   70   62 ar
    69   71   70 1
    70   72   73 1
    71   74   72 1
    72   75   72 1
    73   76    1 1
    74   77   18 1
    75   78   77 1
    76   79   13 1
    77   80   55 1
    78   81   39 1
    79   82   79 2
    80   83   79 2
    81   84   67 1
    82   85   30 1
    83   86   87 1
    84   87   88 1
    85   89   87 2
    86   90   89 1
    87   91   89 1
    88   92   91 1
    89   93   92 1
    90   94   93 ar
    91   95   94 1
    92   96   94 ar
    93   97   96 1
    94   98   96 ar
    95   99   98 ar
    96  100   99 1
    97  101   93 ar
    98  102  101 1
    99  103   92 2
   100  104  103 1
   101  105  104 1
   102  106  104 2
   103  107  106 1
   104  108  106 1
   105  109  108 2
   106  110  109 1
   107  111  110 ar
   108  112  111 1
   109  113  111 ar
   110  114  113 1
   111  115  113 ar
   112  116  117 1
   113  118  116 1
   114  119  116 1
   115  120  115 ar
   116  121  120 1
   117  122  110 ar
   118  123  122 1
   119  124  109 1
   120  125  124 2
   121  126  125 1
   122  127  125 1
   123  128  127 1
   124  129  127 2
   125  130  129 1
   126  131  130 1
   127  132  131 1
   128  133  131 1
   129  134  131 1
   130  135  130 2
   131  136  135 1
   132  137  136 1
   133  138  136 1
   134  139  136 1
   135  140  135 1
   136  141  140 2
   137  142  141 1
   138  143  141 1
   139  144  143 1
   140  145  143 2
   141  146   86 2
   142  147  146 1
   143  148  147 ar
   144  149  148 1
   145  150  148 ar
   146  151  150 1
   147  152  150 ar
   148  153  154 1
   149  155  153 1
   150  156  153 1
   151  157  152 ar
   152  158  157 1
   153  159  147 ar
   154  160  159 1
   155  161   86 1
   156  162  103 1
   157  163  162 1
   158  164   98 1
   159  165  140 1
   160  166  124 1
   161  167  164 2
   162  168  164 2
   163  169  115 1
   164  170  152 1
   165    6   76 2
   166   14   16 ar
   167   23   77 1
   168   31   85 1
   169   35   37 ar
   170   44   81 1
   171   60   61 1
   172   60   80 1
   173   68   70 ar
   174   72   84 1
   175   91  161 2
   176   99  101 ar
   177  108  162 1
   178  116  169 1
   179  120  122 ar
   180  129  166 1
   181  145  146 1
   182  145  165 1
   183  153  170 1
   184  157  159 ar
@<TRIPOS>SUBSTRUCTURE
     1 RES1 1
     2 RES2 86

@<TRIPOS>CRYSIN
   9.1750   19.1120   22.4830  79.0200  90.1000  86.9800   2 1

