# MOL2 file generated by ConQuest
# Please check atom types

@<TRIPOS>MOLECULE
KUZQUT
    32    33     1
SMALL
NO_CHARGES
****
Generated from CSD

@<TRIPOS>ATOM
      1 C1         6.9494    2.1131   10.8207 C.2       1 RES1    0.0000
      2 C2         5.7345    2.7488   11.4571 C.3       1 RES1    0.0000
      3 C3         5.8242    4.2021   11.8498 C.2       1 RES1    0.0000
      4 H1         6.3137    4.8221   11.3218 H         1 RES1    0.0000
      5 C4         5.1916    4.5946   12.9665 C.2       1 RES1    0.0000
      6 C5         4.5136    3.6150   13.8565 C.2       1 RES1    0.0000
      7 C6         4.7124    2.2806   13.7267 C.2       1 RES1    0.0000
      8 H2         4.3053    1.6512   14.3107 H         1 RES1    0.0000
      9 C7         5.5776    1.8776   12.6509 C.2       1 RES1    0.0000
     10 C8         4.5008    2.5290   10.4728 C.3       1 RES1    0.0000
     11 H3         3.6995    2.9331   10.9132 H         1 RES1    0.0000
     12 C9         4.6988    3.2620    9.1447 C.3       1 RES1    0.0000
     13 H4         5.3707    2.7912    8.6091 H         1 RES1    0.0000
     14 H5         5.0033    4.1774    9.3185 H         1 RES1    0.0000
     15 H6         3.8496    3.2874    8.6564 H         1 RES1    0.0000
     16 C10        4.1754    1.0577   10.2156 C.3       1 RES1    0.0000
     17 H7         3.3821    0.9934    9.6439 H         1 RES1    0.0000
     18 H8         4.0010    0.6081   11.0683 H         1 RES1    0.0000
     19 H9         4.9348    0.6287    9.7687 H         1 RES1    0.0000
     20 C11        3.0815    3.3463   15.7268 C.3       1 RES1    0.0000
     21 H10        2.5642    2.6737   15.2376 H         1 RES1    0.0000
     22 H11        2.4799    3.8757   16.2913 H         1 RES1    0.0000
     23 H12        3.7482    2.8993   16.2894 H         1 RES1    0.0000
     24 C12        5.6902    6.8818   12.6237 C.3       1 RES1    0.0000
     25 H13        6.6548    6.7149   12.5760 H         1 RES1    0.0000
     26 H14        5.5301    7.7599   13.0281 H         1 RES1    0.0000
     27 H15        5.3115    6.8652   11.7210 H         1 RES1    0.0000
     28 N1         6.2921    0.7986   12.6246 N.2       1 RES1    0.0000
     29 O1         7.6469    2.4788    9.9169 O.2       1 RES1    0.0000
     30 O2         7.1391    0.8994   11.4289 O.3       1 RES1    0.0000
     31 O3         5.0689    5.8681   13.4209 O.3       1 RES1    0.0000
     32 O4         3.7474    4.2123   14.7925 O.3       1 RES1    0.0000
@<TRIPOS>BOND
     1    1    2 1
     2    2    3 1
     3    3    4 1
     4    5    3 2
     5    6    5 1
     6    7    6 2
     7    8    7 1
     8    9    2 1
     9   10    2 1
    10   11   10 1
    11   12   10 1
    12   13   12 1
    13   14   12 1
    14   15   12 1
    15   16   10 1
    16   17   16 1
    17   18   16 1
    18   19   16 1
    19   20   21 1
    20   22   20 1
    21   23   20 1
    22   24   25 1
    23   26   24 1
    24   27   24 1
    25   28    9 2
    26   29    1 2
    27   30    1 1
    28   31    5 1
    29   32    6 1
    30    7    9 1
    31   20   32 1
    32   24   31 1
    33   28   30 1
@<TRIPOS>SUBSTRUCTURE
     1 RES1 1

@<TRIPOS>CRYSIN
  13.1700    9.3980   18.9170  90.0000  90.0000  90.0000  60 1

