# MOL2 file generated by ConQuest
# Please check atom types

@<TRIPOS>MOLECULE
KUZRED
    41    43     1
SMALL
NO_CHARGES
****
Generated from CSD

@<TRIPOS>ATOM
      1 C1         2.1530   10.0687   -0.2336 C.3       1 RES1    0.0000
      2 H1         1.5719    9.8075   -0.9779 H         1 RES1    0.0000
      3 C2         3.4776   10.5531   -0.7663 C.3       1 RES1    0.0000
      4 H2         4.1235    9.8307   -0.8021 H         1 RES1    0.0000
      5 H3         3.3776   10.9310   -1.6541 H         1 RES1    0.0000
      6 C3         3.8946   11.5923    0.2087 C.3       1 RES1    0.0000
      7 H4         4.4273   12.2786   -0.2230 H         1 RES1    0.0000
      8 H5         4.4112   11.2015    0.9307 H         1 RES1    0.0000
      9 C4         2.6086   12.1554    0.7177 C.3       1 RES1    0.0000
     10 H6         2.6699   12.3249    1.6713 H         1 RES1    0.0000
     11 H7         2.4078   12.9918    0.2688 H         1 RES1    0.0000
     12 C5         2.2654    8.9276    0.7499 C.3       1 RES1    0.0000
     13 H8         2.8867    9.1712    1.4540 H         1 RES1    0.0000
     14 H9         1.4000    8.7693    1.1566 H         1 RES1    0.0000
     15 C6         1.6571    6.8530   -0.3557 C.3       1 RES1    0.0000
     16 H10        2.0140    6.1639   -0.9379 H         1 RES1    0.0000
     17 H11        1.0271    7.3818   -0.8692 H         1 RES1    0.0000
     18 C7         1.5450    6.0138    1.9458 C.2       1 RES1    0.0000
     19 C8         3.5849    6.9141    0.9404 C.3       1 RES1    0.0000
     20 H12        4.2937    7.4781    1.2867 H         1 RES1    0.0000
     21 H13        3.9942    6.2102    0.4146 H         1 RES1    0.0000
     22 C9         3.5697    6.2000    3.3495 C.3       1 RES1    0.0000
     23 H14        3.0024    5.7582    4.0003 H         1 RES1    0.0000
     24 H15        3.7619    7.0919    3.6800 H         1 RES1    0.0000
     25 C10        4.8388    5.4479    3.2248 C.2       1 RES1    0.0000
     26 C11        6.1080    5.8351    3.2919 C.2       1 RES1    0.0000
     27 H16        6.4123    6.7001    3.4427 H         1 RES1    0.0000
     28 C12        6.9059    4.6958    3.0924 C.2       1 RES1    0.0000
     29 H17        7.8363    4.6643    3.0896 H         1 RES1    0.0000
     30 C13        6.0921    3.6881    2.9094 C.2       1 RES1    0.0000
     31 H18        6.3550    2.8101    2.7521 H         1 RES1    0.0000
     32 N1         2.7286    7.6958    0.0979 N.3       1 RES1    0.0000
     33 N2         0.9621    6.2250    0.7729 N.3       1 RES1    0.0000
     34 H19        0.1511    6.1037    0.7191 H         1 RES1    0.0000
     35 N3         2.8441    6.3074    2.0760 N.3       1 RES1    0.0000
     36 N4         0.9694    5.5183    3.0767 N.2       1 RES1    0.0000
     37 N5        -0.3251    5.1951    3.0574 N.pl3     1 RES1    0.0000
     38 O1         1.5868   11.1964    0.4521 O.3       1 RES1    0.0000
     39 O2         4.7818    4.1225    2.9858 O.3       1 RES1    0.0000
     40 O3        -1.0656    5.3720    2.0871 O.2       1 RES1    0.0000
     41 O4        -0.7793    4.7227    4.0972 O.2       1 RES1    0.0000
@<TRIPOS>BOND
     1    1    2 1
     2    3    1 1
     3    4    3 1
     4    5    3 1
     5    6    3 1
     6    7    6 1
     7    8    6 1
     8    9    6 1
     9   10    9 1
    10   11    9 1
    11   12    1 1
    12   13   12 1
    13   14   12 1
    14   15   16 1
    15   17   15 1
    16   18   33 1
    17   19   20 1
    18   21   19 1
    19   22   23 1
    20   24   22 1
    21   25   22 1
    22   26   25 2
    23   27   26 1
    24   28   26 1
    25   29   28 1
    26   30   28 2
    27   31   30 1
    28   32   12 1
    29   33   15 1
    30   34   33 1
    31   35   18 1
    32   36   18 2
    33   37   36 1
    34   38    1 1
    35   39   25 1
    36   40   37 2
    37   41   37 2
    38    9   38 1
    39   15   32 1
    40   19   32 1
    41   19   35 1
    42   22   35 1
    43   30   39 1
@<TRIPOS>SUBSTRUCTURE
     1 RES1 1

@<TRIPOS>CRYSIN
  11.1898    9.2620   14.4863  90.0000  99.2760  90.0000 231 1

