# MOL2 file generated by ConQuest
# Please check atom types

@<TRIPOS>MOLECULE
KUZVUX
    26    26     1
SMALL
NO_CHARGES
****
Generated from CSD

@<TRIPOS>ATOM
      1 O1         1.6087    6.0509    8.8013 O.3       1 RES1    0.0000
      2 O2         3.1168    7.7153    8.8048 O.2       1 RES1    0.0000
      3 O3         4.6832    8.3093    3.0452 O.2       1 RES1    0.0000
      4 O4         5.2197   10.3297    3.6269 O.2       1 RES1    0.0000
      5 N1         2.2429    8.5288    6.3183 N.3       1 RES1    0.0000
      6 N2         3.4215   10.2922    5.6666 N.2       1 RES1    0.0000
      7 N3         4.5807    9.2961    3.7737 N.pl3     1 RES1    0.0000
      8 C1         2.9671    8.1137    5.2400 C.2       1 RES1    0.0000
      9 H1         2.9826    7.2503    4.8433 H         1 RES1    0.0000
     10 C2         3.6587    9.2133    4.8645 C.2       1 RES1    0.0000
     11 C3         2.5524    9.8468    6.5501 C.2       1 RES1    0.0000
     12 C4         1.9563   10.6332    7.6555 C.3       1 RES1    0.0000
     13 H2         2.3957   11.5073    7.7074 H         1 RES1    0.0000
     14 H3         2.0808   10.1542    8.5008 H         1 RES1    0.0000
     15 H4         0.9989   10.7582    7.4893 H         1 RES1    0.0000
     16 C5         1.3963    7.6699    7.1267 C.3       1 RES1    0.0000
     17 H5         1.0872    6.9025    6.5838 H         1 RES1    0.0000
     18 H6         0.5993    8.1754    7.4270 H         1 RES1    0.0000
     19 C6         2.1607    7.1623    8.3365 C.2       1 RES1    0.0000
     20 C7         2.3025    5.4427    9.9243 C.3       1 RES1    0.0000
     21 H7         2.1122    5.9425   10.7583 H         1 RES1    0.0000
     22 H8         3.2802    5.4486    9.7697 H         1 RES1    0.0000
     23 C8         1.7978    4.0266   10.0352 C.3       1 RES1    0.0000
     24 H9         0.8249    4.0347   10.1540 H         1 RES1    0.0000
     25 H10        2.2173    3.5902   10.8061 H         1 RES1    0.0000
     26 H11        2.0234    3.5346    9.2173 H         1 RES1    0.0000
@<TRIPOS>BOND
     1    1   19 1
     2    2   19 2
     3    3    7 2
     4    4    7 2
     5    5    8 1
     6    6   10 1
     7    7   10 1
     8    8    9 1
     9   10    8 2
    10   11    5 1
    11   12   11 1
    12   13   12 1
    13   14   12 1
    14   15   12 1
    15   16    5 1
    16   17   16 1
    17   18   16 1
    18   19   16 1
    19   20    1 1
    20   21   20 1
    21   22   20 1
    22   23   20 1
    23   24   23 1
    24   25   23 1
    25   26   23 1
    26    6   11 2
@<TRIPOS>SUBSTRUCTURE
     1 RES1 1

@<TRIPOS>CRYSIN
   4.4160   10.2900   20.7690  90.0000  90.0000  90.0000  19 1

