# MOL2 file generated by ConQuest
# Please check atom types

@<TRIPOS>MOLECULE
LABJON02
    23    24     1
SMALL
NO_CHARGES
****
Generated from CSD

@<TRIPOS>ATOM
      1 O1         4.1967    2.9031    7.9135 O.3       1 RES1    0.0000
      2 C1         4.6029    1.7726    8.5781 C.2       1 RES1    0.0000
      3 C2         4.1473    0.6616    7.9701 C.2       1 RES1    0.0000
      4 C3         3.3818    1.0884    6.8580 C.2       1 RES1    0.0000
      5 C4         3.4545    2.4199    6.8768 C.2       1 RES1    0.0000
      6 N1         2.9018    3.4032    6.0272 N.pl3     1 RES1    0.0000
      7 O2         2.3021    2.9868    5.0340 O.2       1 RES1    0.0000
      8 O3         3.0226    4.5759    6.3217 O.2       1 RES1    0.0000
      9 C5         5.4586    1.9640    9.7318 C.2       1 RES1    0.0000
     10 N2         5.7587    3.1503   10.0887 N.2       1 RES1    0.0000
     11 N3         6.5690    3.2826   11.1857 N.am      1 RES1    0.0000
     12 C6         6.9146    4.5421   11.6125 C.2       1 RES1    0.0000
     13 N4         7.7868    4.3132   12.6812 N.am      1 RES1    0.0000
     14 C7         8.0074    3.0186   12.9304 C.2       1 RES1    0.0000
     15 C8         7.2167    2.2202   11.9335 C.3       1 RES1    0.0000
     16 O4         6.6005    5.5968   11.1555 O.2       1 RES1    0.0000
     17 O5         8.7442    2.5633   13.7839 O.2       1 RES1    0.0000
     18 H1         4.3169   -0.2828    8.2496 H         1 RES1    0.0000
     19 H2         2.8922    0.5150    6.1990 H         1 RES1    0.0000
     20 H3         5.8067    1.1772   10.2416 H         1 RES1    0.0000
     21 H4         8.1740    4.9560   13.0796 H         1 RES1    0.0000
     22 H5         6.5505    1.6260   12.3829 H         1 RES1    0.0000
     23 H6         7.8128    1.6695   11.3481 H         1 RES1    0.0000
@<TRIPOS>BOND
     1    1    2 1
     2    2    3 2
     3    3    4 1
     4    4    5 2
     5    5    1 1
     6    6    5 1
     7    7    6 2
     8    8    6 2
     9    9    2 1
    10   10    9 2
    11   11   10 1
    12   12   11 1
    13   13   12 1
    14   14   13 1
    15   15   11 1
    16   16   12 2
    17   17   14 2
    18   18    3 1
    19   19    4 1
    20   20    9 1
    21   21   13 1
    22   22   15 1
    23   23   15 1
    24   14   15 1
@<TRIPOS>SUBSTRUCTURE
     1 RES1 1

@<TRIPOS>CRYSIN
   7.8400    6.4860   18.9110  90.0000  93.1700  90.0000 231 1

