# MOL2 file generated by ConQuest
# Please check atom types

@<TRIPOS>MOLECULE
LABJON01
    23    24     1
SMALL
NO_CHARGES
****
Generated from CSD

@<TRIPOS>ATOM
      1 O1         2.6575   -0.4905    5.8789 O.3       1 RES1    0.0000
      2 C1         3.6606    0.0112    5.0914 C.2       1 RES1    0.0000
      3 C2         4.8749   -0.3650    5.5829 C.2       1 RES1    0.0000
      4 C3         4.6326   -1.1505    6.7297 C.2       1 RES1    0.0000
      5 C4         3.2959   -1.1806    6.8474 C.2       1 RES1    0.0000
      6 N1         2.4359   -1.7905    7.8113 N.pl3     1 RES1    0.0000
      7 O2         2.7247   -2.4008    8.8296 O.2       1 RES1    0.0000
      8 O3         1.2261   -1.7001    7.6611 O.2       1 RES1    0.0000
      9 C5         3.2674    0.8071    3.9609 C.2       1 RES1    0.0000
     10 N2         2.0131    0.9796    3.7491 N.2       1 RES1    0.0000
     11 N3         1.6593    1.7290    2.6738 N.am      1 RES1    0.0000
     12 C6         0.3223    1.9269    2.4240 C.2       1 RES1    0.0000
     13 N4         0.2709    2.7552    1.3115 N.am      1 RES1    0.0000
     14 C7         1.4916    3.1186    0.8499 C.2       1 RES1    0.0000
     15 C8         2.5160    2.4362    1.7270 C.3       1 RES1    0.0000
     16 O4        -0.6143    1.4905    3.0349 O.2       1 RES1    0.0000
     17 O5         1.7007    3.8592   -0.0869 O.2       1 RES1    0.0000
     18 H1         5.7688   -0.1287    5.2018 H         1 RES1    0.0000
     19 H2         5.3084   -1.5866    7.3226 H         1 RES1    0.0000
     20 H3         3.9528    1.2135    3.3562 H         1 RES1    0.0000
     21 H4        -0.4903    3.0352    0.9422 H         1 RES1    0.0000
     22 H5         3.1023    3.1010    2.1904 H         1 RES1    0.0000
     23 H6         3.0822    1.8012    1.2020 H         1 RES1    0.0000
@<TRIPOS>BOND
     1    1    2 1
     2    2    3 2
     3    3    4 1
     4    4    5 2
     5    5    1 1
     6    6    5 1
     7    7    6 2
     8    8    6 2
     9    9    2 1
    10   10    9 2
    11   11   10 1
    12   12   11 1
    13   13   12 1
    14   14   13 1
    15   15   11 1
    16   16   12 2
    17   17   14 2
    18   18    3 1
    19   19    4 1
    20   20    9 1
    21   21   13 1
    22   22   15 1
    23   23   15 1
    24   14   15 1
@<TRIPOS>SUBSTRUCTURE
     1 RES1 1

@<TRIPOS>CRYSIN
   6.7740    7.7950    9.8030 106.6800 104.0900  92.2900   2 1

