# MOL2 file generated by ConQuest
# Please check atom types

@<TRIPOS>MOLECULE
LABJON
    23    24     1
SMALL
NO_CHARGES
****
Generated from CSD

@<TRIPOS>ATOM
      1 O1         0.1942    0.8827    7.7301 O.2       1 RES1    0.0000
      2 O2        -1.9512    3.9056    5.1005 O.2       1 RES1    0.0000
      3 O3         2.5996    3.5767   10.9756 O.3       1 RES1    0.0000
      4 O4         3.7711    1.9056   12.5662 O.2       1 RES1    0.0000
      5 O5         4.4958    3.4798   13.8546 O.2       1 RES1    0.0000
      6 N1        -0.9922    2.1525    6.1962 N.am      1 RES1    0.0000
      7 N2         0.2328    3.1922    7.6999 N.am      1 RES1    0.0000
      8 N3         1.0276    3.3189    8.7994 N.2       1 RES1    0.0000
      9 N4         3.8903    3.0766   12.8647 N.pl3     1 RES1    0.0000
     10 C1        -0.1361    1.9386    7.2787 C.2       1 RES1    0.0000
     11 C2        -1.2294    3.4636    5.9601 C.2       1 RES1    0.0000
     12 C3        -0.4219    4.2481    6.9575 C.3       1 RES1    0.0000
     13 C4         1.3405    4.5085    9.1545 C.2       1 RES1    0.0000
     14 C5         2.1811    4.6940   10.3050 C.2       1 RES1    0.0000
     15 C6         3.3316    4.0465   12.0051 C.2       1 RES1    0.0000
     16 C7         3.4015    5.3835   12.0316 C.2       1 RES1    0.0000
     17 C8         2.6575    5.7990   10.9227 C.2       1 RES1    0.0000
     18 H1        -1.3562    1.5250    5.6295 H         1 RES1    0.0000
     19 H2        -1.0092    4.7431    7.5752 H         1 RES1    0.0000
     20 H3         0.2106    4.7690    6.5173 H         1 RES1    0.0000
     21 H4         1.0046    5.3441    8.7465 H         1 RES1    0.0000
     22 H5         3.9018    5.8416   12.6569 H         1 RES1    0.0000
     23 H6         2.4540    6.6494   10.6167 H         1 RES1    0.0000
@<TRIPOS>BOND
     1    1   10 2
     2    2   11 2
     3    3   14 1
     4    4    9 2
     5    5    9 2
     6    6   10 1
     7    7    8 1
     8    8   13 2
     9    9   15 1
    10   10    7 1
    11   11    6 1
    12   12    7 1
    13   13   14 1
    14   14   17 2
    15   15    3 1
    16   16   15 2
    17   17   16 1
    18   18    6 1
    19   19   12 1
    20   20   12 1
    21   21   13 1
    22   22   16 1
    23   23   17 1
    24   11   12 1
@<TRIPOS>SUBSTRUCTURE
     1 RES1 1

@<TRIPOS>CRYSIN
   7.8450    6.4620   18.9200  90.0000  93.1800  90.0000 231 1

