# MOL2 file generated by ConQuest
# Please check atom types

@<TRIPOS>MOLECULE
LABMEJ
    55    60     1
SMALL
NO_CHARGES
****
Generated from CSD

@<TRIPOS>ATOM
      1 N1         0.6751   10.2229    7.4134 N.ar      1 RES1    0.0000
      2 C1         1.9288    8.4366    3.7348 C.ar      1 RES1    0.0000
      3 C2         0.6920   10.9994    6.3120 C.ar      1 RES1    0.0000
      4 C3         0.2470   10.7401    8.5558 C.ar      1 RES1    0.0000
      5 C4         1.5927    9.1158    4.9772 C.2       1 RES1    0.0000
      6 H1         1.7646    8.6618    5.7709 H         1 RES1    0.0000
      7 C5         1.0615   10.3297    5.0743 C.2       1 RES1    0.0000
      8 H2         0.9116   10.7910    4.2814 H         1 RES1    0.0000
      9 C6        -0.2755   12.0393    8.6893 C.ar      1 RES1    0.0000
     10 C7         0.2694   12.3339    6.3569 C.ar      1 RES1    0.0000
     11 C8         1.9815    9.0909    2.5121 C.ar      1 RES1    0.0000
     12 H3         1.7709    9.9961    2.4718 H         1 RES1    0.0000
     13 C9        -0.5577   14.2354    5.0086 C.ar      1 RES1    0.0000
     14 C10       -0.3119   12.8266    7.5343 C.ar      1 RES1    0.0000
     15 C11       -0.6998   12.4707   10.0411 C.ar      1 RES1    0.0000
     16 C12        2.6357    7.0986    1.4271 C.ar      1 RES1    0.0000
     17 C13        2.2474    7.0865    3.7493 C.ar      1 RES1    0.0000
     18 H4         2.2282    6.6258    4.5572 H         1 RES1    0.0000
     19 C14        1.5183   13.2239    4.3594 C.ar      1 RES1    0.0000
     20 H5         2.2152   12.6321    4.5350 H         1 RES1    0.0000
     21 C15       -1.0026   14.1659    7.4309 C.3       1 RES1    0.0000
     22 H6        -0.3616   14.8718    7.6039 H         1 RES1    0.0000
     23 H7        -1.6988   14.2220    8.1048 H         1 RES1    0.0000
     24 C16        2.5907    6.4094    2.6006 C.ar      1 RES1    0.0000
     25 H8         2.7883    5.5016    2.6253 H         1 RES1    0.0000
     26 C17        0.2762    9.8243    9.7427 C.3       1 RES1    0.0000
     27 H9         1.0760    9.9939   10.2643 H         1 RES1    0.0000
     28 H10        0.3038    8.9023    9.4409 H         1 RES1    0.0000
     29 C18        0.4131   13.2540    5.2084 C.ar      1 RES1    0.0000
     30 C19        2.3359    8.4348    1.3647 C.ar      1 RES1    0.0000
     31 H11        2.3738    8.8893    0.5542 H         1 RES1    0.0000
     32 N2         3.0557    6.4116    0.2147 N.pl3     1 RES1    0.0000
     33 C20       -0.7203   13.7968   10.4595 C.ar      1 RES1    0.0000
     34 H12       -0.4815   14.4624    9.8559 H         1 RES1    0.0000
     35 C21        1.5934   14.0580    3.2640 C.ar      1 RES1    0.0000
     36 H13        2.3312   14.0227    2.6981 H         1 RES1    0.0000
     37 C22       -1.0080   11.4824   10.9955 C.ar      1 RES1    0.0000
     38 C23       -1.6158   14.3675    6.0558 C.3       1 RES1    0.0000
     39 H14       -2.3092   13.7064    5.9049 H         1 RES1    0.0000
     40 H15       -2.0202   15.2486    6.0025 H         1 RES1    0.0000
     41 C24       -1.3245   11.8632   12.2886 C.ar      1 RES1    0.0000
     42 H16       -1.4998   11.2091   12.9248 H         1 RES1    0.0000
     43 O1         3.4632    5.2668    0.3174 O.2       1 RES1    0.0000
     44 O2         3.0233    7.0096   -0.8456 O.2       1 RES1    0.0000
     45 C25       -0.4825   15.0487    3.8898 C.ar      1 RES1    0.0000
     46 H17       -1.1510   15.6753    3.7285 H         1 RES1    0.0000
     47 C26       -0.9403   10.0359   10.6039 C.3       1 RES1    0.0000
     48 H18       -1.7395    9.7882   10.1134 H         1 RES1    0.0000
     49 H19       -0.8843    9.4806   11.3975 H         1 RES1    0.0000
     50 C27        0.5709   14.9396    3.0143 C.ar      1 RES1    0.0000
     51 H20        0.5916   15.4652    2.2480 H         1 RES1    0.0000
     52 C28       -1.0809   14.1522   11.7331 C.ar      1 RES1    0.0000
     53 H21       -1.1189   15.0494   11.9725 H         1 RES1    0.0000
     54 C29       -1.3852   13.1877   12.6529 C.ar      1 RES1    0.0000
     55 H22       -1.6314   13.4249   13.5180 H         1 RES1    0.0000
@<TRIPOS>BOND
     1    1    3 ar
     2    2    5 1
     3    3    7 1
     4    4    1 ar
     5    5    6 1
     6    7    5 2
     7    8    7 1
     8    9    4 ar
     9   10    3 ar
    10   11    2 ar
    11   12   11 1
    12   13   29 ar
    13   14    9 ar
    14   15    9 1
    15   16   24 ar
    16   17    2 ar
    17   18   17 1
    18   19   20 1
    19   21   14 1
    20   22   21 1
    21   23   21 1
    22   24   17 ar
    23   25   24 1
    24   26    4 1
    25   27   26 1
    26   28   26 1
    27   29   10 1
    28   30   11 ar
    29   31   30 1
    30   32   16 1
    31   33   15 ar
    32   34   33 1
    33   35   19 ar
    34   36   35 1
    35   37   15 ar
    36   38   13 1
    37   39   38 1
    38   40   38 1
    39   41   37 ar
    40   42   41 1
    41   43   32 2
    42   44   32 2
    43   45   13 ar
    44   46   45 1
    45   47   26 1
    46   48   47 1
    47   49   47 1
    48   50   35 ar
    49   51   50 1
    50   52   33 ar
    51   53   52 1
    52   54   41 ar
    53   55   54 1
    54   10   14 ar
    55   16   30 ar
    56   19   29 ar
    57   21   38 1
    58   37   47 1
    59   45   50 ar
    60   52   54 ar
@<TRIPOS>SUBSTRUCTURE
     1 RES1 1

@<TRIPOS>CRYSIN
   7.6171   21.6600   13.2670  90.0000 101.3110  90.0000  14 1

