# MOL2 file generated by ConQuest
# Please check atom types

@<TRIPOS>MOLECULE
LABMEG
    34    33     2
SMALL
NO_CHARGES
****
Generated from CSD

@<TRIPOS>ATOM
      1 O1         6.0496    7.2929    3.4572 O.3       1 RES1    0.0000
      2 O2         9.9145    5.6528    3.3335 O.2       1 RES1    0.0000
      3 O3         7.7221    5.3712    3.3790 O.3       1 RES1    0.0000
      4 N1         9.4440    9.6202    3.3435 N.pl3     1 RES1    0.0000
      5 N2         9.5430    8.3194    3.4265 N.2       1 RES1    0.0000
      6 N3         6.7982    9.3649    3.4091 N.2       1 RES1    0.0000
      7 N4         4.9049    8.1503    3.3529 N.2       1 RES1    0.0000
      8 C1        10.5754   10.4503    3.5302 C.ar      1 RES1    0.0000
      9 C2        10.3602   11.8120    3.4452 C.ar      1 RES1    0.0000
     10 C3        11.4498   12.6809    3.4947 C.ar      1 RES1    0.0000
     11 C4        12.7241   12.1776    3.4305 C.ar      1 RES1    0.0000
     12 C5        12.9241   10.8191    3.3790 C.ar      1 RES1    0.0000
     13 C6        11.8612    9.9323    3.4365 C.ar      1 RES1    0.0000
     14 C7         8.4783    7.5661    3.4084 C.2       1 RES1    0.0000
     15 C8         7.1411    8.0935    3.3455 C.2       1 RES1    0.0000
     16 C9         5.4382    9.3250    3.5543 C.2       1 RES1    0.0000
     17 C10        4.5658   10.5753    3.5061 C.3       1 RES1    0.0000
     18 C11        8.8249    6.0930    3.3201 C.2       1 RES1    0.0000
     19 C12        7.9297    3.9254    3.1863 C.3       1 RES1    0.0000
     20 C13        7.0059    3.2656    3.6914 C.3       1 RES1    0.0000
     21 H1         9.4535   12.1062    3.0029 H         1 RES1    0.0000
     22 H2        11.2821   13.6213    3.0886 H         1 RES1    0.0000
     23 H3        13.5393   12.8017    3.5442 H         1 RES1    0.0000
     24 H4        13.8708   10.5017    3.2438 H         1 RES1    0.0000
     25 H5        11.9240    9.0119    3.1568 H         1 RES1    0.0000
     26 H6         8.6459    9.9039    3.3161 Du        2 SUP2    0.0000
     27 H7         8.7354    3.5335    3.9390 Du        2 SUP2    0.0000
     28 H8         8.2345    3.8424    2.2830 H         1 RES1    0.0000
     29 H9         7.0459    2.3441    3.9316 H         1 RES1    0.0000
     30 H10        6.4363    3.5482    2.8470 H         1 RES1    0.0000
     31 H11        6.4687    3.5419    4.4602 H         1 RES1    0.0000
     32 H12        4.9125   11.1984    4.1223 H         1 RES1    0.0000
     33 H13        3.6420   10.3704    3.7864 H         1 RES1    0.0000
     34 H14        4.5525   10.6026    2.5426 H         1 RES1    0.0000
@<TRIPOS>BOND
     1    1    7 1
     2    2   18 2
     3    3   18 1
     4    4    5 un
     5    5   14 un
     6    6   15 2
     7    7   16 2
     8    8    4 1
     9    9    8 ar
    10   10    9 ar
    11   11   10 ar
    12   12   11 ar
    13   13    8 ar
    14   14   15 1
    15   15    1 1
    16   16    6 1
    17   17   16 1
    18   18   14 1
    19   19    3 1
    20   20   19 1
    21   21    9 1
    22   22   10 1
    23   23   11 1
    24   24   12 1
    25   25   13 1
    26   28   19 1
    27   29   20 1
    28   30   20 1
    29   31   20 1
    30   32   17 1
    31   33   17 1
    32   34   17 1
    33   12   13 ar
@<TRIPOS>SUBSTRUCTURE
     1 RES1 1
     2 SUP2 26

@<TRIPOS>CRYSIN
  19.0480   10.5070    6.6910  90.0000  90.0000  90.0000  33 1

