# MOL2 file generated by ConQuest
# Please check atom types

@<TRIPOS>MOLECULE
LABVEP
    21    21     1
SMALL
NO_CHARGES
****
Generated from CSD

@<TRIPOS>ATOM
      1 O1        13.6180    6.7065    1.4996 O.3       1 RES1    0.0000
      2 O2        12.6701    6.4207   -0.4828 O.2       1 RES1    0.0000
      3 O3         7.8943   -0.0372    3.9317 O.2       1 RES1    0.0000
      4 O4         6.8932   -0.2012    2.0342 O.2       1 RES1    0.0000
      5 N1         7.7212    0.2973    2.7662 N.pl3     1 RES1    0.0000
      6 C1         8.5647    1.3735    2.2346 C.ar      1 RES1    0.0000
      7 C2         9.5327    1.9133    3.0491 C.ar      1 RES1    0.0000
      8 C3        10.3394    2.9004    2.5501 C.ar      1 RES1    0.0000
      9 C4        10.1905    3.3537    1.2347 C.ar      1 RES1    0.0000
     10 C5         9.1939    2.7943    0.4485 C.ar      1 RES1    0.0000
     11 C6         8.3752    1.7971    0.9409 C.ar      1 RES1    0.0000
     12 C7        11.0439    4.4067    0.6779 C.2       1 RES1    0.0000
     13 C8        12.0049    5.0492    1.3178 C.2       1 RES1    0.0000
     14 C9        12.7962    6.1178    0.7212 C.2       1 RES1    0.0000
     15 H1         9.6481    1.6100    3.9732 H         1 RES1    0.0000
     16 H2        11.0056    3.2249    3.1906 H         1 RES1    0.0000
     17 H3         9.0830    3.0992   -0.4876 H         1 RES1    0.0000
     18 H4         7.7238    1.3936    0.4033 H         1 RES1    0.0000
     19 H5        10.8377    4.6336   -0.2047 H         1 RES1    0.0000
     20 H6        12.2139    4.8852    2.2575 H         1 RES1    0.0000
     21 H7        14.1420    7.5114    1.1498 H         1 RES1    0.0000
@<TRIPOS>BOND
     1    1   14 1
     2    2   14 2
     3    3    5 2
     4    4    5 2
     5    5    6 1
     6    6    7 ar
     7    7    8 ar
     8    8    9 ar
     9    9   10 ar
    10   10   11 ar
    11   11    6 ar
    12   12    9 1
    13   13   12 2
    14   14   13 1
    15   15    7 1
    16   16    8 1
    17   17   10 1
    18   18   11 1
    19   19   12 1
    20   20   13 1
    21   21    1 1
@<TRIPOS>SUBSTRUCTURE
     1 RES1 1

@<TRIPOS>CRYSIN
  27.7290    5.0311    6.1050  90.0000  99.5700  90.0000  14 2

