# MOL2 file generated by ConQuest
# Please check atom types

@<TRIPOS>MOLECULE
LABWAM
    92   100     2
SMALL
NO_CHARGES
****
Generated from CSD

@<TRIPOS>ATOM
      1 O1        11.8732   11.3607    5.6688 O.2       1 RES1    0.0000
      2 O2        13.0752   12.1540    2.9080 O.3       1 RES1    0.0000
      3 O3         6.5234    9.2465   14.0447 O.2       2 RES2    0.0000
      4 O4         7.5000    6.9988   12.1713 O.3       2 RES2    0.0000
      5 N1        14.3174   11.9290    3.5894 N.2       1 RES1    0.0000
      6 N2         6.4078    7.3343   11.3342 N.2       2 RES2    0.0000
      7 C1        11.4817   11.5423    4.5387 C.2       1 RES1    0.0000
      8 C2        10.3297   12.3115    4.0649 C.ar      1 RES1    0.0000
      9 C3         9.5280   13.1903    4.7764 C.ar      1 RES1    0.0000
     10 C4         8.5087   13.8086    4.0833 C.ar      1 RES1    0.0000
     11 C5         8.2527   13.5097    2.7574 C.ar      1 RES1    0.0000
     12 C6         9.0460   12.6157    2.0392 C.ar      1 RES1    0.0000
     13 C7        10.1255   12.0257    2.7406 C.ar      1 RES1    0.0000
     14 C8        11.0874   10.9786    2.1965 C.3       1 RES1    0.0000
     15 C9        10.3599    9.5919    2.1212 C.3       1 RES1    0.0000
     16 C10       12.1843   11.0027    3.2764 C.3       1 RES1    0.0000
     17 C11       14.3588   10.7151    3.9712 C.2       1 RES1    0.0000
     18 C12       13.1624    9.8712    3.5543 C.3       1 RES1    0.0000
     19 C13       13.5553    8.9892    2.3941 C.ar      1 RES1    0.0000
     20 C14       14.0699    9.5151    1.2155 C.ar      1 RES1    0.0000
     21 C15       14.4368    8.7063    0.1574 C.ar      1 RES1    0.0000
     22 C16       14.2675    7.3217    0.2662 C.ar      1 RES1    0.0000
     23 C17       13.7582    6.8059    1.4231 C.ar      1 RES1    0.0000
     24 C18       13.3822    7.6069    2.4744 C.ar      1 RES1    0.0000
     25 C19       15.5285   10.2000    4.7128 C.ar      1 RES1    0.0000
     26 C20       16.6734   10.9681    4.8568 C.ar      1 RES1    0.0000
     27 C21       17.7007   10.4989    5.6403 C.ar      1 RES1    0.0000
     28 C22       17.6534    9.3026    6.2397 C.ar      1 RES1    0.0000
     29 C23       16.5440    8.5275    6.1225 C.ar      1 RES1    0.0000
     30 C24       15.4797    8.9925    5.3390 C.ar      1 RES1    0.0000
     31 C25        7.5377    8.5882   13.9208 C.2       2 RES2    0.0000
     32 C26        8.3564    7.9279   14.9186 C.ar      2 RES2    0.0000
     33 C27        8.0921    7.7656   16.2596 C.ar      2 RES2    0.0000
     34 C28        9.0115    7.1015   17.0549 C.ar      2 RES2    0.0000
     35 C29       10.1924    6.6323   16.4589 C.ar      2 RES2    0.0000
     36 C30       10.4572    6.8055   15.1044 C.ar      2 RES2    0.0000
     37 C31        9.5251    7.4746   14.3527 C.ar      2 RES2    0.0000
     38 C32        9.6290    7.8822   12.8895 C.3       2 RES2    0.0000
     39 C33       10.6445    9.0546   12.7405 C.3       2 RES2    0.0000
     40 C34        8.1850    8.2794   12.5480 C.3       2 RES2    0.0000
     41 C35        6.4963    8.5542   10.9709 C.2       2 RES2    0.0000
     42 C36        7.7816    9.2490   11.4413 C.3       2 RES2    0.0000
     43 C37        8.7316    9.4039   10.2845 C.ar      2 RES2    0.0000
     44 C38        9.1229   10.6814    9.8592 C.ar      2 RES2    0.0000
     45 C39        9.9784   10.7973    8.7576 C.ar      2 RES2    0.0000
     46 C40       10.4717    9.6914    8.1298 C.ar      2 RES2    0.0000
     47 C41       10.1039    8.4273    8.5684 C.ar      2 RES2    0.0000
     48 C42        9.2575    8.2870    9.6349 C.ar      2 RES2    0.0000
     49 C43        5.4919    9.1369   10.0853 C.ar      2 RES2    0.0000
     50 C44        4.3716    8.3832    9.7102 C.ar      2 RES2    0.0000
     51 C45        3.4144    8.9428    8.8899 C.ar      2 RES2    0.0000
     52 C46        3.5143   10.2523    8.4563 C.ar      2 RES2    0.0000
     53 C47        4.6055   10.9867    8.8346 C.ar      2 RES2    0.0000
     54 C48        5.5679   10.4489    9.6684 C.ar      2 RES2    0.0000
     55 H1         9.8257   13.3131    5.8094 H         1 RES1    0.0000
     56 H2         7.8657   14.4612    4.5538 H         1 RES1    0.0000
     57 H3         7.5444   13.9754    2.3606 H         1 RES1    0.0000
     58 H4         8.8693   12.3304    0.9710 H         1 RES1    0.0000
     59 H5        11.4523   11.2686    1.2389 H         1 RES1    0.0000
     60 H6        11.0138    9.0882    1.5068 H         1 RES1    0.0000
     61 H7        10.1832    9.4392    3.0637 H         1 RES1    0.0000
     62 H8         9.5341    9.7705    1.4398 H         1 RES1    0.0000
     63 H9        12.7825    9.4274    4.4031 H         1 RES1    0.0000
     64 H10       14.1020   10.5686    1.2222 H         1 RES1    0.0000
     65 H11       14.7500    9.2109   -0.7534 H         1 RES1    0.0000
     66 H12       14.6641    6.7174   -0.5190 H         1 RES1    0.0000
     67 H13       13.7053    5.7500    1.4398 H         1 RES1    0.0000
     68 H14       12.8533    7.3327    3.3818 H         1 RES1    0.0000
     69 H15       16.6269   11.8052    4.4198 H         1 RES1    0.0000
     70 H16       18.5838   10.9313    5.5248 H         1 RES1    0.0000
     71 H17       18.4211    8.8337    6.8307 H         1 RES1    0.0000
     72 H18       16.3653    7.7853    6.7135 H         1 RES1    0.0000
     73 H19       14.6519    8.3984    5.3239 H         1 RES1    0.0000
     74 H20        7.3779    8.1683   16.5911 H         2 RES2    0.0000
     75 H21        8.8317    6.9257   18.0979 H         2 RES2    0.0000
     76 H22       10.7773    6.1216   16.8925 H         2 RES2    0.0000
     77 H23       11.3163    6.4520   14.7160 H         2 RES2    0.0000
     78 H24        9.9670    7.0774   12.2885 H         2 RES2    0.0000
     79 H25       10.9180    9.2571   11.6690 H         2 RES2    0.0000
     80 H26       10.3026    9.8716   13.0753 H         2 RES2    0.0000
     81 H27       11.5099    8.7884   13.1423 H         2 RES2    0.0000
     82 H28        7.5260   10.1156   11.7862 H         2 RES2    0.0000
     83 H29        8.7339   11.4601   10.2125 H         2 RES2    0.0000
     84 H30       10.1400   11.6680    8.4546 H         2 RES2    0.0000
     85 H31       11.0869    9.7702    7.3162 H         2 RES2    0.0000
     86 H32       10.5447    7.6822    8.1198 H         2 RES2    0.0000
     87 H33        9.0484    7.3654   10.0116 H         2 RES2    0.0000
     88 H34        4.3436    7.5097   10.0953 H         2 RES2    0.0000
     89 H35        2.6027    8.4077    8.6555 H         2 RES2    0.0000
     90 H36        2.7884   10.7348    7.8352 H         2 RES2    0.0000
     91 H37        4.6159   11.8970    8.6388 H         2 RES2    0.0000
     92 H38        6.3946   10.9073    9.8944 H         2 RES2    0.0000
@<TRIPOS>BOND
     1    1    7 2
     2    2    5 1
     3    3   31 2
     4    4    6 1
     5    5   17 2
     6    6   41 2
     7    7    8 1
     8    8    9 ar
     9    9   10 ar
    10   10   11 ar
    11   11   12 ar
    12   12   13 ar
    13   13    8 ar
    14   14   13 1
    15   15   14 1
    16   16    2 1
    17   17   18 1
    18   18   16 1
    19   19   18 1
    20   20   19 ar
    21   21   20 ar
    22   22   21 ar
    23   23   22 ar
    24   24   19 ar
    25   25   17 1
    26   26   25 ar
    27   27   26 ar
    28   28   27 ar
    29   29   28 ar
    30   30   25 ar
    31   31   32 1
    32   32   33 ar
    33   33   34 ar
    34   34   35 ar
    35   35   36 ar
    36   36   37 ar
    37   37   32 ar
    38   38   37 1
    39   39   38 1
    40   40    4 1
    41   41   42 1
    42   42   40 1
    43   43   42 1
    44   44   43 ar
    45   45   44 ar
    46   46   45 ar
    47   47   46 ar
    48   48   43 ar
    49   49   41 1
    50   50   49 ar
    51   51   50 ar
    52   52   51 ar
    53   53   52 ar
    54   54   49 ar
    55   55    9 1
    56   56   10 1
    57   57   11 1
    58   58   12 1
    59   59   14 1
    60   60   15 1
    61   61   15 1
    62   62   15 1
    63   63   18 1
    64   64   20 1
    65   65   21 1
    66   66   22 1
    67   67   23 1
    68   68   24 1
    69   69   26 1
    70   70   27 1
    71   71   28 1
    72   72   29 1
    73   73   30 1
    74   74   33 1
    75   75   34 1
    76   76   35 1
    77   77   36 1
    78   78   38 1
    79   79   39 1
    80   80   39 1
    81   81   39 1
    82   82   42 1
    83   83   44 1
    84   84   45 1
    85   85   46 1
    86   86   47 1
    87   87   48 1
    88   88   50 1
    89   89   51 1
    90   90   52 1
    91   91   53 1
    92   92   54 1
    93    7   16 1
    94   14   16 1
    95   23   24 ar
    96   29   30 ar
    97   31   40 1
    98   38   40 1
    99   47   48 ar
   100   53   54 ar
@<TRIPOS>SUBSTRUCTURE
     1 RES1 1
     2 RES2 3

@<TRIPOS>CRYSIN
  10.6330   11.6480   17.2360  76.3000  83.1600  64.9500   2 1

