# MOL2 file generated by ConQuest
# Please check atom types

@<TRIPOS>MOLECULE
LACGAY
    30    29     2
SMALL
NO_CHARGES
****
Generated from CSD

@<TRIPOS>ATOM
      1 C1         4.5616    2.4051    2.1401 C.ar      1 RES1    0.0000
      2 C2         2.9292    3.6510    3.0067 C.ar      1 RES1    0.0000
      3 C3         2.4398    2.2156    1.3809 C.ar      1 RES1    0.0000
      4 C4         2.4234    4.7391    3.9542 C.3       1 RES1    0.0000
      5 C5         1.8381    0.6325   -0.3857 C.3       1 RES1    0.0000
      6 C6         6.4098    1.1596    1.1266 C.3       1 RES1    0.0000
      7 C7         1.1960    4.4429    4.7771 C.3       1 RES1    0.0000
      8 C8         1.1682    3.1662    5.3734 C.3       1 RES1    0.0000
      9 C9        -0.2120    3.0166    6.0952 C.1       1 RES1    0.0000
     10 C10        0.2756    3.6051    4.5274 Du        2 SUP2    0.0000
     11 N1         3.7194    1.8114    1.2934 N.ar      1 RES1    0.0000
     12 N2         4.2136    3.3515    3.0706 N.ar      1 RES1    0.0000
     13 N3         1.9820    3.1633    2.2415 N.ar      1 RES1    0.0000
     14 N4         3.5769    5.2151    4.8406 N.pl3     1 RES1    0.0000
     15 N5         2.0893    5.9849    3.0931 N.pl3     1 RES1    0.0000
     16 N6         1.5365    1.6661    0.5820 N.3       1 RES1    0.0000
     17 N7         5.8452    2.0719    2.1058 N.3       1 RES1    0.0000
     18 N8        -1.1087    2.8525    6.7411 N.1       1 RES1    0.0000
     19 O1         3.8316    4.4972    5.7864 O.2       1 RES1    0.0000
     20 O2         4.1809    6.2105    4.5260 O.2       1 RES1    0.0000
     21 O3         1.3411    6.7964    3.5688 O.2       1 RES1    0.0000
     22 O4         2.5962    6.0937    2.0346 O.2       1 RES1    0.0000
     23 H1         0.6511    2.0670    0.6133 H         1 RES1    0.0000
     24 H2         6.3849    2.4804    2.8149 H         1 RES1    0.0000
     25 H3         2.0997    0.9727   -1.1637 H         1 RES1    0.0000
     26 H4         2.0393   -0.0730    0.0786 H         1 RES1    0.0000
     27 H5         0.8983   -0.0122   -0.3617 H         1 RES1    0.0000
     28 H6         7.4499    1.4226    1.1951 H         1 RES1    0.0000
     29 H7         6.0385    1.2645    0.3460 H         1 RES1    0.0000
     30 H8         6.4247    0.2189    1.4153 H         1 RES1    0.0000
@<TRIPOS>BOND
     1    1   11 ar
     2    2    4 1
     3    3   11 ar
     4    4    7 1
     5    5   16 1
     6    6   17 1
     7    7    8 1
     8    8    9 1
     9    9   18 3
    10   12    1 ar
    11   13    2 ar
    12   14    4 1
    13   15    4 1
    14   16    3 1
    15   17    1 1
    16   19   14 2
    17   20   14 2
    18   21   15 2
    19   22   15 2
    20   23   16 1
    21   24   17 1
    22   25    5 1
    23   26    5 1
    24   27    5 1
    25   28    6 1
    26   29    6 1
    27   30    6 1
    28    2   12 ar
    29    3   13 ar
@<TRIPOS>SUBSTRUCTURE
     1 RES1 1
     2 SUP2 10

@<TRIPOS>CRYSIN
  14.4410   12.1590   16.5480  90.0000 108.1400  90.0000  15 1

