# MOL2 file generated by ConQuest
# Please check atom types

@<TRIPOS>MOLECULE
LADKOR
    58    60     1
SMALL
NO_CHARGES
****
Generated from CSD

@<TRIPOS>ATOM
      1 O1         2.4512    2.7656    4.1442 O.3       1 RES1    0.0000
      2 H1         2.6711    3.6758    4.2755 H         1 RES1    0.0000
      3 O2         3.6162   -3.5500    4.3948 O.2       1 RES1    0.0000
      4 O3         5.5411   -4.6281    4.1493 O.3       1 RES1    0.0000
      5 H2         4.9353   -5.3290    3.8687 H         1 RES1    0.0000
      6 O4         4.1136   -3.7646    7.2401 O.2       1 RES1    0.0000
      7 O5         4.7903   -2.0331    8.4414 O.3       1 RES1    0.0000
      8 N1         3.6444    2.2916    3.5539 N.2       1 RES1    0.0000
      9 C1         6.0877    0.0413    5.0930 C.3       1 RES1    0.0000
     10 H3         6.9271   -0.0668    4.6203 H         1 RES1    0.0000
     11 H4         5.7399    0.9216    4.8824 H         1 RES1    0.0000
     12 C2         6.3489   -0.0405    6.5791 C.3       1 RES1    0.0000
     13 H5         5.5187    0.0967    7.0615 H         1 RES1    0.0000
     14 H6         6.9678    0.6595    6.8374 H         1 RES1    0.0000
     15 C3         6.9298   -1.3912    6.9443 C.3       1 RES1    0.0000
     16 H7         7.0505   -1.4263    7.9063 H         1 RES1    0.0000
     17 H8         7.8059   -1.4712    6.5374 H         1 RES1    0.0000
     18 C4         6.0812   -2.5897    6.5164 C.3       1 RES1    0.0000
     19 C5         5.6782   -2.4227    5.0030 C.3       1 RES1    0.0000
     20 H9         6.5196   -2.4974    4.5065 H         1 RES1    0.0000
     21 C6         4.8310   -3.5667    4.5083 C.2       1 RES1    0.0000
     22 C7         3.4888    1.1520    3.0394 C.2       1 RES1    0.0000
     23 H10        2.6508    0.7536    3.0929 H         1 RES1    0.0000
     24 C8         4.5776    0.4133    2.3505 C.3       1 RES1    0.0000
     25 C9         4.8395   -0.9910    3.0339 C.3       1 RES1    0.0000
     26 H11        3.9968   -1.4765    2.9136 H         1 RES1    0.0000
     27 C10        5.0862   -1.0271    4.5900 C.3       1 RES1    0.0000
     28 C11        5.8469   -1.7482    2.1171 C.3       1 RES1    0.0000
     29 H12        6.1882   -2.5141    2.6032 H         1 RES1    0.0000
     30 H13        5.3658   -2.0841    1.3447 H         1 RES1    0.0000
     31 C12        7.0315   -0.9233    1.6247 C.3       1 RES1    0.0000
     32 H14        7.5224   -1.4255    0.9551 H         1 RES1    0.0000
     33 H15        7.6313   -0.7413    2.3653 H         1 RES1    0.0000
     34 C13        6.5478    0.3948    1.0216 C.3       1 RES1    0.0000
     35 H16        7.2796    0.8873    0.5965 H         1 RES1    0.0000
     36 C14        5.8679    1.2241    2.1047 C.3       1 RES1    0.0000
     37 H17        5.6697    2.1210    1.7930 H         1 RES1    0.0000
     38 H18        6.4126    1.2768    2.9067 H         1 RES1    0.0000
     39 C15        4.1241    0.1829    0.8668 C.3       1 RES1    0.0000
     40 H19        3.6424   -0.6551    0.7827 H         1 RES1    0.0000
     41 H20        3.5492    0.9049    0.5689 H         1 RES1    0.0000
     42 C16        5.4019    0.1486    0.0569 C.2       1 RES1    0.0000
     43 C17        5.5043   -0.0299   -1.2430 C.2       1 RES1    0.0000
     44 H21        4.7397   -0.1504   -1.7585 H         1 RES1    0.0000
     45 H22        6.3424   -0.0343   -1.6481 H         1 RES1    0.0000
     46 C18        6.9626   -3.8587    6.6715 C.3       1 RES1    0.0000
     47 H23        7.2205   -3.9580    7.5925 H         1 RES1    0.0000
     48 H24        7.7482   -3.7707    6.1271 H         1 RES1    0.0000
     49 H25        6.4645   -4.6299    6.3926 H         1 RES1    0.0000
     50 C19        4.8861   -2.8580    7.4091 C.2       1 RES1    0.0000
     51 C20        3.7343   -0.7738    5.3082 C.3       1 RES1    0.0000
     52 H26        3.8577   -0.8451    6.2581 H         1 RES1    0.0000
     53 H27        3.0911   -1.4246    5.0203 H         1 RES1    0.0000
     54 H28        3.4173    0.1064    5.0927 H         1 RES1    0.0000
     55 C21        3.7041   -2.2811    9.3727 C.3       1 RES1    0.0000
     56 H29        2.8654   -2.2274    8.9096 H         1 RES1    0.0000
     57 H30        3.7251   -1.6233   10.0716 H         1 RES1    0.0000
     58 H31        3.8025   -3.1569    9.7544 H         1 RES1    0.0000
@<TRIPOS>BOND
     1    1    2 1
     2    3   21 2
     3    4    5 1
     4    6   50 2
     5    7   50 1
     6    8    1 1
     7    9   10 1
     8   11    9 1
     9   12    9 1
    10   13   12 1
    11   14   12 1
    12   15   12 1
    13   16   15 1
    14   17   15 1
    15   18   15 1
    16   19   18 1
    17   20   19 1
    18   21    4 1
    19   22    8 2
    20   23   22 1
    21   24   22 1
    22   25   24 1
    23   26   25 1
    24   27    9 1
    25   28   25 1
    26   29   28 1
    27   30   28 1
    28   31   28 1
    29   32   31 1
    30   33   31 1
    31   34   31 1
    32   35   34 1
    33   36   24 1
    34   37   36 1
    35   38   36 1
    36   39   24 1
    37   40   39 1
    38   41   39 1
    39   42   34 1
    40   43   42 2
    41   44   43 1
    42   45   43 1
    43   46   18 1
    44   47   46 1
    45   48   46 1
    46   49   46 1
    47   50   18 1
    48   51   27 1
    49   52   51 1
    50   53   51 1
    51   54   51 1
    52   55    7 1
    53   56   55 1
    54   57   55 1
    55   58   55 1
    56   19   21 1
    57   19   27 1
    58   25   27 1
    59   34   36 1
    60   39   42 1
@<TRIPOS>SUBSTRUCTURE
     1 RES1 1

@<TRIPOS>CRYSIN
   6.5629    8.7937   34.4800  90.0000  90.0000  90.0000  19 1

