# MOL2 file generated by ConQuest
# Please check atom types

@<TRIPOS>MOLECULE
LADLAG
    32    34     1
SMALL
NO_CHARGES
****
Generated from CSD

@<TRIPOS>ATOM
      1 O1         2.5544    1.9765    3.6820 O.2       1 RES1    0.0000
      2 O2         2.5243    1.5253    0.8021 O.2       1 RES1    0.0000
      3 O3         3.7555   -0.1102    1.5174 O.2       1 RES1    0.0000
      4 N1         1.4087    4.0114    3.6021 N.am      1 RES1    0.0000
      5 N2         3.5762    1.0819    1.2380 N.pl3     1 RES1    0.0000
      6 C1         0.3547    4.0933    4.4982 C.2       1 RES1    0.0000
      7 C2        -0.0992    5.3882    4.4340 C.2       1 RES1    0.0000
      8 C3         0.6868    6.1262    3.4774 C.2       1 RES1    0.0000
      9 C4         1.6142    5.2441    2.9921 C.2       1 RES1    0.0000
     10 C5         2.7806    5.1171    2.1638 C.2       1 RES1    0.0000
     11 C6         3.2776    3.8545    2.2809 C.2       1 RES1    0.0000
     12 C7         2.4204    3.1058    3.2518 C.2       1 RES1    0.0000
     13 C8        -0.1112    2.9139    5.2733 C.3       1 RES1    0.0000
     14 C9         0.5337    7.5743    3.1225 C.3       1 RES1    0.0000
     15 C10        4.5235    3.3201    1.7460 C.ar      1 RES1    0.0000
     16 C11        4.7244    1.9856    1.3639 C.ar      1 RES1    0.0000
     17 C12        5.9523    1.4698    1.0057 C.ar      1 RES1    0.0000
     18 C13        7.0556    2.3124    0.9696 C.ar      1 RES1    0.0000
     19 C14        6.8893    3.6520    1.2925 C.ar      1 RES1    0.0000
     20 C15        5.6657    4.1382    1.6876 C.ar      1 RES1    0.0000
     21 H1        -0.8186    5.7229    4.9514 H         1 RES1    0.0000
     22 H2         3.1421    5.8006    1.6164 H         1 RES1    0.0000
     23 H3        -0.7321    3.1884    5.9712 H         1 RES1    0.0000
     24 H4         0.6437    2.4926    5.7035 H         1 RES1    0.0000
     25 H5        -0.5549    2.2920    4.6977 H         1 RES1    0.0000
     26 H6         1.0908    7.8102    2.3634 H         1 RES1    0.0000
     27 H7         0.8033    8.1328    3.8605 H         1 RES1    0.0000
     28 H8        -0.3713    7.7809    2.9079 H         1 RES1    0.0000
     29 H9         6.0414    0.5643    0.7621 H         1 RES1    0.0000
     30 H10        7.9087    1.9796    0.7210 H         1 RES1    0.0000
     31 H11        7.6280    4.2231    1.2594 H         1 RES1    0.0000
     32 H12        5.5758    5.0404    1.9593 H         1 RES1    0.0000
@<TRIPOS>BOND
     1    1   12 2
     2    2    5 2
     3    3    5 2
     4    4    6 1
     5    5   16 1
     6    6    7 2
     7    7    8 1
     8    8    9 2
     9    9    4 1
    10   10    9 1
    11   11   10 2
    12   12    4 1
    13   13    6 1
    14   14    8 1
    15   15   11 1
    16   16   15 ar
    17   17   16 ar
    18   18   17 ar
    19   19   18 ar
    20   20   15 ar
    21   21    7 1
    22   22   10 1
    23   23   13 1
    24   24   13 1
    25   25   13 1
    26   26   14 1
    27   27   14 1
    28   28   14 1
    29   29   17 1
    30   30   18 1
    31   31   19 1
    32   32   20 1
    33   11   12 1
    34   19   20 ar
@<TRIPOS>SUBSTRUCTURE
     1 RES1 1

@<TRIPOS>CRYSIN
   7.9103    8.2020   10.8545  79.8070  69.6880  87.4450   2 1

