# MOL2 file generated by ConQuest
# Please check atom types

@<TRIPOS>MOLECULE
LAGLIR
    46    46     1
SMALL
USER_CHARGES
****
Generated from CSD

@<TRIPOS>ATOM
      1 O1         1.1252    1.3401    7.2191 O.3       1 RES1    0.0000
      2 O2        -3.0939    2.5385    9.2195 O.2       1 RES1    0.0000
      3 O3        -2.7929    0.7757    6.3316 O.3       1 RES1    0.0000
      4 H1        -3.2306    0.0806    6.2070 H         1 RES1    0.0000
      5 O4        -0.7650    0.1801    4.3511 O.3       1 RES1    0.0000
      6 H2        -1.5123    0.2748    4.0881 H         1 RES1    0.0000
      7 O5         3.2384    1.1638    5.4617 O.3       1 RES1    0.0000
      8 H3         3.3450    1.8244    6.0574 H         1 RES1    0.0000
      9 O6         0.6493    2.5513    9.7019 O.3       1 RES1    0.0000
     10 N1         0.8862    1.1325    9.5685 N.3       1 RES1    0.0000
     11 N2        -2.0099    0.5487    9.0363 N.am      1 RES1    0.0000
     12 H4        -2.1082   -0.3649    9.1235 H         1 RES1    0.0000
     13 N3         4.6638   -0.4938   11.0093 N.2       1 RES1    0.0000
     14 N4         5.8522   -0.7980   11.1526 N.1       1 RES1    1.0000
     15 N5         6.9075   -1.2183   11.2661 N.2       1 RES1   -1.0000
     16 C1         0.3861    0.7098    8.2822 C.3       1 RES1    0.0000
     17 H5         0.5062   -0.2801    8.2074 H         1 RES1    0.0000
     18 C2        -1.0846    1.0382    8.0205 C.3       1 RES1    0.0000
     19 H6        -1.1787    2.0324    7.9607 H         1 RES1    0.0000
     20 C3        -1.4613    0.4331    6.6557 C.3       1 RES1    0.0000
     21 H7        -1.3957   -0.5625    6.7205 H         1 RES1    0.0000
     22 C4        -0.5361    0.9103    5.5489 C.3       1 RES1    0.0000
     23 H8        -0.6955    1.8831    5.3806 H         1 RES1    0.0000
     24 C5         0.9109    0.7018    5.9689 C.3       1 RES1    0.0000
     25 H9         1.0839   -0.2782    6.0686 H         1 RES1    0.0000
     26 C6         1.9111    1.2865    4.9930 C.3       1 RES1    0.0000
     27 H10        1.8280    0.8217    4.1230 H         1 RES1    0.0000
     28 H11        1.7038    2.2437    4.8484 H         1 RES1    0.0000
     29 C7        -3.0075    1.3339    9.5012 C.2       1 RES1    0.0000
     30 C8        -4.0117    0.6800   10.4086 C.3       1 RES1    0.0000
     31 H12       -3.8638    0.9809   11.3296 H         1 RES1    0.0000
     32 H13       -3.9077   -0.2933   10.3612 H         1 RES1    0.0000
     33 H14       -4.9158    0.9264   10.1244 H         1 RES1    0.0000
     34 C9        -0.0464    2.8024   10.9246 C.3       1 RES1    0.0000
     35 H15        0.4920    2.4830   11.6786 H         1 RES1    0.0000
     36 H16       -0.9062    2.3309   10.9146 H         1 RES1    0.0000
     37 H17       -0.2050    3.7648   11.0205 H         1 RES1    0.0000
     38 C10        2.3399    0.9250    9.6495 C.3       1 RES1    0.0000
     39 H18        2.7909    1.5291    9.0076 H         1 RES1    0.0000
     40 H19        2.5493   -0.0066    9.3878 H         1 RES1    0.0000
     41 C11        2.8816    1.1856   11.0455 C.3       1 RES1    0.0000
     42 H20        2.6789    2.1200   11.3022 H         1 RES1    0.0000
     43 H21        2.4231    0.5876   11.6886 H         1 RES1    0.0000
     44 C12        4.3713    0.9600   11.1352 C.3       1 RES1    0.0000
     45 H22        4.8298    1.4566   10.4111 H         1 RES1    0.0000
     46 H23        4.7106    1.2960   12.0027 H         1 RES1    0.0000
@<TRIPOS>BOND
     1    1   16 1
     2    2   29 2
     3    3    4 1
     4    5    6 1
     5    7    8 1
     6    9   10 1
     7   10   16 1
     8   11   12 1
     9   13   14 2
    10   14   15 2
    11   16   17 1
    12   18   11 1
    13   19   18 1
    14   20    3 1
    15   21   20 1
    16   22    5 1
    17   23   22 1
    18   24    1 1
    19   25   24 1
    20   26    7 1
    21   27   26 1
    22   28   26 1
    23   29   11 1
    24   30   29 1
    25   31   30 1
    26   32   30 1
    27   33   30 1
    28   34    9 1
    29   35   34 1
    30   36   34 1
    31   37   34 1
    32   38   10 1
    33   39   38 1
    34   40   38 1
    35   41   38 1
    36   42   41 1
    37   43   41 1
    38   44   13 1
    39   45   44 1
    40   46   44 1
    41   16   18 1
    42   18   20 1
    43   20   22 1
    44   22   24 1
    45   24   26 1
    46   41   44 1
@<TRIPOS>SUBSTRUCTURE
     1 RES1 1

@<TRIPOS>CRYSIN
  13.5605    4.7386   14.1400  90.0000 118.1810  90.0000   4 1

