# MOL2 file generated by ConQuest
# Please check atom types

@<TRIPOS>MOLECULE
LAGPOZ
    92    94     2
SMALL
NO_CHARGES
****
Generated from CSD

@<TRIPOS>ATOM
      1 O1         2.4420    5.4889   12.4730 O.2       1 RES1    0.0000
      2 O2         3.2315    3.7410   13.6082 O.3       1 RES1    0.0000
      3 C1         2.7412    4.3183   12.4832 C.2       1 RES1    0.0000
      4 C2         2.6626    3.3369   11.3966 C.2       1 RES1    0.0000
      5 C3         2.1242    3.7171   10.2246 C.2       1 RES1    0.0000
      6 C4         1.9056    2.9734    9.0024 C.2       1 RES1    0.0000
      7 C5         1.2524    3.6274    8.0062 C.2       1 RES1    0.0000
      8 C6         0.8085    3.2073    6.6838 C.2       1 RES1    0.0000
      9 C7         0.4406    4.2066    5.8415 C.2       1 RES1    0.0000
     10 C8         0.0163    4.1994    4.4466 C.2       1 RES1    0.0000
     11 C9        -0.4351    5.3806    3.9469 C.2       1 RES1    0.0000
     12 C10       -0.9295    5.7054    2.6097 C.ar      1 RES1    0.0000
     13 C11       -0.7532    7.0171    2.1409 C.ar      1 RES1    0.0000
     14 C12       -1.2451    7.4152    0.9091 C.ar      1 RES1    0.0000
     15 C13       -1.9338    6.4882    0.1428 C.ar      1 RES1    0.0000
     16 C14       -2.1391    5.1925    0.5706 C.ar      1 RES1    0.0000
     17 C15       -1.6520    4.8065    1.7979 C.ar      1 RES1    0.0000
     18 C16        3.5410    2.3439   13.3762 C.3       1 RES1    0.0000
     19 C17        3.1824    2.0338   11.9150 C.3       1 RES1    0.0000
     20 C18        2.4476    1.5644    8.9208 C.3       1 RES1    0.0000
     21 C19        0.6686    1.7346    6.3634 C.3       1 RES1    0.0000
     22 C20        0.2005    2.9665    3.5857 C.3       1 RES1    0.0000
     23 N1        -2.4932    6.9111   -1.1414 N.pl3     1 RES1    0.0000
     24 O3        -2.5514    8.1118   -1.3836 O.2       1 RES1    0.0000
     25 O4        -2.8968    6.0431   -1.9134 O.2       1 RES1    0.0000
     26 O5         0.8548   -0.5685   11.2391 O.2       2 RES2    0.0000
     27 O6         0.4927   -2.3731   12.4949 O.3       2 RES2    0.0000
     28 C21        0.8857   -1.7749   11.3485 C.2       2 RES2    0.0000
     29 C22        1.3222   -2.7867   10.3683 C.2       2 RES2    0.0000
     30 C23        1.7469   -2.3751    9.1635 C.2       2 RES2    0.0000
     31 C24        2.2031   -3.1288    8.0064 C.2       2 RES2    0.0000
     32 C25        2.4950   -2.4153    6.8911 C.2       2 RES2    0.0000
     33 C26        2.9222   -2.8228    5.5537 C.2       2 RES2    0.0000
     34 C27        3.4143   -1.8352    4.7659 C.2       2 RES2    0.0000
     35 C28        4.0429   -1.8768    3.4434 C.2       2 RES2    0.0000
     36 C29        4.2766   -0.6953    2.8466 C.2       2 RES2    0.0000
     37 C30        4.9496   -0.3746    1.5862 C.ar      2 RES2    0.0000
     38 C31        5.4204    0.9396    1.4403 C.ar      2 RES2    0.0000
     39 C32        6.0397    1.3740    0.2823 C.ar      2 RES2    0.0000
     40 C33        6.1752    0.4768   -0.7654 C.ar      2 RES2    0.0000
     41 C34        5.7326   -0.8251   -0.6769 C.ar      2 RES2    0.0000
     42 C35        5.1135   -1.2481    0.5015 C.ar      2 RES2    0.0000
     43 C36        0.5577   -3.8209   12.3767 C.3       2 RES2    0.0000
     44 C37        1.1285   -4.1335   10.9955 C.3       2 RES2    0.0000
     45 C38        2.3778   -4.6182    8.1548 C.3       2 RES2    0.0000
     46 C39        2.6863   -4.2313    5.0729 C.3       2 RES2    0.0000
     47 C40        4.6301   -3.1741    2.9317 C.3       2 RES2    0.0000
     48 N2         6.7982    0.9343   -2.0129 N.pl3     2 RES2    0.0000
     49 O7         7.1483    2.1109   -2.0904 O.2       2 RES2    0.0000
     50 O8         6.9347    0.1295   -2.9229 O.2       2 RES2    0.0000
     51 H1         1.8261    4.6707   10.1916 H         1 RES1    0.0000
     52 H2         1.0348    4.5796    8.2228 H         1 RES1    0.0000
     53 H3         0.4647    5.1169    6.2557 H         1 RES1    0.0000
     54 H4        -0.4284    6.1434    4.5929 H         1 RES1    0.0000
     55 H5        -0.2612    7.6772    2.7081 H         1 RES1    0.0000
     56 H6        -1.1077    8.3497    0.5799 H         1 RES1    0.0000
     57 H7        -2.6351    4.5426   -0.0036 H         1 RES1    0.0000
     58 H8        -1.8132    3.8742    2.1192 H         1 RES1    0.0000
     59 H9         4.5143    2.1778   13.5334 H         1 RES1    0.0000
     60 H10        3.0023    1.7671   13.9898 H         1 RES1    0.0000
     61 H11        3.9904    1.7424   11.4034 H         1 RES1    0.0000
     62 H12        2.4808    1.3237   11.8616 H         1 RES1    0.0000
     63 H13        1.7506    0.9207    9.2358 H         1 RES1    0.0000
     64 H14        3.2602    1.4855    9.4990 H         1 RES1    0.0000
     65 H15        2.6913    1.3559    7.9740 H         1 RES1    0.0000
     66 H16        1.5185    1.3996    5.9568 H         1 RES1    0.0000
     67 H17        0.4786    1.2271    7.2043 H         1 RES1    0.0000
     68 H18       -0.0841    1.6043    5.7187 H         1 RES1    0.0000
     69 H19       -0.6299    2.4101    3.6192 H         1 RES1    0.0000
     70 H20        0.9737    2.4328    3.9288 H         1 RES1    0.0000
     71 H21        0.3784    3.2428    2.6419 H         1 RES1    0.0000
     72 H22        1.7507   -1.3829    9.0407 H         2 RES2    0.0000
     73 H23        2.4007   -1.4258    7.0038 H         2 RES2    0.0000
     74 H24        3.3342   -0.9181    5.1567 H         2 RES2    0.0000
     75 H25        3.9330    0.0988    3.3489 H         2 RES2    0.0000
     76 H26        5.3040    1.5822    2.1980 H         2 RES2    0.0000
     77 H27        6.3804    2.3113    0.2023 H         2 RES2    0.0000
     78 H28        5.8511   -1.4559   -1.4444 H         2 RES2    0.0000
     79 H29        4.7830   -2.1892    0.5728 H         2 RES2    0.0000
     80 H30        1.1525   -4.1979   13.0877 H         2 RES2    0.0000
     81 H31       -0.3575   -4.2145   12.4666 H         2 RES2    0.0000
     82 H32        2.0000   -4.6182   11.0723 H         2 RES2    0.0000
     83 H33        0.4863   -4.6850   10.4619 H         2 RES2    0.0000
     84 H34        1.5298   -5.0809    7.8970 H         2 RES2    0.0000
     85 H35        2.5991   -4.8346    9.1052 H         2 RES2    0.0000
     86 H36        3.1212   -4.9273    7.5605 H         2 RES2    0.0000
     87 H37        3.4926   -4.7883    5.2677 H         2 RES2    0.0000
     88 H38        1.8926   -4.6160    5.5451 H         2 RES2    0.0000
     89 H39        2.5166   -4.2229    4.0881 H         2 RES2    0.0000
     90 H40        3.9620   -3.6348    2.3483 H         2 RES2    0.0000
     91 H41        4.8611   -3.7633    3.7051 H         2 RES2    0.0000
     92 H42        5.4562   -2.9804    2.4020 H         2 RES2    0.0000
@<TRIPOS>BOND
     1    1    3 2
     2    2    3 1
     3    3    4 1
     4    4    5 2
     5    5    6 1
     6    6    7 2
     7    7    8 1
     8    8    9 2
     9    9   10 1
    10   10   11 2
    11   11   12 1
    12   12   13 ar
    13   13   14 ar
    14   14   15 ar
    15   15   16 ar
    16   16   17 ar
    17   17   12 ar
    18   18    2 1
    19   19    4 1
    20   20    6 1
    21   21    8 1
    22   22   10 1
    23   23   15 1
    24   24   23 2
    25   25   23 2
    26   26   28 2
    27   27   28 1
    28   28   29 1
    29   29   30 2
    30   30   31 1
    31   31   32 2
    32   32   33 1
    33   33   34 2
    34   34   35 1
    35   35   36 2
    36   36   37 1
    37   37   38 ar
    38   38   39 ar
    39   39   40 ar
    40   40   41 ar
    41   41   42 ar
    42   42   37 ar
    43   43   27 1
    44   44   29 1
    45   45   31 1
    46   46   33 1
    47   47   35 1
    48   48   40 1
    49   49   48 2
    50   50   48 2
    51   51    5 1
    52   52    7 1
    53   53    9 1
    54   54   11 1
    55   55   13 1
    56   56   14 1
    57   57   16 1
    58   58   17 1
    59   59   18 1
    60   60   18 1
    61   61   19 1
    62   62   19 1
    63   63   20 1
    64   64   20 1
    65   65   20 1
    66   66   21 1
    67   67   21 1
    68   68   21 1
    69   69   22 1
    70   70   22 1
    71   71   22 1
    72   72   30 1
    73   73   32 1
    74   74   34 1
    75   75   36 1
    76   76   38 1
    77   77   39 1
    78   78   41 1
    79   79   42 1
    80   80   43 1
    81   81   43 1
    82   82   44 1
    83   83   44 1
    84   84   45 1
    85   85   45 1
    86   86   45 1
    87   87   46 1
    88   88   46 1
    89   89   46 1
    90   90   47 1
    91   91   47 1
    92   92   47 1
    93   18   19 1
    94   43   44 1
@<TRIPOS>SUBSTRUCTURE
     1 RES1 1
     2 RES2 26

@<TRIPOS>CRYSIN
   7.6757   12.3606   18.7375 107.1914  90.3260  91.2405   2 1

