# MOL2 file generated by ConQuest
# Please check atom types

@<TRIPOS>MOLECULE
LAGQIU
   175   184     3
SMALL
NO_CHARGES
****
Generated from CSD

@<TRIPOS>ATOM
      1 C1        16.3481    7.0907   11.8707 C.3       1 RES1    0.0000
      2 H1        15.3850    7.1291   11.6539 H         1 RES1    0.0000
      3 H2        16.8271    7.6633   11.2203 H         1 RES1    0.0000
      4 C2        19.0887    9.8426   15.1582 C.3       1 RES1    0.0000
      5 H3        19.5009   10.1495   14.3127 H         1 RES1    0.0000
      6 H4        18.8005   10.6425   15.6647 H         1 RES1    0.0000
      7 C3        22.7378    6.3505   15.3020 C.3       1 RES1    0.0000
      8 H5        23.4576    6.0508   15.9111 H         1 RES1    0.0000
      9 H6        23.1615    6.7782   14.5157 H         1 RES1    0.0000
     10 C4        20.1792    3.7819   11.6992 C.3       1 RES1    0.0000
     11 H7        20.3621    2.8698   11.3583 H         1 RES1    0.0000
     12 H8        20.6445    4.4269   11.1100 H         1 RES1    0.0000
     13 C5        16.5673    7.6419   13.2799 C.ar      1 RES1    0.0000
     14 C6        17.5867    8.5100   13.5755 C.ar      1 RES1    0.0000
     15 C7        17.8700    8.9731   14.8448 C.ar      1 RES1    0.0000
     16 C8        17.0335    8.5654   15.8638 C.ar      1 RES1    0.0000
     17 H9        17.1886    8.8765   16.7487 H         1 RES1    0.0000
     18 C9        15.9701    7.7130   15.6213 C.ar      1 RES1    0.0000
     19 H10       15.3924    7.4530   16.3269 H         1 RES1    0.0000
     20 C10       15.7611    7.2399   14.3304 C.ar      1 RES1    0.0000
     21 H11       15.0507    6.6304   14.1668 H         1 RES1    0.0000
     22 C11       20.1117    9.0754   15.9682 C.ar      1 RES1    0.0000
     23 C12       20.9361    8.1378   15.3158 C.ar      1 RES1    0.0000
     24 O1        20.7910    8.0341   13.9847 O.3       1 RES1    0.0000
     25 H12       21.3328    7.3166   13.4612 H         1 RES1    0.0000
     26 C13       21.8693    7.3692   16.0175 C.ar      1 RES1    0.0000
     27 C14       21.9991    7.5738   17.3794 C.ar      1 RES1    0.0000
     28 H13       22.6276    7.0666   17.8760 H         1 RES1    0.0000
     29 C15       21.2150    8.5185   18.0179 C.ar      1 RES1    0.0000
     30 N1        21.3987    8.7586   19.4421 N.pl3     1 RES1    0.0000
     31 O2        22.1724    8.0341   20.0531 O.2       1 RES1    0.0000
     32 O3        20.7867    9.6863   19.9656 O.2       1 RES1    0.0000
     33 C16       20.2678    9.2516   17.3222 C.ar      1 RES1    0.0000
     34 H14       19.7226    9.8781   17.7834 H         1 RES1    0.0000
     35 C17       21.9304    5.1373   14.8416 C.ar      1 RES1    0.0000
     36 C18       21.5379    4.9611   13.5164 C.ar      1 RES1    0.0000
     37 C19       20.7245    3.9069   13.1104 C.ar      1 RES1    0.0000
     38 C20       20.3448    2.9806   14.0722 C.ar      1 RES1    0.0000
     39 H15       19.8004    2.2433   13.8239 H         1 RES1    0.0000
     40 C21       20.7538    3.1170   15.3927 C.ar      1 RES1    0.0000
     41 H16       20.5018    2.4706   16.0392 H         1 RES1    0.0000
     42 C22       21.5261    4.1939   15.7573 C.ar      1 RES1    0.0000
     43 H17       21.7861    4.2891   16.6659 H         1 RES1    0.0000
     44 C23       18.6888    4.0419   11.6480 C.ar      1 RES1    0.0000
     45 C24       18.2141    5.3646   11.7489 C.ar      1 RES1    0.0000
     46 O4        19.1542    6.3363   11.8155 O.3       1 RES1    0.0000
     47 H18       18.8191    7.2172   11.8451 H         1 RES1    0.0000
     48 C25       16.8325    5.6672   11.7288 C.ar      1 RES1    0.0000
     49 C26       15.9425    4.6059   11.5751 C.ar      1 RES1    0.0000
     50 H19       15.0098    4.7764   11.5455 H         1 RES1    0.0000
     51 C27       16.4046    3.3188   11.4687 C.ar      1 RES1    0.0000
     52 N2        15.4544    2.2220   11.2932 N.pl3     1 RES1    0.0000
     53 O5        14.2951    2.5118   10.9897 O.2       1 RES1    0.0000
     54 O6        15.8439    1.0783   11.4430 O.2       1 RES1    0.0000
     55 C28       17.7549    3.0289   11.5140 C.ar      1 RES1    0.0000
     56 H20       18.0427    2.1268   11.4529 H         1 RES1    0.0000
     57 O7        18.4469    8.8893   12.5097 O.3       1 RES1    0.0000
     58 C29       18.0758   10.1424   11.8825 C.3       1 RES1    0.0000
     59 H21       17.8006   10.7902   12.5802 H         1 RES1    0.0000
     60 H22       17.3040    9.9932   11.2814 H         1 RES1    0.0000
     61 C30       19.1917   10.6979   11.1178 C.ar      1 RES1    0.0000
     62 C31       20.4396   10.1807   11.1021 C.ar      1 RES1    0.0000
     63 H23       20.6355    9.4079   11.6184 H         1 RES1    0.0000
     64 C32       21.4358   10.7675   10.3374 C.ar      1 RES1    0.0000
     65 H24       22.3100   10.3995   10.3512 H         1 RES1    0.0000
     66 C33       21.1913   11.8316    9.5884 C.ar      1 RES1    0.0000
     67 H25       21.8478   12.1996    9.0109 H         1 RES1    0.0000
     68 C34       19.9437   12.3715    9.6909 C.ar      1 RES1    0.0000
     69 H26       19.7645   13.1855    9.2337 H         1 RES1    0.0000
     70 C35       18.9487   11.8032   10.4123 C.ar      1 RES1    0.0000
     71 H27       18.0834   12.1910   10.4162 H         1 RES1    0.0000
     72 O8        21.9220    5.9331   12.5787 O.3       1 RES1    0.0000
     73 C36       23.1827    5.6231   11.9101 C.3       1 RES1    0.0000
     74 H28       23.1060    4.7579   11.4371 H         1 RES1    0.0000
     75 H29       23.9073    5.5493   12.5802 H         1 RES1    0.0000
     76 C37       23.4943    6.7043   10.9444 C.ar      1 RES1    0.0000
     77 C38       22.8590    6.7853    9.7421 C.ar      1 RES1    0.0000
     78 H30       22.1592    6.1701    9.5431 H         1 RES1    0.0000
     79 C39       23.2060    7.7570    8.8001 C.ar      1 RES1    0.0000
     80 H31       22.7345    7.7982    7.9762 H         1 RES1    0.0000
     81 C40       24.1768    8.6151    9.0326 C.ar      1 RES1    0.0000
     82 H32       24.4332    9.2459    8.3704 H         1 RES1    0.0000
     83 C41       24.7955    8.5824   10.2388 C.ar      1 RES1    0.0000
     84 H33       25.4538    9.2360   10.4477 H         1 RES1    0.0000
     85 C42       24.4831    7.6022   11.1651 C.ar      1 RES1    0.0000
     86 H34       24.9750    7.5595   11.9771 H         1 RES1    0.0000
     87 C43       14.9252   11.2093   17.2118 C.3       2 RES2    0.0000
     88 H35       15.6176   11.4565   17.8760 H         2 RES2    0.0000
     89 H36       14.8331   10.2234   17.2158 H         2 RES2    0.0000
     90 C44        9.8564   11.0630   17.4011 C.3       2 RES2    0.0000
     91 H37       10.0379   10.0998   17.2631 H         2 RES2    0.0000
     92 H38        9.2717   11.1525   18.1934 H         2 RES2    0.0000
     93 C45       13.5986   11.8501   17.5942 C.ar      2 RES2    0.0000
     94 C46       12.4019   11.1582   17.4523 C.ar      2 RES2    0.0000
     95 C47       11.1674   11.7776   17.6691 C.ar      2 RES2    0.0000
     96 C48       11.1562   13.0875   18.0751 C.ar      2 RES2    0.0000
     97 H39       10.3275   13.5222   18.2308 H         2 RES2    0.0000
     98 C49       12.3480   13.7879   18.2663 C.ar      2 RES2    0.0000
     99 H40       12.3252   14.6900   18.5619 H         2 RES2    0.0000
    100 C50       13.5605   13.1742   18.0219 C.ar      2 RES2    0.0000
    101 H41       14.3710   13.6558   18.1480 H         2 RES2    0.0000
    102 C51        9.1342   11.6057   16.1909 C.ar      2 RES2    0.0000
    103 C52        9.5015   11.1823   14.9020 C.ar      2 RES2    0.0000
    104 O9        10.4731   10.2603   14.8765 O.3       2 RES2    0.0000
    105 H42       10.6830    9.9875   14.1510 H         2 RES2    0.0000
    106 C53       15.3513   11.6696   15.8421 C.ar      2 RES2    0.0000
    107 C54       16.3649   12.5860   15.6785 C.ar      2 RES2    0.0000
    108 H43       16.8224   12.9312   16.4373 H         2 RES2    0.0000
    109 C55       16.7207   13.0051   14.4132 C.ar      2 RES2    0.0000
    110 N3        17.7450   14.1431   14.6654 N.pl3     2 RES2    0.0000
    111 O10       18.2996   14.4656   15.7002 O.2       2 RES2    0.0000
    112 O11       18.1082   14.4670   13.5519 O.2       2 RES2    0.0000
    113 N4        17.8824   13.8120   13.8219 Du        3 SUP3    0.0000
    114 O12       18.3709   14.4045   14.8152 Du        3 SUP3    0.0000
    115 O13       18.3582   13.9101   12.7005 Du        3 SUP3    0.0000
    116 C56        8.1252   12.5675   16.3072 C.ar      2 RES2    0.0000
    117 H44        7.8751   12.9127   17.1567 H         2 RES2    0.0000
    118 O14       12.4541    9.8241   17.0686 O.3       2 RES2    0.0000
    119 C57       12.5811    8.9234   18.2249 C.3       2 RES2    0.0000
    120 H45       11.8200    9.0612   18.8438 H         2 RES2    0.0000
    121 H46       13.4187    9.1195   18.7156 H         2 RES2    0.0000
    122 C58       12.5928    7.5240   17.7479 C.ar      2 RES2    0.0000
    123 C59       13.4139    6.6404   18.4042 C.ar      2 RES2    0.0000
    124 H47       13.9855    6.9401   19.1019 H         2 RES2    0.0000
    125 C60       13.4007    5.3077   18.0337 C.ar      2 RES2    0.0000
    126 H48       13.9946    4.6983   18.4515 H         2 RES2    0.0000
    127 C61       12.5389    4.8588   17.0699 C.ar      2 RES2    0.0000
    128 H49       12.4970    3.9339   16.8571 H         2 RES2    0.0000
    129 C62       11.7400    5.7538   16.4215 C.ar      2 RES2    0.0000
    130 H50       11.1500    5.4555   15.7356 H         2 RES2    0.0000
    131 C63       11.7816    7.0694   16.7526 C.ar      2 RES2    0.0000
    132 H51       11.2343    7.6860   16.2796 H         2 RES2    0.0000
    133 C53F       8.8681   11.6696   13.7214 C.ar      2 RES2    0.0000
    134 C43F       9.2942   11.2093   12.3516 C.3       2 RES2    0.0000
    135 H35F       8.6018   11.4565   11.6874 H         2 RES2    0.0000
    136 H36F       9.3863   10.2234   12.3477 H         2 RES2    0.0000
    137 C45F      10.6208   11.8501   11.9693 C.ar      2 RES2    0.0000
    138 C46F      11.8174   11.1582   12.1112 C.ar      2 RES2    0.0000
    139 C47F      13.0520   11.7776   11.8944 C.ar      2 RES2    0.0000
    140 C44F      14.3630   11.0630   12.1624 C.3       2 RES2    0.0000
    141 H37F      14.1815   10.0998   12.3004 H         2 RES2    0.0000
    142 H38F      14.9477   11.1525   11.3701 H         2 RES2    0.0000
    143 C51F      15.0852   11.6057   13.3725 C.ar      2 RES2    0.0000
    144 C52F      14.7179   11.1823   14.6615 C.ar      2 RES2    0.0000
    145 O9F       13.7463   10.2603   14.6869 O.3       2 RES2    0.0000
    146 H42F      13.5364    9.9875   15.4124 H         2 RES2    0.0000
    147 C56F      16.0942   12.5675   13.2563 C.ar      2 RES2    0.0000
    148 H44F      16.3443   12.9127   12.4068 H         2 RES2    0.0000
    149 C48F      13.0632   13.0875   11.4884 C.ar      2 RES2    0.0000
    150 H39F      13.8919   13.5222   11.3327 H         2 RES2    0.0000
    151 C49F      11.8714   13.7879   11.2972 C.ar      2 RES2    0.0000
    152 H40F      11.8942   14.6900   11.0016 H         2 RES2    0.0000
    153 C50F      10.6589   13.1742   11.5416 C.ar      2 RES2    0.0000
    154 H41F       9.8484   13.6558   11.4154 H         2 RES2    0.0000
    155 O14F      11.7653    9.8241   12.4949 O.3       2 RES2    0.0000
    156 C57F      11.6383    8.9234   11.3386 C.3       2 RES2    0.0000
    157 H45F      12.3994    9.0612   10.7197 H         2 RES2    0.0000
    158 H46F      10.8007    9.1195   10.8478 H         2 RES2    0.0000
    159 C58F      11.6266    7.5240   11.8155 C.ar      2 RES2    0.0000
    160 C59F      10.8055    6.6404   11.1592 C.ar      2 RES2    0.0000
    161 H47F      10.2339    6.9401   10.4615 H         2 RES2    0.0000
    162 C60F      10.8187    5.3077   11.5298 C.ar      2 RES2    0.0000
    163 H48F      10.2248    4.6983   11.1119 H         2 RES2    0.0000
    164 C61F      11.6805    4.8588   12.4935 C.ar      2 RES2    0.0000
    165 H49F      11.7224    3.9339   12.7064 H         2 RES2    0.0000
    166 C62F      12.4794    5.7538   13.1419 C.ar      2 RES2    0.0000
    167 H50F      13.0693    5.4555   13.8278 H         2 RES2    0.0000
    168 C63F      12.4377    7.0694   12.8108 C.ar      2 RES2    0.0000
    169 H51F      12.9851    7.6860   13.2839 H         2 RES2    0.0000
    170 C54F       7.8545   12.5860   13.8850 C.ar      2 RES2    0.0000
    171 H43F       7.3970   12.9312   13.1262 H         2 RES2    0.0000
    172 C55F       7.4987   13.0051   15.1503 C.ar      2 RES2    0.0000
    173 N3F        6.4744   14.1431   14.8980 N.pl3     2 RES2    0.0000
    174 O10F       5.9198   14.4656   13.8633 O.2       2 RES2    0.0000
    175 O11F       6.1112   14.4670   16.0116 O.2       2 RES2    0.0000
@<TRIPOS>BOND
     1    1    2 1
     2    3    1 1
     3    4    5 1
     4    6    4 1
     5    7    8 1
     6    9    7 1
     7   10   11 1
     8   12   10 1
     9   13    1 1
    10   14   13 ar
    11   15    4 1
    12   16   15 ar
    13   17   16 1
    14   18   16 ar
    15   19   18 1
    16   20   13 ar
    17   21   20 1
    18   22    4 1
    19   23   22 ar
    20   24   23 1
    21   25   24 1
    22   26    7 1
    23   27   26 ar
    24   28   27 1
    25   29   27 ar
    26   30   29 1
    27   31   30 2
    28   32   30 2
    29   33   22 ar
    30   34   33 1
    31   35    7 1
    32   36   35 ar
    33   37   10 1
    34   38   37 ar
    35   39   38 1
    36   40   38 ar
    37   41   40 1
    38   42   35 ar
    39   43   42 1
    40   44   10 1
    41   45   44 ar
    42   46   45 1
    43   47   46 1
    44   48    1 1
    45   49   48 ar
    46   50   49 1
    47   51   49 ar
    48   52   51 1
    49   53   52 2
    50   54   52 2
    51   55   44 ar
    52   56   55 1
    53   57   14 1
    54   58   57 1
    55   59   58 1
    56   60   58 1
    57   61   58 1
    58   62   61 ar
    59   63   62 1
    60   64   62 ar
    61   65   64 1
    62   66   64 ar
    63   67   66 1
    64   68   66 ar
    65   69   68 1
    66   70   61 ar
    67   71   70 1
    68   72   36 1
    69   73   72 1
    70   74   73 1
    71   75   73 1
    72   76   73 1
    73   77   76 ar
    74   78   77 1
    75   79   77 ar
    76   80   79 1
    77   81   79 ar
    78   82   81 1
    79   83   81 ar
    80   84   83 1
    81   85   76 ar
    82   86   85 1
    83   87   88 1
    84   89   87 1
    85   90   91 1
    86   92   90 1
    87   93   87 1
    88   94   93 ar
    89   95   90 1
    90   96   95 ar
    91   97   96 1
    92   98   96 ar
    93   99   98 1
    94  100   93 ar
    95  101  100 1
    96  102   90 1
    97  103  102 ar
    98  104  103 1
    99  105  104 1
   100  106   87 1
   101  107  106 ar
   102  108  107 1
   103  109  107 ar
   104  110  109 1
   105  111  110 2
   106  112  110 2
   107  116  102 ar
   108  117  116 1
   109  118   94 1
   110  119  118 1
   111  120  119 1
   112  121  119 1
   113  122  119 1
   114  123  122 ar
   115  124  123 1
   116  125  123 ar
   117  126  125 1
   118  127  125 ar
   119  128  127 1
   120  129  127 ar
   121  130  129 1
   122  131  122 ar
   123  132  131 1
   124  133  103 ar
   125  134  133 1
   126  135  134 1
   127  136  134 1
   128  137  134 1
   129  138  137 ar
   130  139  138 ar
   131  140  139 1
   132  141  140 1
   133  142  140 1
   134  143  140 1
   135  144  106 ar
   136  145  144 1
   137  146  145 1
   138  147  109 ar
   139  148  147 1
   140  149  139 ar
   141  150  149 1
   142  151  149 ar
   143  152  151 1
   144  153  137 ar
   145  154  153 1
   146  155  138 1
   147  156  155 1
   148  157  156 1
   149  158  156 1
   150  159  156 1
   151  160  159 ar
   152  161  160 1
   153  162  160 ar
   154  163  162 1
   155  164  162 ar
   156  165  164 1
   157  166  164 ar
   158  167  166 1
   159  168  159 ar
   160  169  168 1
   161  170  133 ar
   162  171  170 1
   163  172  116 ar
   164  173  172 1
   165  174  173 2
   166  175  173 2
   167   14   15 ar
   168   18   20 ar
   169   23   26 ar
   170   29   33 ar
   171   36   37 ar
   172   40   42 ar
   173   45   48 ar
   174   51   55 ar
   175   68   70 ar
   176   83   85 ar
   177   94   95 ar
   178   98  100 ar
   179  129  131 ar
   180  143  144 ar
   181  143  147 ar
   182  151  153 ar
   183  166  168 ar
   184  170  172 ar
@<TRIPOS>SUBSTRUCTURE
     1 RES1 1
     2 RES2 87
     3 SUP3 113

@<TRIPOS>CRYSIN
  40.1490   14.2070   22.3880  90.0000 118.3170  90.0000  15 1

