# MOL2 file generated by ConQuest
# Please check atom types

@<TRIPOS>MOLECULE
LAGVAT
    27    28     1
SMALL
NO_CHARGES
****
Generated from CSD

@<TRIPOS>ATOM
      1 O1        -0.6620    3.8497    1.7389 O.3       1 RES1    0.0000
      2 O2         1.4068    4.7449    1.2024 O.3       1 RES1    0.0000
      3 O3         3.9703    3.1012    1.2733 O.3       1 RES1    0.0000
      4 O4         4.3252    0.2720    0.8584 O.2       1 RES1    0.0000
      5 O5         4.0879    0.0746    2.9996 O.2       1 RES1    0.0000
      6 O6         1.8902   -1.4231    1.8276 O.2       1 RES1    0.0000
      7 O7         0.4489   -0.9850    3.3901 O.2       1 RES1    0.0000
      8 O8        -1.0835    0.9838    2.4228 O.3       1 RES1    0.0000
      9 N1         3.7323    0.4875    1.9074 N.pl3     1 RES1    0.0000
     10 N2         1.1922   -0.6468    2.4766 N.pl3     1 RES1    0.0000
     11 C1         0.0539    5.0847    1.5603 C.3       1 RES1    0.0000
     12 H1         0.0435    5.6117    2.3981 H         1 RES1    0.0000
     13 H2        -0.3652    5.6240    0.8448 H         1 RES1    0.0000
     14 C2         1.5400    3.4215    1.4967 C.ar      1 RES1    0.0000
     15 C3         2.7062    2.6629    1.5125 C.ar      1 RES1    0.0000
     16 C4         2.5202    1.3192    1.8406 C.ar      1 RES1    0.0000
     17 C5         1.2821    0.7708    2.1542 C.ar      1 RES1    0.0000
     18 C6         0.1112    1.5510    2.1402 C.ar      1 RES1    0.0000
     19 C7         0.3031    2.8839    1.8129 C.ar      1 RES1    0.0000
     20 C8         4.2968    4.4260    1.7397 C.3       1 RES1    0.0000
     21 H3         5.2600    4.5791    1.6427 H         1 RES1    0.0000
     22 H4         4.0449    4.5120    2.6832 H         1 RES1    0.0000
     23 H5         3.8064    5.0888    1.2086 H         1 RES1    0.0000
     24 C9        -2.2015    1.3894    1.5938 C.3       1 RES1    0.0000
     25 H6        -2.9347    0.7479    1.6980 H         1 RES1    0.0000
     26 H7        -1.9200    1.4140    0.6554 H         1 RES1    0.0000
     27 H8        -2.5048    2.2797    1.8682 H         1 RES1    0.0000
@<TRIPOS>BOND
     1    1   11 1
     2    2   11 1
     3    3   15 1
     4    4    9 2
     5    5    9 2
     6    6   10 2
     7    7   10 2
     8    8   18 1
     9    9   16 1
    10   10   17 1
    11   11   12 1
    12   13   11 1
    13   14    2 1
    14   15   14 ar
    15   16   15 ar
    16   17   16 ar
    17   18   17 ar
    18   19    1 1
    19   20    3 1
    20   21   20 1
    21   22   20 1
    22   23   20 1
    23   24    8 1
    24   25   24 1
    25   26   24 1
    26   27   24 1
    27   14   19 ar
    28   18   19 ar
@<TRIPOS>SUBSTRUCTURE
     1 RES1 1

@<TRIPOS>CRYSIN
   9.4486    9.4486   21.2784  90.0000  90.0000 120.0000 169 1

