# MOL2 file generated by ConQuest
# Please check atom types

@<TRIPOS>MOLECULE
LAGZUR
    33    34     1
SMALL
NO_CHARGES
****
Generated from CSD

@<TRIPOS>ATOM
      1 O1         6.8790    1.8450    0.4061 O.2       1 RES1    0.0000
      2 N1         5.3149    3.8556    0.9520 N.am      1 RES1    0.0000
      3 H1         6.1477    4.0035    0.6147 H         1 RES1    0.0000
      4 C1         5.9948    1.5771    1.1972 C.2       1 RES1    0.0000
      5 O2         3.0638    0.9160    4.0031 O.2       1 RES1    0.0000
      6 C2         5.0445    2.6787    1.5930 C.2       1 RES1    0.0000
      7 N2         3.2937    3.4838    3.1165 N.pl3     1 RES1    0.0000
      8 O3         3.2254    4.6955    0.7619 O.2       1 RES1    0.0000
      9 C3         4.1007    2.4126    2.5207 C.2       1 RES1    0.0000
     10 O4         2.0834    3.3488    3.1586 O.2       1 RES1    0.0000
     11 C4         3.8926    1.0896    3.1320 C.2       1 RES1    0.0000
     12 O5         3.9052    4.4337    3.5808 O.2       1 RES1    0.0000
     13 C5         4.7862   -0.0074    2.6827 C.ar      1 RES1    0.0000
     14 C6         4.6265   -1.2870    3.1934 C.ar      1 RES1    0.0000
     15 H2         3.9334   -1.4703    3.7853 H         1 RES1    0.0000
     16 C7         5.4996   -2.2875    2.8175 C.ar      1 RES1    0.0000
     17 H3         5.3902   -3.1444    3.1634 H         1 RES1    0.0000
     18 C8         6.5220   -2.0407    1.9455 C.ar      1 RES1    0.0000
     19 H4         7.1081   -2.7228    1.7082 H         1 RES1    0.0000
     20 C9         6.6792   -0.7839    1.4209 C.ar      1 RES1    0.0000
     21 H5         7.3722   -0.6165    0.8234 H         1 RES1    0.0000
     22 C10        5.8116    0.2443    1.7766 C.ar      1 RES1    0.0000
     23 C11        4.4094    4.8190    0.5332 C.2       1 RES1    0.0000
     24 C12        5.0391    5.9810   -0.2044 C.3       1 RES1    0.0000
     25 H6         5.7671    5.6174   -0.7490 H         1 RES1    0.0000
     26 C13        4.0675    6.6448   -1.1450 C.3       1 RES1    0.0000
     27 H7         3.6962    5.9876   -1.7382 H         1 RES1    0.0000
     28 H8         4.5252    7.3162   -1.6568 H         1 RES1    0.0000
     29 H9         3.3619    7.0540   -0.6390 H         1 RES1    0.0000
     30 C14        5.6483    6.9194    0.7705 C.3       1 RES1    0.0000
     31 H10        6.2500    6.4393    1.3437 H         1 RES1    0.0000
     32 H11        4.9570    7.3251    1.2994 H         1 RES1    0.0000
     33 H12        6.1319    7.6014    0.2988 H         1 RES1    0.0000
@<TRIPOS>BOND
     1    1    4 2
     2    2    3 1
     3    4    6 1
     4    5   11 2
     5    6    2 1
     6    7    9 1
     7    8   23 2
     8    9    6 2
     9   10    7 2
    10   11    9 1
    11   12    7 2
    12   13   11 1
    13   14   13 ar
    14   15   14 1
    15   16   14 ar
    16   17   16 1
    17   18   16 ar
    18   19   18 1
    19   20   18 ar
    20   21   20 1
    21   22    4 1
    22   23    2 1
    23   24   23 1
    24   25   24 1
    25   26   24 1
    26   27   26 1
    27   28   26 1
    28   29   26 1
    29   30   24 1
    30   31   30 1
    31   32   30 1
    32   33   30 1
    33   13   22 ar
    34   20   22 ar
@<TRIPOS>SUBSTRUCTURE
     1 RES1 1

@<TRIPOS>CRYSIN
   5.3178   17.7148   14.4854  90.0000  99.3060  90.0000 231 1

