# MOL2 file generated by ConQuest
# Please check atom types

@<TRIPOS>MOLECULE
LAHCEC
    44    44     2
SMALL
NO_CHARGES
****
Generated from CSD

@<TRIPOS>ATOM
      1 O1         1.4943    6.1807   -0.8302 O.2       1 RES1    0.0000
      2 O2         1.8823    8.2925   -1.0505 O.2       1 RES1    0.0000
      3 O3         7.9282    7.1643    5.3376 O.2       1 RES1    0.0000
      4 O4         7.7983    4.9830    5.8087 O.3       1 RES1    0.0000
      5 O5         1.9010    4.2149    5.0791 O.2       2 RES2    0.0000
      6 O6         2.8781    6.0915    5.4565 O.2       2 RES2    0.0000
      7 O7        -2.5299    9.2629   -0.8840 O.2       2 RES2    0.0000
      8 O8        -3.5808    7.4144   -1.5519 O.3       2 RES2    0.0000
      9 N1         6.0426    6.9552    3.4049 N.3       1 RES1    0.0000
     10 N2         2.1104    7.1934   -0.5118 N.pl3     1 RES1    0.0000
     11 N3        -1.0454    7.8569    0.9317 N.3       2 RES2    0.0000
     12 N4         2.0333    5.4072    4.8536 N.pl3     2 RES2    0.0000
     13 C1         5.0602    7.0020    2.4706 C.ar      1 RES1    0.0000
     14 C2         4.3278    5.8615    2.1219 C.ar      1 RES1    0.0000
     15 C3         3.3629    5.9199    1.1416 C.ar      1 RES1    0.0000
     16 C4         3.1093    7.1189    0.5127 C.ar      1 RES1    0.0000
     17 C5         3.8107    8.2642    0.8588 C.ar      1 RES1    0.0000
     18 C6         4.7743    8.2069    1.8243 C.ar      1 RES1    0.0000
     19 C7         6.3622    5.7759    4.1553 C.3       1 RES1    0.0000
     20 C8         7.4537    6.0881    5.1555 C.2       1 RES1    0.0000
     21 C9        -0.3168    7.2475    1.8981 C.ar      2 RES2    0.0000
     22 C10       -0.4213    5.8729    2.1384 C.ar      2 RES2    0.0000
     23 C11        0.3347    5.2707    3.1160 C.ar      2 RES2    0.0000
     24 C12        1.2139    6.0431    3.8681 C.ar      2 RES2    0.0000
     25 C13        1.3138    7.4065    3.6608 C.ar      2 RES2    0.0000
     26 C14        0.5661    8.0059    2.6944 C.ar      2 RES2    0.0000
     27 C15       -1.9525    7.1406    0.0737 C.3       2 RES2    0.0000
     28 C16       -2.7032    8.0804   -0.8224 C.2       2 RES2    0.0000
     29 H1         4.4930    5.0463    2.5504 H         1 RES1    0.0000
     30 H2         2.9052    5.1857    0.9109 H         1 RES1    0.0000
     31 H3         3.5680    9.0662    0.4251 H         1 RES1    0.0000
     32 H4         5.2347    8.9609    2.0820 H         1 RES1    0.0000
     33 H5         6.4389    7.6656    3.6174 H         1 RES1    0.0000
     34 H6         6.6485    5.0995    3.6261 H         1 RES1    0.0000
     35 H7         5.6186    5.5020    4.6758 H         1 RES1    0.0000
     36 H8         8.4897    5.2247    6.3673 H         1 RES1    0.0000
     37 H9        -1.0430    5.3462    1.6135 H         2 RES2    0.0000
     38 H10        0.2138    4.3788    3.2444 H         2 RES2    0.0000
     39 H11        1.9214    7.8829    4.2420 H         2 RES2    0.0000
     40 H12        0.6883    8.9229    2.5157 H         2 RES2    0.0000
     41 H13       -0.9523    8.6855    0.8068 H         2 RES2    0.0000
     42 H14       -1.4866    6.5549   -0.4598 H         2 RES2    0.0000
     43 H15       -2.5605    6.6870    0.5899 H         2 RES2    0.0000
     44 H16       -4.0642    7.9951   -2.0386 H         2 RES2    0.0000
@<TRIPOS>BOND
     1    1   10 2
     2    2   10 2
     3    3   20 2
     4    4   20 1
     5    5   12 2
     6    6   12 2
     7    7   28 2
     8    8   28 1
     9    9   13 1
    10   10   16 1
    11   11   21 1
    12   12   24 1
    13   13   14 ar
    14   14   15 ar
    15   15   16 ar
    16   16   17 ar
    17   17   18 ar
    18   18   13 ar
    19   19    9 1
    20   20   19 1
    21   21   22 ar
    22   22   23 ar
    23   23   24 ar
    24   24   25 ar
    25   25   26 ar
    26   26   21 ar
    27   27   11 1
    28   28   27 1
    29   29   14 1
    30   30   15 1
    31   31   17 1
    32   32   18 1
    33   33    9 1
    34   34   19 1
    35   35   19 1
    36   36    4 1
    37   37   22 1
    38   38   23 1
    39   39   25 1
    40   40   26 1
    41   41   11 1
    42   42   27 1
    43   43   27 1
    44   44    8 1
@<TRIPOS>SUBSTRUCTURE
     1 RES1 1
     2 RES2 5

@<TRIPOS>CRYSIN
   9.6870   10.0890    9.3280 107.0000 100.6700  97.0700   2 1

