# MOL2 file generated by ConQuest
# Please check atom types

@<TRIPOS>MOLECULE
LAHDAB
    46    52     2
SMALL
NO_CHARGES
****
Generated from CSD

@<TRIPOS>ATOM
      1 O1         4.5873    7.9467    2.9364 O.3       1 RES1    0.0000
      2 O2         5.4543    6.4286   -2.9599 O.3       2 RES2    0.0000
      3 N1         1.0256    7.2178    0.5469 N.2       1 RES1    0.0000
      4 N2         5.6715    3.1811   -0.0651 N.2       2 RES2    0.0000
      5 N3         1.4342    8.0513    1.4620 N.2       1 RES1    0.0000
      6 N4         6.4281    4.0629   -0.5884 N.2       2 RES2    0.0000
      7 N5        -2.1179    6.9802   -1.0272 N.pl3     1 RES1    0.0000
      8 N6         6.4241    0.9221    2.5404 N.pl3     2 RES2    0.0000
      9 N7         3.2744    8.4500    2.8035 N.2       1 RES1    0.0000
     10 N8         6.3644    5.8407   -2.0559 N.2       2 RES2    0.0000
     11 C1        -0.8490    6.5192   -0.7919 C.2       1 RES1    0.0000
     12 C2         5.5870    1.4275    1.5810 C.2       2 RES2    0.0000
     13 C3        -0.2737    7.4252    0.1232 C.2       1 RES1    0.0000
     14 C4         6.2872    2.4241    0.8930 C.2       2 RES2    0.0000
     15 C5        -1.2353    8.4661    0.4430 C.ar      1 RES1    0.0000
     16 C6         7.6240    2.4824    1.4246 C.ar      2 RES2    0.0000
     17 C7        -2.3728    8.1560   -0.3060 C.ar      1 RES1    0.0000
     18 C8         7.6786    1.5241    2.4394 C.ar      2 RES2    0.0000
     19 C9        -3.5343    8.9090   -0.2797 C.ar      1 RES1    0.0000
     20 C10        8.8133    1.2000    3.1759 C.ar      2 RES2    0.0000
     21 C11       -3.5308   10.0063    0.4956 C.ar      1 RES1    0.0000
     22 C12        9.9379    1.8986    2.8173 C.ar      2 RES2    0.0000
     23 C13       -2.4051   10.3486    1.2418 C.ar      1 RES1    0.0000
     24 C14        9.9623    2.8469    1.8025 C.ar      2 RES2    0.0000
     25 C15       -1.2564    9.5855    1.2294 C.ar      1 RES1    0.0000
     26 C16        8.8151    3.1690    1.1283 C.ar      2 RES2    0.0000
     27 C17       -0.3624    5.3394   -1.4647 C.ar      1 RES1    0.0000
     28 C18        4.2480    0.8818    1.4287 C.ar      2 RES2    0.0000
     29 C19        0.6322    4.5824   -0.8902 C.ar      1 RES1    0.0000
     30 C20        3.5571    0.9583    0.2478 C.ar      2 RES2    0.0000
     31 C21        1.1044    3.4388   -1.5118 C.ar      1 RES1    0.0000
     32 C22        2.3101    0.3825    0.0969 C.ar      2 RES2    0.0000
     33 C23        0.5630    3.0502   -2.7038 C.ar      1 RES1    0.0000
     34 C24        1.7329   -0.3040    1.1380 C.ar      2 RES2    0.0000
     35 C25       -0.4247    3.7891   -3.2728 C.ar      1 RES1    0.0000
     36 C26        2.4079   -0.4107    2.3065 C.ar      2 RES2    0.0000
     37 C27       -0.8843    4.9166   -2.6636 C.ar      1 RES1    0.0000
     38 C28        3.6476    0.1933    2.4629 C.ar      2 RES2    0.0000
     39 C29        2.7845    7.7433    1.8053 C.2       1 RES1    0.0000
     40 C30        5.7199    4.8240   -1.5353 C.2       2 RES2    0.0000
     41 C31        3.7191    6.8333    1.2543 C.2       1 RES1    0.0000
     42 C32        4.4244    4.6971   -2.0642 C.2       2 RES2    0.0000
     43 C33        4.8207    6.9964    1.9922 C.2       1 RES1    0.0000
     44 C34        4.3099    5.7038   -2.9128 C.2       2 RES2    0.0000
     45 C35        6.1589    6.3924    2.0490 C.3       1 RES1    0.0000
     46 C36        3.2278    6.1749   -3.8432 C.3       2 RES2    0.0000
@<TRIPOS>BOND
     1    1    9 1
     2    2   10 1
     3    3    5 2
     4    4    6 2
     5    5   39 1
     6    6   40 1
     7    7   11 1
     8    8   12 1
     9    9   39 2
    10   10   40 2
    11   11   13 2
    12   12   14 2
    13   13    3 1
    14   14    4 1
    15   15   13 1
    16   16   14 1
    17   17    7 1
    18   18    8 1
    19   19   17 ar
    20   20   18 ar
    21   21   19 ar
    22   22   20 ar
    23   23   21 ar
    24   24   22 ar
    25   25   15 ar
    26   26   16 ar
    27   27   11 1
    28   28   12 1
    29   29   27 ar
    30   30   28 ar
    31   31   29 ar
    32   32   30 ar
    33   33   31 ar
    34   34   32 ar
    35   35   33 ar
    36   36   34 ar
    37   37   27 ar
    38   38   28 ar
    39   39   41 1
    40   40   42 1
    41   41   43 2
    42   42   44 2
    43   43    1 1
    44   44    2 1
    45   45   43 1
    46   46   44 1
    47   15   17 ar
    48   16   18 ar
    49   23   25 ar
    50   24   26 ar
    51   35   37 ar
    52   36   38 ar
@<TRIPOS>SUBSTRUCTURE
     1 RES1 1
     2 RES2 2

@<TRIPOS>CRYSIN
  10.9663   20.1334   13.9607  90.0000  97.4030  90.0000  14 1

