# MOL2 file generated by ConQuest
# Please check atom types

@<TRIPOS>MOLECULE
LAHFUX
    38    42     2
SMALL
NO_CHARGES
****
Generated from CSD

@<TRIPOS>ATOM
      1 C1         7.4285    1.6094    5.5321 C.2       1 RES1    0.0000
      2 C2         8.7382    1.7699    6.3119 C.3       1 RES1    0.0000
      3 C3         9.0118    0.4553    7.0145 C.3       1 RES1    0.0000
      4 C4         7.8192   -0.1054    7.7152 C.2       1 RES1    0.0000
      5 C5         6.5591    0.2764    7.4411 C.2       1 RES1    0.0000
      6 C6         5.2918   -0.1597    8.0897 C.3       1 RES1    0.0000
      7 C7         4.3426   -0.8866    7.0937 C.3       1 RES1    0.0000
      8 C8         3.8667    0.1286    6.0899 C.3       1 RES1    0.0000
      9 C9         5.1397    0.6949    5.3410 C.3       1 RES1    0.0000
     10 C10        6.2155    1.3035    6.2868 C.3       1 RES1    0.0000
     11 C11        3.3709   -1.5503    8.0202 C.3       1 RES1    0.0000
     12 C12        4.2486   -1.8410    9.2536 C.2       1 RES1    0.0000
     13 C13        2.6612   -2.5431    7.4681 C.3       1 RES1    0.0000
     14 C14        5.7043    2.6381    6.9200 C.3       1 RES1    0.0000
     15 C15        8.1932   -1.1198    8.7826 C.3       1 RES1    0.0000
     16 O1         5.3910   -1.1014    9.1610 O.3       1 RES1    0.0000
     17 O2         4.0393   -2.5822   10.1589 O.2       1 RES1    0.0000
     18 O3         8.5208    2.0782    3.5825 O.3       1 RES1    0.0000
     19 N1         7.3544    1.7220    4.2137 N.2       1 RES1    0.0000
     20 C16        6.4864    1.9089   -0.0058 C.2       2 RES2    0.0000
     21 C17        5.2037    1.3666   -0.5810 C.3       2 RES2    0.0000
     22 C18        5.5247    0.1565   -1.4033 C.3       2 RES2    0.0000
     23 C19        6.6341    0.4880   -2.4862 C.2       2 RES2    0.0000
     24 C20        7.4537    1.5487   -2.3086 C.2       2 RES2    0.0000
     25 C21        8.5127    2.0039   -3.2081 C.3       2 RES2    0.0000
     26 C22        9.8997    1.8091   -2.6078 C.3       2 RES2    0.0000
     27 C23       10.0337    2.7276   -1.4091 C.3       2 RES2    0.0000
     28 C24        8.9275    2.4097   -0.4150 C.3       2 RES2    0.0000
     29 C25        7.4763    2.4209   -1.0172 C.3       2 RES2    0.0000
     30 C26       10.7983    1.9456   -3.7910 C.3       2 RES2    0.0000
     31 C27        9.9230    1.3594   -4.8681 C.2       2 RES2    0.0000
     32 C28       12.1546    1.3330   -3.7196 C.3       2 RES2    0.0000
     33 C29        7.0419    3.8897   -1.3435 C.3       2 RES2    0.0000
     34 C30        6.5757   -0.4728   -3.5864 C.3       2 RES2    0.0000
     35 O4         8.6428    1.3602   -4.5322 O.3       2 RES2    0.0000
     36 O5        10.2633    0.9353   -5.9954 O.2       2 RES2    0.0000
     37 O6         5.7603    1.3889    2.0383 O.3       2 RES2    0.0000
     38 N2         6.7894    1.8953    1.2161 N.2       2 RES2    0.0000
@<TRIPOS>BOND
     1    1    2 1
     2    2    3 1
     3    3    4 1
     4    4    5 2
     5    5    6 1
     6    6    7 1
     7    7    8 1
     8    8    9 1
     9    9   10 1
    10   10    1 1
    11   11    7 1
    12   12   11 1
    13   13   11 1
    14   14   10 1
    15   15    4 1
    16   16    6 1
    17   17   12 2
    18   18   19 1
    19   19    1 2
    20   20   21 1
    21   21   22 1
    22   22   23 1
    23   23   24 2
    24   24   25 1
    25   25   26 1
    26   26   27 1
    27   27   28 1
    28   28   29 1
    29   29   20 1
    30   30   26 1
    31   31   30 1
    32   32   30 1
    33   33   29 1
    34   34   23 1
    35   35   25 1
    36   36   31 2
    37   37   38 1
    38   38   20 2
    39    5   10 1
    40   12   16 1
    41   24   29 1
    42   31   35 1
@<TRIPOS>SUBSTRUCTURE
     1 RES1 1
     2 RES2 20

@<TRIPOS>CRYSIN
   9.2060    7.9870   19.4870  90.0000  97.8900  90.0000   4 1

