# MOL2 file generated by ConQuest
# Please check atom types

@<TRIPOS>MOLECULE
LAHLIS
    77    80     1
SMALL
NO_CHARGES
****
Generated from CSD

@<TRIPOS>ATOM
      1 C1         3.9797   18.3470   31.7074 C.ar      1 RES1    0.0000
      2 H1         4.3330   18.4132   32.5857 H         1 RES1    0.0000
      3 C2        -4.1340   13.9547   32.7773 C.3       1 RES1    0.0000
      4 H2        -4.6762   14.6338   32.3038 H         1 RES1    0.0000
      5 H3        -4.5333   13.0674   32.5907 H         1 RES1    0.0000
      6 C3         1.1054   11.0535   22.3848 C.ar      1 RES1    0.0000
      7 H4         1.3606   11.0632   21.4701 H         1 RES1    0.0000
      8 O1         0.0054   12.1531   27.1045 O.3       1 RES1    0.0000
      9 C4         0.5478    9.9306   22.9717 C.ar      1 RES1    0.0000
     10 C5         0.1713    9.8937   24.2968 C.ar      1 RES1    0.0000
     11 H5        -0.2144    9.1099   24.6688 H         1 RES1    0.0000
     12 C6         0.3680   11.0308   25.0810 C.ar      1 RES1    0.0000
     13 C7         0.9237   12.1712   24.5311 C.ar      1 RES1    0.0000
     14 H6         1.0622   12.9469   25.0605 H         1 RES1    0.0000
     15 C8         1.2722   12.1558   23.1910 C.ar      1 RES1    0.0000
     16 C9        -0.1299   10.9819   26.4910 C.2       1 RES1    0.0000
     17 C10       -0.5442   12.2897   28.4521 C.3       1 RES1    0.0000
     18 H7        -1.1245   11.5061   28.6709 H         1 RES1    0.0000
     19 C11       -1.3528   13.5793   28.5140 C.3       1 RES1    0.0000
     20 H8        -0.8228   14.2707   28.0222 H         1 RES1    0.0000
     21 C12       -4.6400   15.7264   36.1043 C.ar      1 RES1    0.0000
     22 H9        -4.8537   16.5990   36.4156 H         1 RES1    0.0000
     23 C13       -2.7103   13.5240   27.8453 C.2       1 RES1    0.0000
     24 C14       -1.3257   13.9959   30.0407 C.3       1 RES1    0.0000
     25 C15       -0.2775   13.0167   30.6625 C.3       1 RES1    0.0000
     26 H10        0.3143   13.4985   31.2933 H         1 RES1    0.0000
     27 H11       -0.7341   12.2868   31.1535 H         1 RES1    0.0000
     28 C16        0.5300   12.4523   29.4993 C.3       1 RES1    0.0000
     29 H12        1.2328   13.0844   29.2049 H         1 RES1    0.0000
     30 H13        0.9452   11.5842   29.7313 H         1 RES1    0.0000
     31 C17       -0.9179   15.4790   30.1707 C.3       1 RES1    0.0000
     32 H14       -1.4897   16.0000   29.5542 H         1 RES1    0.0000
     33 H15       -1.1423   15.7709   31.0887 H         1 RES1    0.0000
     34 C18        0.5220   15.8729   29.9047 C.3       1 RES1    0.0000
     35 H16        0.7713   15.6113   28.9828 H         1 RES1    0.0000
     36 H17        1.1178   15.3924   30.5323 H         1 RES1    0.0000
     37 C19        0.7087   17.3787   30.0762 C.3       1 RES1    0.0000
     38 H18        0.3179   17.8362   29.2897 H         1 RES1    0.0000
     39 H19        0.2000   17.6699   30.8741 H         1 RES1    0.0000
     40 C20       -3.9683   13.2193   35.1921 C.ar      1 RES1    0.0000
     41 H20       -3.7076   12.3564   34.8912 H         1 RES1    0.0000
     42 C21        2.1345   17.8253   30.2294 C.ar      1 RES1    0.0000
     43 C22        2.9376   18.1149   29.1612 C.ar      1 RES1    0.0000
     44 H21        2.5929   18.0365   28.2792 H         1 RES1    0.0000
     45 C23        4.2824   18.5330   29.3571 C.ar      1 RES1    0.0000
     46 H22        4.8442   18.7340   28.6160 H         1 RES1    0.0000
     47 C24        4.7421   18.6372   30.6321 C.ar      1 RES1    0.0000
     48 H23        5.6358   18.9240   30.7743 H         1 RES1    0.0000
     49 C25        2.6743   17.9494   31.4978 C.ar      1 RES1    0.0000
     50 H24        2.1274   17.7547   32.2514 H         1 RES1    0.0000
     51 C26       -2.6941   13.8016   30.7099 C.3       1 RES1    0.0000
     52 H25       -3.3316   14.4438   30.3077 H         1 RES1    0.0000
     53 H26       -3.0179   12.8909   30.4973 H         1 RES1    0.0000
     54 C27       -2.7218   13.9817   32.2229 C.3       1 RES1    0.0000
     55 H27       -2.1925   13.2592   32.6456 H         1 RES1    0.0000
     56 H28       -2.2979   14.8460   32.4560 H         1 RES1    0.0000
     57 C28       -4.1000   13.4530   36.5506 C.ar      1 RES1    0.0000
     58 H29       -3.9534   12.7484   37.1692 H         1 RES1    0.0000
     59 C29       -4.2107   14.2206   34.2634 C.ar      1 RES1    0.0000
     60 C30       -4.5301   15.4868   34.7412 C.ar      1 RES1    0.0000
     61 H30       -4.6742   16.1968   34.1277 H         1 RES1    0.0000
     62 C31       -4.4436   14.7117   37.0055 C.ar      1 RES1    0.0000
     63 H31       -4.5432   14.8731   37.9351 H         1 RES1    0.0000
     64 C32       -3.3936   12.4056   27.6567 C.2       1 RES1    0.0000
     65 H32       -4.2488   12.4344   27.2437 H         1 RES1    0.0000
     66 H33       -3.0280   11.5740   27.9349 H         1 RES1    0.0000
     67 C33       -3.2777   14.8375   27.4114 C.3       1 RES1    0.0000
     68 H34       -4.1179   14.6881   26.9294 H         1 RES1    0.0000
     69 H35       -2.6395   15.2906   26.8196 H         1 RES1    0.0000
     70 H36       -3.4471   15.3958   28.1994 H         1 RES1    0.0000
     71 N1         1.8209   13.3780   22.5829 N.pl3     1 RES1    0.0000
     72 N2         0.3219    8.7350   22.1428 N.pl3     1 RES1    0.0000
     73 O2        -0.6209    9.9939   26.9855 O.2       1 RES1    0.0000
     74 O3         2.1057   14.3063   23.3217 O.2       1 RES1    0.0000
     75 O4         1.9708   13.3984   21.3701 O.2       1 RES1    0.0000
     76 O5        -0.3257    7.8153   22.6308 O.2       1 RES1    0.0000
     77 O6         0.7939    8.7248   21.0093 O.2       1 RES1    0.0000
@<TRIPOS>BOND
     1    1    2 1
     2    3    4 1
     3    5    3 1
     4    6    7 1
     5    8   16 1
     6    9    6 ar
     7   10    9 ar
     8   11   10 1
     9   12   10 ar
    10   13   12 ar
    11   14   13 1
    12   15    6 ar
    13   16   12 1
    14   17    8 1
    15   18   17 1
    16   19   17 1
    17   20   19 1
    18   21   22 1
    19   23   19 1
    20   24   19 1
    21   25   24 1
    22   26   25 1
    23   27   25 1
    24   28   17 1
    25   29   28 1
    26   30   28 1
    27   31   24 1
    28   32   31 1
    29   33   31 1
    30   34   31 1
    31   35   34 1
    32   36   34 1
    33   37   34 1
    34   38   37 1
    35   39   37 1
    36   40   41 1
    37   42   37 1
    38   43   42 ar
    39   44   43 1
    40   45   43 ar
    41   46   45 1
    42   47    1 ar
    43   48   47 1
    44   49    1 ar
    45   50   49 1
    46   51   24 1
    47   52   51 1
    48   53   51 1
    49   54    3 1
    50   55   54 1
    51   56   54 1
    52   57   40 ar
    53   58   57 1
    54   59    3 1
    55   60   21 ar
    56   61   60 1
    57   62   21 ar
    58   63   62 1
    59   64   23 2
    60   65   64 1
    61   66   64 1
    62   67   23 1
    63   68   67 1
    64   69   67 1
    65   70   67 1
    66   71   15 1
    67   72    9 1
    68   73   16 2
    69   74   71 2
    70   75   71 2
    71   76   72 2
    72   77   72 2
    73   13   15 ar
    74   25   28 1
    75   40   59 ar
    76   42   49 ar
    77   45   47 ar
    78   51   54 1
    79   57   62 ar
    80   59   60 ar
@<TRIPOS>SUBSTRUCTURE
     1 RES1 1

@<TRIPOS>CRYSIN
   7.4172   16.9707   25.1000  90.0000  96.2510  90.0000  14 1

