# MOL2 file generated by ConQuest
# Please check atom types

@<TRIPOS>MOLECULE
LAHTIZ
    53   112     1
SMALL
NO_CHARGES
****
Generated from CSD

@<TRIPOS>ATOM
      1 O1         2.4843    3.1680    7.8390 O.3       1 RES1    0.0000
      2 N1         2.1610    2.0862    6.9740 N.2       1 RES1    0.0000
      3 N2         0.4908    2.6130    8.2066 N.2       1 RES1    0.0000
      4 C1         0.9155    1.8051    7.2333 C.3       1 RES1    0.0000
      5 C2         0.1886    0.7264    6.5883 C.3       1 RES1    0.0000
      6 C3         0.8280   -0.0784    5.6166 C.3       1 RES1    0.0000
      7 H1         1.7302    0.0753    5.3622 H         1 RES1    0.0000
      8 C4         0.0822   -1.1131    5.0503 C.3       1 RES1    0.0000
      9 H2         0.5001   -1.6917    4.4234 H         1 RES1    0.0000
     10 C5        -1.2517   -1.3222    5.3737 C.3       1 RES1    0.0000
     11 H3        -1.7425   -2.0198    4.9568 H         1 RES1    0.0000
     12 C6        -1.8423   -0.5142    6.2978 C.3       1 RES1    0.0000
     13 H4        -2.7541   -0.6580    6.5226 H         1 RES1    0.0000
     14 C7        -1.1539    0.5033    6.9100 C.3       1 RES1    0.0000
     15 H5        -1.5880    1.0536    7.5517 H         1 RES1    0.0000
     16 C8         1.3587    3.4011    8.5496 C.3       1 RES1    0.0000
     17 C9        -0.3689    0.7734    6.8624 C.3       1 RES1    0.0000
     18 C10        0.8381    0.5278    6.1467 C.3       1 RES1    0.0000
     19 C11        0.8058   -0.5121    5.2128 C.3       1 RES1    0.0000
     20 H6         1.5859   -0.6898    4.7007 H         1 RES1    0.0000
     21 C12       -0.3158   -1.2908    5.0044 C.3       1 RES1    0.0000
     22 H7        -0.3062   -1.9822    4.3544 H         1 RES1    0.0000
     23 C13       -1.4368   -1.0557    5.7463 C.3       1 RES1    0.0000
     24 H8        -2.1952   -1.6190    5.6379 H         1 RES1    0.0000
     25 C14       -1.4937   -0.0141    6.6441 C.3       1 RES1    0.0000
     26 H9        -2.2993    0.1667    7.1135 H         1 RES1    0.0000
     27 O2         1.9510    1.3117    6.3404 O.3       1 RES1    0.0000
     28 O1B       -1.5026    2.0580    8.5743 O.3       1 RES1    0.0000
     29 N1B       -1.1793    3.1398    9.4392 N.2       1 RES1    0.0000
     30 C1B        0.0661    3.4209    9.1799 C.3       1 RES1    0.0000
     31 C2B        0.7931    4.4996    9.8249 C.3       1 RES1    0.0000
     32 C3B        0.1536    5.3044   10.7966 C.3       1 RES1    0.0000
     33 H1B       -0.7485    5.1507   11.0510 H         1 RES1    0.0000
     34 C4B        0.8995    6.3391   11.3629 C.3       1 RES1    0.0000
     35 H2B        0.4815    6.9177   11.9899 H         1 RES1    0.0000
     36 C5B        2.2333    6.5482   11.0395 C.3       1 RES1    0.0000
     37 H3B        2.7242    7.2458   11.4564 H         1 RES1    0.0000
     38 C6B        2.8239    5.7402   10.1155 C.3       1 RES1    0.0000
     39 H4B        3.7357    5.8840    9.8906 H         1 RES1    0.0000
     40 C7B        2.1356    4.7227    9.5033 C.3       1 RES1    0.0000
     41 H5B        2.5696    4.1724    8.8615 H         1 RES1    0.0000
     42 C8B       -0.3771    1.8249    7.8636 C.3       1 RES1    0.0000
     43 C9B        1.3506    4.4526    9.5508 C.3       1 RES1    0.0000
     44 C10B       0.1435    4.6982   10.2665 C.3       1 RES1    0.0000
     45 C11B       0.1758    5.7381   11.2004 C.3       1 RES1    0.0000
     46 H6B       -0.6043    5.9158   11.7125 H         1 RES1    0.0000
     47 C12B       1.2974    6.5168   11.4088 C.3       1 RES1    0.0000
     48 H7B        1.2879    7.2082   12.0588 H         1 RES1    0.0000
     49 C13B       2.4185    6.2817   10.6669 C.3       1 RES1    0.0000
     50 H8B        3.1768    6.8450   10.7753 H         1 RES1    0.0000
     51 C14B       2.4754    5.2401    9.7691 C.3       1 RES1    0.0000
     52 H9B        3.2810    5.0593    9.2997 H         1 RES1    0.0000
     53 O2B       -0.9693    3.9143   10.0728 O.3       1 RES1    0.0000
@<TRIPOS>BOND
     1    1    2 1
     2    2    4 1
     3    3    4 1
     4    4    5 1
     5    5    6 1
     6    6    7 1
     7    7   18 1
     8    8    6 1
     9    9    8 1
    10   10    8 1
    11   11   10 1
    12   12   10 1
    13   13   12 1
    14   14    5 1
    15   15   14 1
    16   16    1 1
    17   17    4 1
    18   18    4 1
    19   19    6 1
    20   20   19 1
    21   21    8 1
    22   22    8 1
    23   23    8 1
    24   24   10 1
    25   25   12 1
    26   26   12 1
    27   27    2 1
    28   28   29 1
    29   29   30 1
    30   30    3 1
    31   31   30 1
    32   32   31 1
    33   33   32 1
    34   34   32 1
    35   35   34 1
    36   36   34 1
    37   37   36 1
    38   38   36 1
    39   39   38 1
    40   40   31 1
    41   41   40 1
    42   42    3 1
    43   43   16 1
    44   44   30 1
    45   45   32 1
    46   46   45 1
    47   47   34 1
    48   48   34 1
    49   49   34 1
    50   50   36 1
    51   51   38 1
    52   52   38 1
    53   53   29 1
    54    3   16 1
    55    4   27 1
    56    4   42 1
    57    5   17 1
    58    5   18 1
    59    6   18 1
    60    7   19 1
    61    8   19 1
    62    9   21 1
    63    9   22 1
    64   10   21 1
    65   10   23 1
    66   11   23 1
    67   12   14 1
    68   12   23 1
    69   14   17 1
    70   14   25 1
    71   14   26 1
    72   16   30 1
    73   17   18 1
    74   17   25 1
    75   17   42 1
    76   18   19 1
    77   18   27 1
    78   19   21 1
    79   21   22 1
    80   21   23 1
    81   23   24 1
    82   23   25 1
    83   25   26 1
    84   28   42 1
    85   30   43 1
    86   30   53 1
    87   31   43 1
    88   31   44 1
    89   32   44 1
    90   33   44 1
    91   33   45 1
    92   34   45 1
    93   35   47 1
    94   35   48 1
    95   36   47 1
    96   36   49 1
    97   37   49 1
    98   38   40 1
    99   38   49 1
   100   40   43 1
   101   40   51 1
   102   40   52 1
   103   43   44 1
   104   43   51 1
   105   44   45 1
   106   44   53 1
   107   45   47 1
   108   47   48 1
   109   47   49 1
   110   49   50 1
   111   49   51 1
   112   51   52 1
@<TRIPOS>SUBSTRUCTURE
     1 RES1 1

@<TRIPOS>CRYSIN
   6.5436    5.2260   17.3300  90.0000 108.7200  90.0000  14 1

