# MOL2 file generated by ConQuest
# Please check atom types

@<TRIPOS>MOLECULE
LAHZEZ
   117   123     3
SMALL
NO_CHARGES
****
Generated from CSD

@<TRIPOS>ATOM
      1 O1         5.0102    3.1731    4.8788 O.3       1 RES1    0.0000
      2 N1         4.7030    1.8551    5.3371 N.2       1 RES1    0.0000
      3 C1         5.3834    1.0134    4.6611 C.2       1 RES1    0.0000
      4 C2         6.2845    1.6583    3.6306 C.3       1 RES1    0.0000
      5 N2         7.6471    1.7772    4.1900 N.2       1 RES1    0.0000
      6 C3         7.9682    3.0272    4.2233 C.2       1 RES1    0.0000
      7 C4         6.9173    3.9853    3.7202 C.3       1 RES1    0.0000
      8 C5         5.7113    3.0802    3.6152 C.3       1 RES1    0.0000
      9 O2         4.8312    3.2703    2.5706 O.3       1 RES1    0.0000
     10 C6         5.2760   -0.4329    4.9351 C.3       1 RES1    0.0000
     11 C7         6.2993    0.9355    2.2736 C.3       1 RES1    0.0000
     12 C8         7.0318    1.6224    1.1496 C.ar      1 RES1    0.0000
     13 C9         6.3679    1.9169   -0.0371 C.ar      1 RES1    0.0000
     14 C10        7.0081    2.5239   -1.0920 C.ar      1 RES1    0.0000
     15 C11        8.3320    2.8713   -1.0049 C.ar      1 RES1    0.0000
     16 C12        9.0239    2.5839    0.1562 C.ar      1 RES1    0.0000
     17 C13        8.3818    1.9606    1.2149 C.ar      1 RES1    0.0000
     18 N3         9.1705    3.4705    4.6496 N.3       1 RES1    0.0000
     19 C14       10.1673    2.4976    5.0529 C.3       1 RES1    0.0000
     20 C15        9.5455    4.8660    4.6701 C.3       1 RES1    0.0000
     21 O3         0.6321    6.7157    1.8601 O.3       2 RES2    0.0000
     22 N4         0.4099    5.5190    2.6065 N.2       2 RES2    0.0000
     23 C16        1.4637    5.2502    3.2773 C.2       2 RES2    0.0000
     24 C17        2.5758    6.2558    3.0878 C.3       2 RES2    0.0000
     25 N5         3.5435    5.7344    2.0969 N.2       2 RES2    0.0000
     26 C18        3.5706    6.5458    1.0830 C.2       2 RES2    0.0000
     27 C19        2.6840    7.7554    1.1906 C.3       2 RES2    0.0000
     28 C20        1.8147    7.3795    2.3683 C.3       2 RES2    0.0000
     29 O4         1.4476    8.3981    3.2286 O.3       2 RES2    0.0000
     30 C21        1.5479    4.0276    4.1030 C.3       2 RES2    0.0000
     31 C22        3.2589    6.6167    4.4115 C.3       2 RES2    0.0000
     32 C23        4.2908    7.7065    4.3449 C.ar      2 RES2    0.0000
     33 C24        4.0372    8.9617    4.8660 C.ar      2 RES2    0.0000
     34 C25        4.9890    9.9567    4.8698 C.ar      2 RES2    0.0000
     35 C26        6.2368    9.7215    4.3526 C.ar      2 RES2    0.0000
     36 C27        6.5121    8.4885    3.8188 C.ar      2 RES2    0.0000
     37 C28        5.5580    7.4930    3.8009 C.ar      2 RES2    0.0000
     38 N6         4.3345    6.3511   -0.0064 N.3       2 RES2    0.0000
     39 C29        5.1114    5.1307   -0.1459 C.3       2 RES2    0.0000
     40 C30        4.4070    7.2883   -1.1022 C.3       2 RES2    0.0000
     41 O5         7.8316   -2.1696    3.4680 O.3       3 RES3    0.0000
     42 N7         7.7591   -3.4489    4.0953 N.2       3 RES3    0.0000
     43 C31        8.9406   -3.8254    4.4089 C.2       3 RES3    0.0000
     44 C32        9.9978   -2.8366    3.9942 C.3       3 RES3    0.0000
     45 N8        10.4952   -3.2521    2.6628 N.2       3 RES3    0.0000
     46 C33       10.2618   -2.3032    1.8255 C.2       3 RES3    0.0000
     47 C34        9.6456   -1.0614    2.4029 C.3       3 RES3    0.0000
     48 C35        9.1374   -1.5959    3.7125 C.3       3 RES3    0.0000
     49 O6         9.0712   -0.7146    4.7776 O.3       3 RES3    0.0000
     50 C36        9.1664   -5.1320    5.0631 C.3       3 RES3    0.0000
     51 C37       11.1342   -2.6707    5.0094 C.3       3 RES3    0.0000
     52 C38       12.1661   -1.6376    4.6535 C.ar      3 RES3    0.0000
     53 C39       12.2617   -0.4483    5.3614 C.ar      3 RES3    0.0000
     54 C40       13.2125    0.4963    5.0708 C.ar      3 RES3    0.0000
     55 C41       14.1013    0.2832    4.0326 C.ar      3 RES3    0.0000
     56 C42       14.0339   -0.8881    3.3246 C.ar      3 RES3    0.0000
     57 C43       13.0911   -1.8400    3.6306 C.ar      3 RES3    0.0000
     58 N9        10.5522   -2.3868    0.5121 N.3       3 RES3    0.0000
     59 C44       11.1295   -3.6147   -0.0064 C.3       3 RES3    0.0000
     60 C45       10.3916   -1.3048   -0.4161 C.3       3 RES3    0.0000
     61 H1         7.1904    4.4042    2.8292 H         1 RES1    0.0000
     62 H2         6.7859    4.7228    4.3270 H         1 RES1    0.0000
     63 H3         4.5290    4.1404    2.5348 H         1 RES1    0.0000
     64 H4         4.6807   -0.5970    5.7608 H         1 RES1    0.0000
     65 H5         6.1508   -0.8391    5.1591 H         1 RES1    0.0000
     66 H6         4.9509   -0.8929    4.1862 H         1 RES1    0.0000
     67 H7         5.3836    0.7552    2.0355 H         1 RES1    0.0000
     68 H8         6.6460    0.0428    2.4451 H         1 RES1    0.0000
     69 H9         5.4343    1.6492   -0.0640 H         1 RES1    0.0000
     70 H10        6.4900    2.7546   -1.8947 H         1 RES1    0.0000
     71 H11        8.7894    3.3494   -1.7667 H         1 RES1    0.0000
     72 H12       10.0020    2.8106    0.2560 H         1 RES1    0.0000
     73 H13        8.8522    1.7557    2.0099 H         1 RES1    0.0000
     74 H14       10.8669    2.9216    5.4664 H         1 RES1    0.0000
     75 H15       10.4816    1.9801    4.2630 H         1 RES1    0.0000
     76 H16        9.7829    1.7479    5.6712 H         1 RES1    0.0000
     77 H17        2.2292    7.9216    0.4481 H         2 RES2    0.0000
     78 H18        3.2812    8.7047    1.3442 H         2 RES2    0.0000
     79 H19        0.9818    9.0762    2.8036 H         2 RES2    0.0000
     80 H20        0.7704    3.4070    3.9046 H         2 RES2    0.0000
     81 H21        1.5763    4.2356    5.0055 H         2 RES2    0.0000
     82 H22        2.3743    3.5312    3.9686 H         2 RES2    0.0000
     83 H23        3.6250    5.7754    4.7495 H         2 RES2    0.0000
     84 H24        2.5338    6.9176    5.0567 H         2 RES2    0.0000
     85 H25        3.1817    9.0913    5.2487 H         2 RES2    0.0000
     86 H26        4.7782   10.8400    5.2231 H         2 RES2    0.0000
     87 H27        6.9043   10.4533    4.3142 H         2 RES2    0.0000
     88 H28        7.3778    8.3347    3.4053 H         2 RES2    0.0000
     89 H29        5.6982    6.6137    3.4309 H         2 RES2    0.0000
     90 H30        5.3191    4.9894   -0.9729 H         2 RES2    0.0000
     91 H31        4.7325    4.3124    0.2688 H         2 RES2    0.0000
     92 H32        5.7945    5.2476    0.4481 H         2 RES2    0.0000
     93 H33        8.9875   -0.6902    1.8947 H         3 RES3    0.0000
     94 H34       10.3578   -0.2625    2.5092 H         3 RES3    0.0000
     95 H35        8.6701    0.0885    4.5062 H         3 RES3    0.0000
     96 H36        8.2890   -5.6215    5.1207 H         3 RES3    0.0000
     97 H37        9.5381   -5.0894    5.8504 H         3 RES3    0.0000
     98 H38        9.6937   -5.6949    4.5574 H         3 RES3    0.0000
     99 H39       11.5406   -3.5542    5.0951 H         3 RES3    0.0000
    100 H40       10.7565   -2.4297    5.9144 H         3 RES3    0.0000
    101 H41       11.6484   -0.3445    6.0937 H         3 RES3    0.0000
    102 H42       13.2958    1.3496    5.5816 H         3 RES3    0.0000
    103 H43       14.7252    0.9720    3.8149 H         3 RES3    0.0000
    104 H44       14.6120   -1.0556    2.5988 H         3 RES3    0.0000
    105 H45       13.0556   -2.6562    3.2005 H         3 RES3    0.0000
    106 H46       12.0996   -3.5735    0.2304 H         3 RES3    0.0000
    107 H47       10.7144   -4.3844    0.4737 H         3 RES3    0.0000
    108 H48       11.1282   -3.5629   -0.8193 H         3 RES3    0.0000
    109 H49        8.8080    5.3926    4.3694 H         1 RES1    0.0000
    110 H50       10.2848    5.0015    4.0999 H         1 RES1    0.0000
    111 H51        9.7662    5.1155    5.5575 H         1 RES1    0.0000
    112 H52        4.7434    8.1029   -0.8107 H         2 RES2    0.0000
    113 H53        3.5254    7.4004   -1.4663 H         2 RES2    0.0000
    114 H54        4.9644    6.9179   -1.7873 H         2 RES2    0.0000
    115 H55       10.6814   -1.5989   -1.2829 H         3 RES3    0.0000
    116 H56       10.8820   -0.5656   -0.1431 H         3 RES3    0.0000
    117 H57        9.4611   -1.0741   -0.4752 H         3 RES3    0.0000
@<TRIPOS>BOND
     1    1    2 1
     2    2    3 2
     3    3    4 1
     4    4    5 1
     5    5    6 2
     6    6    7 1
     7    7    8 1
     8    8    1 1
     9    9    8 1
    10   10    3 1
    11   11    4 1
    12   12   11 1
    13   13   12 ar
    14   14   13 ar
    15   15   14 ar
    16   16   15 ar
    17   17   12 ar
    18   18    6 1
    19   19   18 1
    20   20   18 1
    21   21   22 1
    22   22   23 2
    23   23   24 1
    24   24   25 1
    25   25   26 2
    26   26   27 1
    27   27   28 1
    28   28   21 1
    29   29   28 1
    30   30   23 1
    31   31   24 1
    32   32   31 1
    33   33   32 ar
    34   34   33 ar
    35   35   34 ar
    36   36   35 ar
    37   37   32 ar
    38   38   26 1
    39   39   38 1
    40   40   38 1
    41   41   42 1
    42   42   43 2
    43   43   44 1
    44   44   45 1
    45   45   46 2
    46   46   47 1
    47   47   48 1
    48   48   41 1
    49   49   48 1
    50   50   43 1
    51   51   44 1
    52   52   51 1
    53   53   52 ar
    54   54   53 ar
    55   55   54 ar
    56   56   55 ar
    57   57   52 ar
    58   58   46 1
    59   59   58 1
    60   60   58 1
    61   61    7 1
    62   62    7 1
    63   63    9 1
    64   64   10 1
    65   65   10 1
    66   66   10 1
    67   67   11 1
    68   68   11 1
    69   69   13 1
    70   70   14 1
    71   71   15 1
    72   72   16 1
    73   73   17 1
    74   74   19 1
    75   75   19 1
    76   76   19 1
    77   77   27 1
    78   78   27 1
    79   79   29 1
    80   80   30 1
    81   81   30 1
    82   82   30 1
    83   83   31 1
    84   84   31 1
    85   85   33 1
    86   86   34 1
    87   87   35 1
    88   88   36 1
    89   89   37 1
    90   90   39 1
    91   91   39 1
    92   92   39 1
    93   93   47 1
    94   94   47 1
    95   95   49 1
    96   96   50 1
    97   97   50 1
    98   98   50 1
    99   99   51 1
   100  100   51 1
   101  101   53 1
   102  102   54 1
   103  103   55 1
   104  104   56 1
   105  105   57 1
   106  106   59 1
   107  107   59 1
   108  108   59 1
   109  109   20 1
   110  110   20 1
   111  111   20 1
   112  112   40 1
   113  113   40 1
   114  114   40 1
   115  115   60 1
   116  116   60 1
   117  117   60 1
   118    4    8 1
   119   16   17 ar
   120   24   28 1
   121   36   37 ar
   122   44   48 1
   123   56   57 ar
@<TRIPOS>SUBSTRUCTURE
     1 RES1 1
     2 RES2 21
     3 RES3 41

@<TRIPOS>CRYSIN
  12.3410   13.9550   14.7810  66.0300  70.2600  83.1300   2 1

