# MOL2 file generated by ConQuest
# Please check atom types

@<TRIPOS>MOLECULE
LAJBUT
    18    19     1
SMALL
NO_CHARGES
****
Generated from CSD

@<TRIPOS>ATOM
      1 N1         0.3887   16.0123    6.0331 N.3       1 RES1    0.0000
      2 C1         1.0391   14.6870    5.9164 C.3       1 RES1    0.0000
      3 N2         0.0882   13.8872    5.1903 N.2       1 RES1    0.0000
      4 C2        -0.9212   14.6126    4.8201 C.2       1 RES1    0.0000
      5 C3        -0.8326   16.0890    5.2487 C.3       1 RES1    0.0000
      6 C4         0.2789   13.9268    8.0570 C.3       1 RES1    0.0000
      7 C5         2.9755   13.7826    4.9248 C.3       1 RES1    0.0000
      8 C6        -2.0546   14.0198    4.0379 C.ar      1 RES1    0.0000
      9 C7        -2.0577   12.6619    3.8396 C.ar      1 RES1    0.0000
     10 C8        -3.0833   12.0644    3.1345 C.ar      1 RES1    0.0000
     11 C9        -4.0988   12.8433    2.6475 C.ar      1 RES1    0.0000
     12 C10       -4.0801   14.2058    2.8458 C.ar      1 RES1    0.0000
     13 C11       -3.0625   14.8056    3.5245 C.ar      1 RES1    0.0000
     14 C12       -0.6458   17.0516    4.0786 C.3       1 RES1    0.0000
     15 C13       -1.9852   16.5331    6.1312 C.3       1 RES1    0.0000
     16 O1         0.8983   16.9934    6.6391 O.2       1 RES1    0.0000
     17 O2         1.3872   14.1593    7.1525 O.3       1 RES1    0.0000
     18 O3         2.2118   14.8986    5.1958 O.3       1 RES1    0.0000
@<TRIPOS>BOND
     1    1    2 1
     2    2    3 1
     3    3    4 2
     4    4    5 1
     5    5    1 1
     6    6   17 1
     7    7   18 1
     8    8    4 1
     9    9    8 ar
    10   10    9 ar
    11   11   10 ar
    12   12   11 ar
    13   13    8 ar
    14   14    5 1
    15   15    5 1
    16   16    1 1
    17   17    2 1
    18   18    2 1
    19   12   13 ar
@<TRIPOS>SUBSTRUCTURE
     1 RES1 1

@<TRIPOS>CRYSIN
  10.3390   23.2500   11.0180  90.0000  90.5900  90.0000  14 1

