# MOL2 file generated by ConQuest
# Please check atom types

@<TRIPOS>MOLECULE
LAJBED
    19    20     1
SMALL
NO_CHARGES
****
Generated from CSD

@<TRIPOS>ATOM
      1 N1         1.6458    7.6087    3.1242 N.3       1 RES1    0.0000
      2 C1         2.9836    7.6087    2.5610 C.3       1 RES1    0.0000
      3 N2         2.6253    7.6087    1.1022 N.pl3     1 RES1    0.0000
      4 C2         1.3288    7.6087    0.8466 C.2       1 RES1    0.0000
      5 C3         0.5309    7.6087    2.1470 C.3       1 RES1    0.0000
      6 C4         3.2168    9.9685    2.6323 C.3       1 RES1    0.0000
      7 C5         0.7551    7.6087   -0.4900 C.ar      1 RES1    0.0000
      8 C6         1.5499    7.6087   -1.6366 C.ar      1 RES1    0.0000
      9 C7         0.9754    7.6087   -2.8889 C.ar      1 RES1    0.0000
     10 C8        -0.3922    7.6087   -3.0362 C.ar      1 RES1    0.0000
     11 C9        -1.1877    7.6087   -1.9275 C.ar      1 RES1    0.0000
     12 C10       -0.6366    7.6087   -0.6669 C.ar      1 RES1    0.0000
     13 C11       -0.2972    6.3437    2.3563 C.3       1 RES1    0.0000
     14 O1         1.4719    7.6087    4.3773 O.2       1 RES1    0.0000
     15 O2         3.6203    7.6087    0.2927 O.2       1 RES1    0.0000
     16 O3         3.7486    8.6770    2.9121 O.3       1 RES1    0.0000
     17 O3C        3.7486    6.5405    2.9121 O.3       1 RES1    0.0000
     18 C11C      -0.2972    8.8738    2.3563 C.3       1 RES1    0.0000
     19 C4C        3.2168    5.2490    2.6323 C.3       1 RES1    0.0000
@<TRIPOS>BOND
     1    1    2 1
     2    2    3 1
     3    3    4 2
     4    4    5 1
     5    5    1 1
     6    6   16 1
     7    7    4 1
     8    8    7 ar
     9    9    8 ar
    10   10    9 ar
    11   11   10 ar
    12   12    7 ar
    13   13    5 1
    14   14    1 1
    15   15    3 1
    16   16    2 1
    17   17    2 1
    18   18    5 1
    19   19   17 1
    20   11   12 ar
@<TRIPOS>SUBSTRUCTURE
     1 RES1 1

@<TRIPOS>CRYSIN
   7.3720   10.1450    9.5580  90.0000 104.2900  90.0000  11 1

