# MOL2 file generated by ConQuest
# Please check atom types

@<TRIPOS>MOLECULE
LAJBIH
    19    21     1
SMALL
NO_CHARGES
****
Generated from CSD

@<TRIPOS>ATOM
      1 N1         2.0641    2.1285   10.4536 N.3       1 RES1    0.0000
      2 C1         2.1812    3.5617   10.2694 C.3       1 RES1    0.0000
      3 N2         1.4404    4.0294   11.4799 N.pl3     1 RES1    0.0000
      4 C2         0.9618    3.0801   12.2171 C.2       1 RES1    0.0000
      5 C3         1.3327    1.7053   11.6706 C.3       1 RES1    0.0000
      6 C4         2.4111    4.9211    8.4709 C.3       1 RES1    0.0000
      7 C5         3.6156    4.9817    9.2399 C.3       1 RES1    0.0000
      8 C6         0.0389    3.3172   13.3324 C.ar      1 RES1    0.0000
      9 C7        -0.9312    4.3220   13.2243 C.ar      1 RES1    0.0000
     10 C8        -1.8969    4.4475   14.2316 C.ar      1 RES1    0.0000
     11 C9        -1.8930    3.6500   15.3278 C.ar      1 RES1    0.0000
     12 C10       -0.9257    2.7130   15.4708 C.ar      1 RES1    0.0000
     13 C11        0.0267    2.5153   14.4699 C.ar      1 RES1    0.0000
     14 C12        0.1099    0.9070   11.2798 C.3       1 RES1    0.0000
     15 C13        2.2745    0.9216   12.5539 C.3       1 RES1    0.0000
     16 O1         2.5538    1.3142    9.6180 O.2       1 RES1    0.0000
     17 O2         1.3505    5.2984   11.6356 O.2       1 RES1    0.0000
     18 O3         1.5554    3.9798    9.1318 O.3       1 RES1    0.0000
     19 O4         3.4889    3.9484   10.2630 O.3       1 RES1    0.0000
@<TRIPOS>BOND
     1    1    2 1
     2    2    3 1
     3    3    4 2
     4    4    5 1
     5    5    1 1
     6    6    7 1
     7    7   19 1
     8    8    4 1
     9    9    8 ar
    10   10    9 ar
    11   11   10 ar
    12   12   11 ar
    13   13    8 ar
    14   14    5 1
    15   15    5 1
    16   16    1 1
    17   17    3 1
    18   18    2 1
    19   19    2 1
    20    6   18 1
    21   12   13 ar
@<TRIPOS>SUBSTRUCTURE
     1 RES1 1

@<TRIPOS>CRYSIN
   5.5530    7.2970   31.7740  90.0000  90.0000  90.0000  33 3

