# MOL2 file generated by ConQuest
# Please check atom types

@<TRIPOS>MOLECULE
LAJFAF
    30    30     1
SMALL
NO_CHARGES
****
Generated from CSD

@<TRIPOS>ATOM
      1 N1         2.4607    9.9145    3.6877 N.am      1 RES1    0.0000
      2 H1         1.6163    9.7886    3.5812 H         1 RES1    0.0000
      3 N2         2.4503    7.9193    4.7761 N.am      1 RES1    0.0000
      4 H2         1.5967    7.9694    4.6905 H         1 RES1    0.0000
      5 N3         4.4037   14.8660    1.8945 N.pl3     1 RES1    0.0000
      6 O1         4.4182    8.9302    4.3105 O.2       1 RES1    0.0000
      7 O2         1.8511    5.1889    4.0677 O.3       1 RES1    0.0000
      8 O3         5.3254   15.3892    2.5033 O.2       1 RES1    0.0000
      9 O4         3.8648   15.3855    0.9302 O.2       1 RES1    0.0000
     10 C1         3.0005   11.1319    3.2327 C.ar      1 RES1    0.0000
     11 C2         2.4968   11.6909    2.0727 C.ar      1 RES1    0.0000
     12 H3         1.8438   11.2389    1.5897 H         1 RES1    0.0000
     13 C3         2.9517   12.9123    1.6246 C.ar      1 RES1    0.0000
     14 H4         2.6122   13.2870    0.8438 H         1 RES1    0.0000
     15 C4         3.9168   13.5679    2.3505 C.ar      1 RES1    0.0000
     16 C5         4.4333   13.0261    3.5034 C.ar      1 RES1    0.0000
     17 H5         5.0908   13.4787    3.9795 H         1 RES1    0.0000
     18 C6         3.9732   11.8130    3.9463 C.ar      1 RES1    0.0000
     19 H6         4.3149   11.4449    4.7298 H         1 RES1    0.0000
     20 C7         3.1854    8.9139    4.2738 C.2       1 RES1    0.0000
     21 C8         3.0187    6.7473    5.3953 C.3       1 RES1    0.0000
     22 H7         2.4668    6.4933    6.1518 H         1 RES1    0.0000
     23 H8         3.9005    6.9682    5.7342 H         1 RES1    0.0000
     24 C9         3.1348    5.5820    4.4704 C.3       1 RES1    0.0000
     25 H9         3.6627    5.8268    3.6947 H         1 RES1    0.0000
     26 H10        3.5791    4.8457    4.9202 H         1 RES1    0.0000
     27 C10        1.8777    4.1085    3.1479 C.3       1 RES1    0.0000
     28 H11        2.2952    4.3937    2.3321 H         1 RES1    0.0000
     29 H12        0.9798    3.8216    2.9645 H         1 RES1    0.0000
     30 H13        2.3755    3.3783    3.5253 H         1 RES1    0.0000
@<TRIPOS>BOND
     1    1    2 1
     2    3    4 1
     3    5    8 2
     4    6   20 2
     5    7   24 1
     6    9    5 2
     7   10    1 1
     8   11   10 ar
     9   12   11 1
    10   13   11 ar
    11   14   13 1
    12   15    5 1
    13   16   15 ar
    14   17   16 1
    15   18   10 ar
    16   19   18 1
    17   20    1 1
    18   21    3 1
    19   22   21 1
    20   23   21 1
    21   24   21 1
    22   25   24 1
    23   26   24 1
    24   27    7 1
    25   28   27 1
    26   29   27 1
    27   30   27 1
    28    3   20 1
    29   13   15 ar
    30   16   18 ar
@<TRIPOS>SUBSTRUCTURE
     1 RES1 1

@<TRIPOS>CRYSIN
   4.6208   28.6050    8.9845  90.0000 103.5460  90.0000  14 1

