# MOL2 file generated by ConQuest
# Please check atom types

@<TRIPOS>MOLECULE
LAJKOX
    27    27     1
SMALL
USER_CHARGES
****
Generated from CSD

@<TRIPOS>ATOM
      1 N1        14.5236    2.2969    0.6629 N.2       1 RES1    0.0000
      2 N2        13.8333    1.2544    0.9084 N.pl3     1 RES1    1.0000
      3 N3        13.6200    0.4066   -0.1819 N.3       1 RES1    0.0000
      4 H1        13.8525    0.8592   -0.8537 H         1 RES1    0.0000
      5 O1        13.3863    0.8859    2.0274 O.2       1 RES1   -1.0000
      6 O2        14.7374    2.9274    1.8745 O.3       1 RES1    0.0000
      7 C1        15.5478    4.0862    1.6415 C.3       1 RES1    0.0000
      8 H2        15.7009    4.5418    2.4729 H         1 RES1    0.0000
      9 H3        15.0969    4.6743    1.0318 H         1 RES1    0.0000
     10 H4        16.3891    3.8175    1.2648 H         1 RES1    0.0000
     11 C2        12.2020    0.0303   -0.3071 C.3       1 RES1    0.0000
     12 H5        11.9388   -0.4351    0.5141 H         1 RES1    0.0000
     13 C3        12.0685   -0.9452   -1.4605 C.3       1 RES1    0.0000
     14 H6        12.6254   -1.7215   -1.2935 H         1 RES1    0.0000
     15 H7        12.3767   -0.5240   -2.2780 H         1 RES1    0.0000
     16 C4        10.6248   -1.3826   -1.6285 C.3       1 RES1    0.0000
     17 H8        10.3504   -1.8879   -0.8472 H         1 RES1    0.0000
     18 H9        10.5535   -1.9641   -2.4015 H         1 RES1    0.0000
     19 C5         9.6969   -0.1948   -1.8085 C.3       1 RES1    0.0000
     20 H10        8.7795   -0.5053   -1.8614 H         1 RES1    0.0000
     21 H11        9.9092    0.2602   -2.6381 H         1 RES1    0.0000
     22 C6         9.8377    0.7769   -0.6458 C.3       1 RES1    0.0000
     23 H12        9.2747    1.5508   -0.8017 H         1 RES1    0.0000
     24 H13        9.5392    0.3479    0.1717 H         1 RES1    0.0000
     25 C7        11.2801    1.2259   -0.4834 C.3       1 RES1    0.0000
     26 H14       11.3529    1.8068    0.2895 H         1 RES1    0.0000
     27 H15       11.5512    1.7306   -1.2657 H         1 RES1    0.0000
@<TRIPOS>BOND
     1    1    2 2
     2    2    3 1
     3    3    4 1
     4    5    2 1
     5    6    1 1
     6    7    6 1
     7    8    7 1
     8    9    7 1
     9   10    7 1
    10   11    3 1
    11   12   11 1
    12   13   11 1
    13   14   13 1
    14   15   13 1
    15   16   13 1
    16   17   16 1
    17   18   16 1
    18   19   16 1
    19   20   19 1
    20   21   19 1
    21   22   19 1
    22   23   22 1
    23   24   22 1
    24   25   11 1
    25   26   25 1
    26   27   25 1
    27   22   25 1
@<TRIPOS>SUBSTRUCTURE
     1 RES1 1

@<TRIPOS>CRYSIN
  16.5170    6.0509    9.3110  90.0000  94.7380  90.0000  14 1

