# MOL2 file generated by ConQuest
# Please check atom types

@<TRIPOS>MOLECULE
LAKYUS
    82    84     2
SMALL
NO_CHARGES
****
Generated from CSD

@<TRIPOS>ATOM
      1 O1         1.9600    3.4480   11.9943 O.2       1 RES1    0.0000
      2 O2         1.0500    3.2373   13.8885 O.2       1 RES1    0.0000
      3 O3        -3.1327   -5.5919   11.9638 O.2       1 RES1    0.0000
      4 O4        -1.6887   -6.6496   10.6613 O.3       1 RES1    0.0000
      5 O5         0.5927   -4.1460    7.8983 O.2       1 RES1    0.0000
      6 O6        -1.1094   -5.5607    8.2502 O.3       1 RES1    0.0000
      7 O7        -0.1107   -2.7751   10.0932 O.3       1 RES1    0.0000
      8 O8         3.2414   14.1299    9.3588 O.2       2 RES2    0.0000
      9 O9         2.1253   14.0238   11.1795 O.2       2 RES2    0.0000
     10 O10       -1.9436    5.0618    8.8918 O.2       2 RES2    0.0000
     11 O11       -0.0701    3.8911    8.7685 O.3       2 RES2    0.0000
     12 O12        2.3739    6.1720    5.7089 O.2       2 RES2    0.0000
     13 O13        0.8686    4.6273    6.2424 O.3       2 RES2    0.0000
     14 O14        1.4940    7.7178    7.7611 O.3       2 RES2    0.0000
     15 N1         1.3171    2.8226   12.7897 N.pl3     1 RES1    0.0000
     16 N2        -2.0346   -3.1485   13.0959 N.3       1 RES1    0.0000
     17 N3         2.5104   13.5439   10.1292 N.pl3     2 RES2    0.0000
     18 N4        -0.8662    7.5805   10.4507 N.3       2 RES2    0.0000
     19 C1         0.8496    1.4768   12.4224 C.ar      1 RES1    0.0000
     20 C2         1.2899    0.9283   11.2613 C.ar      1 RES1    0.0000
     21 C3         0.8286   -0.3151   10.8913 C.ar      1 RES1    0.0000
     22 C4        -0.0644   -0.9938   11.6950 C.ar      1 RES1    0.0000
     23 C5        -0.5124   -0.3968   12.8575 C.ar      1 RES1    0.0000
     24 C6        -0.0453    0.8346   13.2400 C.ar      1 RES1    0.0000
     25 C7        -0.5479   -2.3199   11.3028 C.2       1 RES1    0.0000
     26 C8        -1.3727   -3.2445   11.8640 C.2       1 RES1    0.0000
     27 C9        -1.2343   -3.4909   14.2515 C.3       1 RES1    0.0000
     28 C10       -2.0125   -3.3311   15.5069 C.3       1 RES1    0.0000
     29 C11       -1.4319   -4.3398   10.9426 C.2       1 RES1    0.0000
     30 C12       -2.1815   -5.5707   11.2363 C.2       1 RES1    0.0000
     31 C13       -2.4232   -7.8663   10.8691 C.3       1 RES1    0.0000
     32 C14       -0.6568   -3.9934    9.8811 C.2       1 RES1    0.0000
     33 C15       -0.3060   -4.5607    8.5717 C.2       1 RES1    0.0000
     34 C16       -0.8714   -6.1912    6.9796 C.3       1 RES1    0.0000
     35 C17        2.0544   12.1882    9.7786 C.ar      2 RES2    0.0000
     36 C18        2.5322   11.6109    8.6382 C.ar      2 RES2    0.0000
     37 C19        2.1376   10.3345    8.3251 C.ar      2 RES2    0.0000
     38 C20        1.2616    9.6382    9.1606 C.ar      2 RES2    0.0000
     39 C21        0.7776   10.2752   10.2913 C.ar      2 RES2    0.0000
     40 C22        1.1769   11.5432   10.6100 C.ar      2 RES2    0.0000
     41 C23        0.8747    8.2721    8.8336 C.2       2 RES2    0.0000
     42 C24       -0.0154    7.3791    9.3518 C.2       2 RES2    0.0000
     43 C25       -0.3267    7.1376   11.7296 C.3       2 RES2    0.0000
     44 C26       -1.2324    7.4028   12.8409 C.3       2 RES2    0.0000
     45 C27        0.0759    6.2113    8.5426 C.2       2 RES2    0.0000
     46 C28       -0.7652    5.0045    8.7366 C.2       2 RES2    0.0000
     47 C29       -0.8201    2.6654    8.8308 C.3       2 RES2    0.0000
     48 C30        0.9986    6.4777    7.5893 C.2       2 RES2    0.0000
     49 C31        1.5113    5.7650    6.4198 C.2       2 RES2    0.0000
     50 C32        1.3025    3.8086    5.1436 C.3       2 RES2    0.0000
     51 H1         1.9080    1.3955   10.7112 H         1 RES1    0.0000
     52 H2         1.1272   -0.7048   10.0779 H         1 RES1    0.0000
     53 H3        -1.1439   -0.8479   13.4063 H         1 RES1    0.0000
     54 H4        -0.3435    1.2398   14.0451 H         1 RES1    0.0000
     55 H5        -2.8128   -3.7287   13.1056 H         1 RES1    0.0000
     56 H6        -0.9349   -4.3901   14.1739 H         1 RES1    0.0000
     57 H7        -0.4842   -2.9093   14.2834 H         1 RES1    0.0000
     58 H8        -1.9248   -2.4356   15.8409 H         1 RES1    0.0000
     59 H9        -1.6867   -3.9429   16.1568 H         1 RES1    0.0000
     60 H10       -2.9339   -3.5090   15.3046 H         1 RES1    0.0000
     61 H11       -2.1142   -8.3128   11.6603 H         1 RES1    0.0000
     62 H12       -2.2952   -8.4337   10.1181 H         1 RES1    0.0000
     63 H13       -3.3567   -7.6595   10.9620 H         1 RES1    0.0000
     64 H14       -1.6729   -6.6307    6.6844 H         1 RES1    0.0000
     65 H15       -0.6127   -5.5296    6.3339 H         1 RES1    0.0000
     66 H16       -0.1683   -6.8381    7.0738 H         1 RES1    0.0000
     67 H17        3.1234   12.0851    8.0659 H         2 RES2    0.0000
     68 H18        2.4676    9.9174    7.5380 H         2 RES2    0.0000
     69 H19        0.1564    9.8235   10.8497 H         2 RES2    0.0000
     70 H20        0.8541   11.9702   11.3943 H         2 RES2    0.0000
     71 H21       -1.7324    7.0951   10.3370 H         2 RES2    0.0000
     72 H22       -0.1675    6.2025   11.6867 H         2 RES2    0.0000
     73 H23        0.4932    7.5920   11.8876 H         2 RES2    0.0000
     74 H24       -1.0462    8.2751   13.1956 H         2 RES2    0.0000
     75 H25       -1.1082    6.7503   13.5213 H         2 RES2    0.0000
     76 H26       -2.1307    7.3780   12.5056 H         2 RES2    0.0000
     77 H27       -0.9764    2.4237    9.7467 H         2 RES2    0.0000
     78 H28       -0.3282    1.9743    8.4040 H         2 RES2    0.0000
     79 H29       -1.6602    2.7881    8.3846 H         2 RES2    0.0000
     80 H30        0.7978    4.0382    4.3593 H         2 RES2    0.0000
     81 H31        1.1655    2.8914    5.3500 H         2 RES2    0.0000
     82 H32        2.2356    3.9666    4.9815 H         2 RES2    0.0000
@<TRIPOS>BOND
     1    1   15 2
     2    2   15 2
     3    3   30 2
     4    4   30 1
     5    5   33 2
     6    6   33 1
     7    7   25 1
     8    8   17 2
     9    9   17 2
    10   10   46 2
    11   11   46 1
    12   12   49 2
    13   13   49 1
    14   14   41 1
    15   15   19 1
    16   16   26 1
    17   17   35 1
    18   18   42 1
    19   19   20 ar
    20   20   21 ar
    21   21   22 ar
    22   22   23 ar
    23   23   24 ar
    24   24   19 ar
    25   25   22 1
    26   26   25 2
    27   27   16 1
    28   28   27 1
    29   29   26 1
    30   30   29 1
    31   31    4 1
    32   32    7 1
    33   33   32 1
    34   34    6 1
    35   35   36 ar
    36   36   37 ar
    37   37   38 ar
    38   38   39 ar
    39   39   40 ar
    40   40   35 ar
    41   41   38 1
    42   42   41 2
    43   43   18 1
    44   44   43 1
    45   45   42 1
    46   46   45 1
    47   47   11 1
    48   48   14 1
    49   49   48 1
    50   50   13 1
    51   51   20 1
    52   52   21 1
    53   53   23 1
    54   54   24 1
    55   55   16 1
    56   56   27 1
    57   57   27 1
    58   58   28 1
    59   59   28 1
    60   60   28 1
    61   61   31 1
    62   62   31 1
    63   63   31 1
    64   64   34 1
    65   65   34 1
    66   66   34 1
    67   67   36 1
    68   68   37 1
    69   69   39 1
    70   70   40 1
    71   71   18 1
    72   72   43 1
    73   73   43 1
    74   74   44 1
    75   75   44 1
    76   76   44 1
    77   77   47 1
    78   78   47 1
    79   79   47 1
    80   80   50 1
    81   81   50 1
    82   82   50 1
    83   29   32 2
    84   45   48 2
@<TRIPOS>SUBSTRUCTURE
     1 RES1 1
     2 RES2 8

@<TRIPOS>CRYSIN
   8.3731   14.2379   15.5760 115.6710  93.9504  99.7890   2 1

