# MOL2 file generated by ConQuest
# Please check atom types

@<TRIPOS>MOLECULE
LALQIZ
    32    32     1
SMALL
NO_CHARGES
****
Generated from CSD

@<TRIPOS>ATOM
      1 O1         4.0061    0.6322   10.2846 O.2       1 RES1    0.0000
      2 O2         0.3866   -1.3817   10.1600 O.2       1 RES1    0.0000
      3 O3         0.6578    2.4953    6.4992 O.2       1 RES1    0.0000
      4 O4         1.0006    0.8913    5.0994 O.2       1 RES1    0.0000
      5 N1         2.2467    0.6781    8.0873 N.2       1 RES1    0.0000
      6 N2         3.3727    1.3300    7.9236 N.pl3     1 RES1    0.0000
      7 H1         3.9414    1.3415    8.5689 H         1 RES1    0.0000
      8 N3         1.3772    1.8261    5.7875 N.pl3     1 RES1    0.0000
      9 C1         2.4887   -0.3928   11.7318 C.3       1 RES1    0.0000
     10 H2         3.2108   -0.2788   12.3534 H         1 RES1    0.0000
     11 H3         2.2751   -1.3259   11.6562 H         1 RES1    0.0000
     12 H4         1.7187    0.0869   12.0454 H         1 RES1    0.0000
     13 C2         2.8925    0.1320   10.4006 C.2       1 RES1    0.0000
     14 C3         1.9875    0.0828    9.2331 C.2       1 RES1    0.0000
     15 C4         0.6808   -0.6216    9.2620 C.2       1 RES1    0.0000
     16 C5        -0.2882   -0.3846    8.1481 C.3       1 RES1    0.0000
     17 H5        -1.0822   -0.9028    8.2980 H         1 RES1    0.0000
     18 H6         0.1114   -0.6470    7.3147 H         1 RES1    0.0000
     19 H7        -0.5162    0.5478    8.1137 H         1 RES1    0.0000
     20 C6         3.6830    2.0016    6.7478 C.ar      1 RES1    0.0000
     21 C7         4.9894    2.5182    6.6216 C.ar      1 RES1    0.0000
     22 C8         5.3304    3.2029    5.4692 C.ar      1 RES1    0.0000
     23 H8         6.1832    3.5654    5.3935 H         1 RES1    0.0000
     24 C9         4.4378    3.3628    4.4309 C.ar      1 RES1    0.0000
     25 H9         4.6981    3.8122    3.6594 H         1 RES1    0.0000
     26 C10        3.1639    2.8577    4.5354 C.ar      1 RES1    0.0000
     27 H10        2.5601    2.9561    3.8354 H         1 RES1    0.0000
     28 C11        2.7922    2.2042    5.6906 C.ar      1 RES1    0.0000
     29 C12        5.9892    2.3149    7.7273 C.3       1 RES1    0.0000
     30 H11        5.5792    1.8212    8.4424 H         1 RES1    0.0000
     31 H12        6.2812    3.1685    8.0559 H         1 RES1    0.0000
     32 H13        6.7427    1.8253    7.3917 H         1 RES1    0.0000
@<TRIPOS>BOND
     1    1   13 2
     2    2   15 2
     3    3    8 2
     4    4    8 2
     5    5    6 1
     6    6    7 1
     7    8   28 1
     8    9   10 1
     9   11    9 1
    10   12    9 1
    11   13    9 1
    12   14    5 2
    13   15   14 1
    14   16   15 1
    15   17   16 1
    16   18   16 1
    17   19   16 1
    18   20    6 1
    19   21   20 ar
    20   22   21 ar
    21   23   22 1
    22   24   22 ar
    23   25   24 1
    24   26   24 ar
    25   27   26 1
    26   28   20 ar
    27   29   21 1
    28   30   29 1
    29   31   29 1
    30   32   29 1
    31   13   14 1
    32   26   28 ar
@<TRIPOS>SUBSTRUCTURE
     1 RES1 1

@<TRIPOS>CRYSIN
  11.1540    8.2000   14.0650  90.0000 102.1100  90.0000 231 1

