# MOL2 file generated by ConQuest
# Please check atom types

@<TRIPOS>MOLECULE
LALYEC
    25    26     1
SMALL
NO_CHARGES
****
Generated from CSD

@<TRIPOS>ATOM
      1 O1         5.3422    4.2326    5.6483 O.2       1 RES1    0.0000
      2 O2         7.4293    0.2633    7.0813 O.2       1 RES1    0.0000
      3 O3         6.4751    3.0084    8.5407 O.2       1 RES1    0.0000
      4 O4         4.5483    2.1403    8.4927 O.2       1 RES1    0.0000
      5 N1         5.5817    2.4241    7.9698 N.pl3     1 RES1    0.0000
      6 C1         6.1256    3.3389    5.7632 C.2       1 RES1    0.0000
      7 C2         7.4849    3.2300    5.2012 C.ar      1 RES1    0.0000
      8 C3         8.1432    4.1256    4.3726 C.ar      1 RES1    0.0000
      9 C4         9.4193    3.7873    3.9685 C.ar      1 RES1    0.0000
     10 C5        10.0158    2.6080    4.3701 C.ar      1 RES1    0.0000
     11 C6         9.3723    1.7265    5.1949 C.ar      1 RES1    0.0000
     12 C7         8.0867    2.0506    5.6104 C.ar      1 RES1    0.0000
     13 C8         7.1944    1.2876    6.4945 C.2       1 RES1    0.0000
     14 C9         5.8382    2.0256    6.5375 C.3       1 RES1    0.0000
     15 C10        4.6934    1.2185    5.9628 C.3       1 RES1    0.0000
     16 C11        4.8440    0.9302    4.4951 C.3       1 RES1    0.0000
     17 H1         7.7381    4.9584    4.0543 H         1 RES1    0.0000
     18 H2         9.8929    4.3562    3.3723 H         1 RES1    0.0000
     19 H3        10.9264    2.4087    4.0670 H         1 RES1    0.0000
     20 H4         9.8125    0.9417    5.4816 H         1 RES1    0.0000
     21 H5         3.8710    1.7553    6.1005 H         1 RES1    0.0000
     22 H6         4.6319    0.4100    6.4794 H         1 RES1    0.0000
     23 H7         4.0988    0.3139    4.2185 H         1 RES1    0.0000
     24 H8         4.7959    1.8258    4.0165 H         1 RES1    0.0000
     25 H9         5.6966    0.4805    4.2438 H         1 RES1    0.0000
@<TRIPOS>BOND
     1    1    6 2
     2    2   13 2
     3    3    5 2
     4    4    5 2
     5    5   14 1
     6    6    7 1
     7    7    8 ar
     8    8    9 ar
     9    9   10 ar
    10   10   11 ar
    11   11   12 ar
    12   12    7 ar
    13   13   12 1
    14   14    6 1
    15   15   14 1
    16   16   15 1
    17   17    8 1
    18   18    9 1
    19   19   10 1
    20   20   11 1
    21   21   15 1
    22   22   15 1
    23   23   16 1
    24   24   16 1
    25   25   16 1
    26   13   14 1
@<TRIPOS>SUBSTRUCTURE
     1 RES1 1

@<TRIPOS>CRYSIN
  12.9862    6.4062   14.0857  90.0000 116.2750  90.0000  14 1

