# MOL2 file generated by ConQuest
# Please check atom types

@<TRIPOS>MOLECULE
LAMDUA
    78    86     2
SMALL
NO_CHARGES
****
Generated from CSD

@<TRIPOS>ATOM
      1 N1         2.9034    3.2138    1.7845 N.3       1 RES1    0.0000
      2 C1         3.6331    2.9251    3.0389 C.3       1 RES1    0.0000
      3 H1         2.9926    2.9409    3.8065 H         1 RES1    0.0000
      4 C2         4.1608    1.4816    2.8394 C.3       1 RES1    0.0000
      5 H2         5.1261    1.4220    3.0511 H         1 RES1    0.0000
      6 H3         3.6642    0.8381    3.4039 H         1 RES1    0.0000
      7 C3         3.9059    1.2245    1.3561 C.3       1 RES1    0.0000
      8 H4         4.6982    0.7799    0.9386 H         1 RES1    0.0000
      9 C4         2.6447    0.4445    1.0556 C.3       1 RES1    0.0000
     10 H5         2.6420    0.1681    0.1040 H         1 RES1    0.0000
     11 H6         2.6161   -0.3720    1.6149 H         1 RES1    0.0000
     12 C5         1.4397    1.2913    1.3378 C.ar      1 RES1    0.0000
     13 C6         0.1466    0.8072    1.2236 C.ar      1 RES1    0.0000
     14 H7         0.0046   -0.0761    0.9024 H         1 RES1    0.0000
     15 C7        -0.9367    1.5843    1.5672 C.ar      1 RES1    0.0000
     16 H8        -1.8164    1.2388    1.4747 H         1 RES1    0.0000
     17 C8        -0.7425    2.8720    2.0485 C.ar      1 RES1    0.0000
     18 H9        -1.4851    3.3941    2.3296 H         1 RES1    0.0000
     19 C9         0.5255    3.3855    2.1159 C.ar      1 RES1    0.0000
     20 H10        0.6607    4.2774    2.4133 H         1 RES1    0.0000
     21 C10        1.6023    2.6091    1.7544 C.ar      1 RES1    0.0000
     22 O1         3.7234    2.5473    0.8074 O.3       1 RES1    0.0000
     23 C11        4.7093    3.9571    3.2646 C.ar      1 RES1    0.0000
     24 C12        5.0213    4.8520    2.2882 C.ar      1 RES1    0.0000
     25 H11        4.5470    4.8232    1.4656 H         1 RES1    0.0000
     26 C13        6.0224    5.8129    2.4644 C.ar      1 RES1    0.0000
     27 H12        6.2421    6.4032    1.7529 H         1 RES1    0.0000
     28 C14        6.6798    5.9062    3.6480 C.ar      1 RES1    0.0000
     29 H13        7.3330    6.5849    3.7726 H         1 RES1    0.0000
     30 C15        6.4012    5.0071    4.6886 C.ar      1 RES1    0.0000
     31 C16        7.0760    5.0868    5.9256 C.ar      1 RES1    0.0000
     32 H14        7.7286    5.7640    6.0570 H         1 RES1    0.0000
     33 C17        6.8108    4.2128    6.9293 C.ar      1 RES1    0.0000
     34 H15        7.2834    4.2731    7.7510 H         1 RES1    0.0000
     35 C18        5.8388    3.2239    6.7500 C.ar      1 RES1    0.0000
     36 H16        5.6509    2.6184    7.4570 H         1 RES1    0.0000
     37 C19        5.1580    3.1169    5.5761 C.ar      1 RES1    0.0000
     38 H17        4.5036    2.4353    5.4734 H         1 RES1    0.0000
     39 C20        5.4131    4.0088    4.5088 C.ar      1 RES1    0.0000
     40 N2         5.2497    0.5602    9.2841 N.3       2 RES2    0.0000
     41 C21        4.4416   -0.1077    8.2522 C.3       2 RES2    0.0000
     42 H18        5.0373   -0.4187    7.5113 H         2 RES2    0.0000
     43 C22        3.8510   -1.3401    8.9950 C.3       2 RES2    0.0000
     44 H19        2.8787   -1.4241    8.8276 H         2 RES2    0.0000
     45 H20        4.3012   -2.1753    8.7123 H         2 RES2    0.0000
     46 C23        4.1310   -1.0349   10.4595 C.3       2 RES2    0.0000
     47 H21        3.3251   -1.2202   11.0215 H         2 RES2    0.0000
     48 C24        5.3394   -1.7610   10.9962 C.3       2 RES2    0.0000
     49 H22        5.4152   -1.6109   11.9715 H         2 RES2    0.0000
     50 H23        5.2439   -2.7334   10.8383 H         2 RES2    0.0000
     51 C25        6.5739   -1.2518   10.3050 C.ar      2 RES2    0.0000
     52 C26        7.8098   -1.8565   10.4751 C.ar      2 RES2    0.0000
     53 H24        7.8858   -2.6098   11.0487 H         2 RES2    0.0000
     54 C27        8.9262   -1.3839    9.8276 C.ar      2 RES2    0.0000
     55 H25        9.7686   -1.8026    9.9630 H         2 RES2    0.0000
     56 C28        8.8221   -0.3031    8.9814 C.ar      2 RES2    0.0000
     57 H26        9.5898    0.0144    8.5200 H         2 RES2    0.0000
     58 C29        7.6095    0.3189    8.8023 C.ar      2 RES2    0.0000
     59 H27        7.5391    1.0643    8.2170 H         2 RES2    0.0000
     60 C30        6.4955   -0.1408    9.4720 C.ar      2 RES2    0.0000
     61 O2         4.4531    0.3756   10.4692 O.3       2 RES2    0.0000
     62 C31        3.3657    0.7878    7.6893 C.ar      2 RES2    0.0000
     63 C32        3.0442    1.9865    8.2534 C.ar      2 RES2    0.0000
     64 H28        3.5164    2.2809    9.0221 H         2 RES2    0.0000
     65 C33        2.0285    2.7944    7.7191 C.ar      2 RES2    0.0000
     66 H29        1.8149    3.6196    8.1378 H         2 RES2    0.0000
     67 C34        1.3518    2.4116    6.6170 C.ar      2 RES2    0.0000
     68 H30        0.6807    2.9775    6.2538 H         2 RES2    0.0000
     69 C35        1.6352    1.1742    5.9998 C.ar      2 RES2    0.0000
     70 C36        0.9269    0.7376    4.8619 C.ar      2 RES2    0.0000
     71 H31        0.2553    1.2941    4.4851 H         2 RES2    0.0000
     72 C37        1.1920   -0.4690    4.2962 C.ar      2 RES2    0.0000
     73 H32        0.7012   -0.7548    3.5351 H         2 RES2    0.0000
     74 C38        2.1833   -1.2877    4.8329 C.ar      2 RES2    0.0000
     75 H33        2.3619   -2.1308    4.4330 H         2 RES2    0.0000
     76 C39        2.8999   -0.8963    5.9217 C.ar      2 RES2    0.0000
     77 H34        3.5742   -1.4672    6.2696 H         2 RES2    0.0000
     78 C40        2.6531    0.3469    6.5401 C.ar      2 RES2    0.0000
@<TRIPOS>BOND
     1    1    2 1
     2    2    3 1
     3    4    2 1
     4    5    4 1
     5    6    4 1
     6    7    4 1
     7    8    7 1
     8    9    7 1
     9   10    9 1
    10   11    9 1
    11   12    9 1
    12   13   12 ar
    13   14   13 1
    14   15   13 ar
    15   16   15 1
    16   17   15 ar
    17   18   17 1
    18   19   17 ar
    19   20   19 1
    20   21    1 1
    21   22    1 1
    22   23    2 1
    23   24   23 ar
    24   25   24 1
    25   26   24 ar
    26   27   26 1
    27   28   26 ar
    28   29   28 1
    29   30   28 ar
    30   31   30 ar
    31   32   31 1
    32   33   31 ar
    33   34   33 1
    34   35   33 ar
    35   36   35 1
    36   37   35 ar
    37   38   37 1
    38   39   23 ar
    39   40   41 1
    40   41   42 1
    41   43   41 1
    42   44   43 1
    43   45   43 1
    44   46   43 1
    45   47   46 1
    46   48   46 1
    47   49   48 1
    48   50   48 1
    49   51   48 1
    50   52   51 ar
    51   53   52 1
    52   54   52 ar
    53   55   54 1
    54   56   54 ar
    55   57   56 1
    56   58   56 ar
    57   59   58 1
    58   60   40 1
    59   61   40 1
    60   62   41 1
    61   63   62 ar
    62   64   63 1
    63   65   63 ar
    64   66   65 1
    65   67   65 ar
    66   68   67 1
    67   69   67 ar
    68   70   69 ar
    69   71   70 1
    70   72   70 ar
    71   73   72 1
    72   74   72 ar
    73   75   74 1
    74   76   74 ar
    75   77   76 1
    76   78   62 ar
    77    7   22 1
    78   12   21 ar
    79   19   21 ar
    80   30   39 ar
    81   37   39 ar
    82   46   61 1
    83   51   60 ar
    84   58   60 ar
    85   69   78 ar
    86   76   78 ar
@<TRIPOS>SUBSTRUCTURE
     1 RES1 1
     2 RES2 40

@<TRIPOS>CRYSIN
   8.9740    7.1817   22.7180  90.0000  95.3900  90.0000   4 1

