# MOL2 file generated by ConQuest
# Please check atom types

@<TRIPOS>MOLECULE
LAMRIB
   150   161     1
SMALL
NO_CHARGES
****
Generated from CSD

@<TRIPOS>ATOM
      1 O1         3.7268    2.0517    5.4370 O.3       1 RES1    0.0000
      2 O2         4.4382    6.3805    4.9839 O.3       1 RES1    0.0000
      3 O3         5.3469    4.5603    9.6330 O.3       1 RES1    0.0000
      4 O4        11.8923    3.4908    9.4226 O.2       1 RES1    0.0000
      5 O5        12.9345    3.3278    7.5600 O.2       1 RES1    0.0000
      6 O6        13.2919    8.1842    6.3033 O.2       1 RES1    0.0000
      7 O7        11.5226    9.3760    6.4312 O.2       1 RES1    0.0000
      8 N1         3.4865    5.0906    7.4965 N.3       1 RES1    0.0000
      9 N2         7.7777    2.4915    5.8680 N.3       1 RES1    0.0000
     10 N3         5.8927    0.1976    4.2246 N.3       1 RES1    0.0000
     11 N4         6.8182    5.2404    3.4649 N.3       1 RES1    0.0000
     12 N5         9.1741    3.7720    8.1829 N.pl3     1 RES1    0.0000
     13 N6        12.0899    3.8104    8.2705 N.pl3     1 RES1    0.0000
     14 N7        12.1052    8.3240    6.5256 N.pl3     1 RES1    0.0000
     15 C1         4.1459    3.9511    6.8243 C.3       1 RES1    0.0000
     16 H1         4.4574    3.3131    7.4858 H         1 RES1    0.0000
     17 H2         4.9120    4.2640    6.3192 H         1 RES1    0.0000
     18 C2         3.1501    3.2852    5.8937 C.3       1 RES1    0.0000
     19 H3         2.3191    3.1115    6.3643 H         1 RES1    0.0000
     20 H4         2.9599    3.8641    5.1394 H         1 RES1    0.0000
     21 C3         2.9088    1.2039    4.7374 C.ar      1 RES1    0.0000
     22 C4         1.6215    1.5255    4.3261 C.ar      1 RES1    0.0000
     23 H5         1.2673    2.3622    4.5270 H         1 RES1    0.0000
     24 C5         0.8639    0.6078    3.6203 C.ar      1 RES1    0.0000
     25 H6         0.0061    0.8333    3.3406 H         1 RES1    0.0000
     26 C6         1.3784   -0.6495    3.3257 C.ar      1 RES1    0.0000
     27 H7         0.8725   -1.2634    2.8448 H         1 RES1    0.0000
     28 C7         2.6425   -0.9778    3.7526 C.ar      1 RES1    0.0000
     29 H8         2.9798   -1.8212    3.5606 H         1 RES1    0.0000
     30 C8         3.4373   -0.0739    4.4697 C.ar      1 RES1    0.0000
     31 C9         4.8111   -0.4506    4.9658 C.3       1 RES1    0.0000
     32 H9         4.8836   -0.2083    5.9030 H         1 RES1    0.0000
     33 H10        4.9169   -1.4112    4.8982 H         1 RES1    0.0000
     34 C10        7.1111    0.1875    5.0421 C.3       1 RES1    0.0000
     35 H11        7.8790    0.3562    4.4740 H         1 RES1    0.0000
     36 H12        7.2223   -0.6888    5.4403 H         1 RES1    0.0000
     37 C11        7.0619    1.2405    6.1487 C.3       1 RES1    0.0000
     38 H13        6.1328    1.4549    6.3258 H         1 RES1    0.0000
     39 H14        7.4300    0.8535    6.9568 H         1 RES1    0.0000
     40 C12        4.1347    6.3724    7.3492 C.3       1 RES1    0.0000
     41 H15        5.0937    6.2431    7.4128 H         1 RES1    0.0000
     42 H16        3.8655    6.9420    8.0889 H         1 RES1    0.0000
     43 C13        3.8324    7.0817    6.0687 C.3       1 RES1    0.0000
     44 H17        2.8723    7.1268    5.9361 H         1 RES1    0.0000
     45 H18        4.1758    7.9870    6.1071 H         1 RES1    0.0000
     46 C14        4.1194    6.7790    3.7184 C.ar      1 RES1    0.0000
     47 C15        3.3699    7.9278    3.4294 C.ar      1 RES1    0.0000
     48 H19        3.0892    8.4910    4.1147 H         1 RES1    0.0000
     49 C16        3.0600    8.2117    2.1422 C.ar      1 RES1    0.0000
     50 H20        2.5445    8.9614    1.9553 H         1 RES1    0.0000
     51 C17        3.4932    7.4094    1.0963 C.ar      1 RES1    0.0000
     52 H21        3.2670    7.6140    0.2174 H         1 RES1    0.0000
     53 C18        4.2684    6.3005    1.3866 C.ar      1 RES1    0.0000
     54 H22        4.5747    5.7659    0.6893 H         1 RES1    0.0000
     55 C19        4.5992    5.9669    2.6883 C.ar      1 RES1    0.0000
     56 C20        5.4849    4.7892    3.0357 C.3       1 RES1    0.0000
     57 H23        5.0738    4.2740    3.7462 H         1 RES1    0.0000
     58 H24        5.5735    4.2136    2.2602 H         1 RES1    0.0000
     59 C21        7.3587    4.5684    4.6297 C.3       1 RES1    0.0000
     60 H25        6.8192    4.8117    5.3979 H         1 RES1    0.0000
     61 H26        8.2554    4.9057    4.7855 H         1 RES1    0.0000
     62 C22        7.4241    3.0506    4.5564 C.3       1 RES1    0.0000
     63 H27        6.5644    2.7015    4.2751 H         1 RES1    0.0000
     64 H28        8.0879    2.7855    3.9000 H         1 RES1    0.0000
     65 C23        3.0784    4.7855    8.8644 C.3       1 RES1    0.0000
     66 H29        2.8691    3.8406    8.9108 H         1 RES1    0.0000
     67 H30        2.2592    5.2720    9.0487 H         1 RES1    0.0000
     68 C24        4.0717    5.1026    9.9700 C.3       1 RES1    0.0000
     69 H31        4.1436    6.0650   10.0813 H         1 RES1    0.0000
     70 H32        3.7647    4.7209   10.8064 H         1 RES1    0.0000
     71 C25        6.3791    4.8305   10.4965 C.ar      1 RES1    0.0000
     72 C26        6.2153    5.4051   11.7463 C.ar      1 RES1    0.0000
     73 H33        5.3700    5.6550   12.0432 H         1 RES1    0.0000
     74 C27        7.3205    5.6020   12.5443 C.ar      1 RES1    0.0000
     75 H34        7.2174    6.0045   13.3768 H         1 RES1    0.0000
     76 C28        8.5687    5.2145   12.1360 C.ar      1 RES1    0.0000
     77 H35        9.3012    5.3224   12.6981 H         1 RES1    0.0000
     78 C29        8.7357    4.6541   10.8634 C.ar      1 RES1    0.0000
     79 H36        9.5840    4.3984   10.5824 H         1 RES1    0.0000
     80 C30        7.6561    4.4763   10.0227 C.ar      1 RES1    0.0000
     81 C31        7.7863    3.9034    8.6214 C.3       1 RES1    0.0000
     82 H37        7.3642    3.0308    8.5966 H         1 RES1    0.0000
     83 H38        7.3127    4.4790    8.0001 H         1 RES1    0.0000
     84 C32        9.5333    2.4673    7.5945 C.3       1 RES1    0.0000
     85 H39        9.0538    1.7674    8.0637 H         1 RES1    0.0000
     86 H40       10.4833    2.3151    7.7204 H         1 RES1    0.0000
     87 C33        9.2086    2.3813    6.1041 C.3       1 RES1    0.0000
     88 H41        9.6689    3.0947    5.6325 H         1 RES1    0.0000
     89 H42        9.5288    1.5356    5.7532 H         1 RES1    0.0000
     90 C34        6.0947   -0.4815    2.9292 C.3       1 RES1    0.0000
     91 H43        5.2353   -0.7627    2.5783 H         1 RES1    0.0000
     92 H44        6.6346   -1.2768    3.0661 H         1 RES1    0.0000
     93 C35        6.7750    0.4177    1.9183 C.ar      1 RES1    0.0000
     94 C36        8.1574    0.3068    1.6426 C.ar      1 RES1    0.0000
     95 C37        9.0117   -0.6525    2.2854 C.ar      1 RES1    0.0000
     96 H45        8.6465   -1.2332    2.9111 H         1 RES1    0.0000
     97 C38       10.3348   -0.7335    2.0043 C.ar      1 RES1    0.0000
     98 H46       10.8593   -1.3743    2.4272 H         1 RES1    0.0000
     99 C39       10.9201    0.1525    1.0724 C.ar      1 RES1    0.0000
    100 H47       11.8338    0.1008    0.9001 H         1 RES1    0.0000
    101 C40       10.1668    1.0746    0.4268 C.ar      1 RES1    0.0000
    102 H48       10.5688    1.6464   -0.1869 H         1 RES1    0.0000
    103 C41        8.7668    1.1787    0.6721 C.ar      1 RES1    0.0000
    104 C42        7.9796    2.0910   -0.0146 C.ar      1 RES1    0.0000
    105 H49        8.3793    2.6545   -0.6389 H         1 RES1    0.0000
    106 C43        6.6091    2.1878    0.2047 C.ar      1 RES1    0.0000
    107 C44        5.7829    3.0708   -0.5568 C.ar      1 RES1    0.0000
    108 H50        6.1700    3.6054   -1.2116 H         1 RES1    0.0000
    109 C45        4.4495    3.1447   -0.3433 C.ar      1 RES1    0.0000
    110 H51        3.9279    3.7096   -0.8670 H         1 RES1    0.0000
    111 C46        3.8474    2.3719    0.6655 C.ar      1 RES1    0.0000
    112 H52        2.9330    2.4428    0.8192 H         1 RES1    0.0000
    113 C47        4.5930    1.5204    1.4181 C.ar      1 RES1    0.0000
    114 H53        4.1763    1.0282    2.0892 H         1 RES1    0.0000
    115 C48        5.9968    1.3565    1.2104 C.ar      1 RES1    0.0000
    116 C49        7.7307    5.4296    2.3583 C.3       1 RES1    0.0000
    117 H54        7.2687    5.8869    1.6398 H         1 RES1    0.0000
    118 H55        8.0125    4.5630    2.0269 H         1 RES1    0.0000
    119 C50        8.9485    6.2296    2.7577 C.ar      1 RES1    0.0000
    120 C51        8.7477    7.5619    3.1961 C.ar      1 RES1    0.0000
    121 C52        7.4527    8.1486    3.2902 C.ar      1 RES1    0.0000
    122 H56        6.7113    7.6543    3.0237 H         1 RES1    0.0000
    123 C53        7.2711    9.4083    3.7581 C.ar      1 RES1    0.0000
    124 H57        6.4113    9.7577    3.8204 H         1 RES1    0.0000
    125 C54        8.3929   10.2073    4.1571 C.ar      1 RES1    0.0000
    126 H58        8.2677   11.0749    4.4633 H         1 RES1    0.0000
    127 C55        9.6199    9.6855    4.0816 C.ar      1 RES1    0.0000
    128 H59       10.3413   10.1979    4.3653 H         1 RES1    0.0000
    129 C56        9.8688    8.3707    3.5831 C.ar      1 RES1    0.0000
    130 C57       11.1671    7.8263    3.5142 C.ar      1 RES1    0.0000
    131 H60       11.8956    8.3566    3.7475 H         1 RES1    0.0000
    132 C58       11.3807    6.5220    3.1059 C.ar      1 RES1    0.0000
    133 C59       12.7002    5.9571    3.0887 C.ar      1 RES1    0.0000
    134 H61       13.4198    6.4884    3.3432 H         1 RES1    0.0000
    135 C60       12.9265    4.6883    2.7175 C.ar      1 RES1    0.0000
    136 H62       13.7936    4.3513    2.6937 H         1 RES1    0.0000
    137 C61       11.8228    3.8618    2.3583 C.ar      1 RES1    0.0000
    138 H63       11.9759    2.9770    2.1197 H         1 RES1    0.0000
    139 C62       10.5495    4.3412    2.3583 C.ar      1 RES1    0.0000
    140 H64        9.8538    3.7768    2.1104 H         1 RES1    0.0000
    141 C63       10.2530    5.6927    2.7268 C.ar      1 RES1    0.0000
    142 C64        9.8752    4.9108    7.8223 C.ar      1 RES1    0.0000
    143 C65       11.2813    4.9165    7.7045 C.ar      1 RES1    0.0000
    144 C66       12.0071    5.9837    7.2379 C.ar      1 RES1    0.0000
    145 H65       12.9280    5.9205    7.1212 H         1 RES1    0.0000
    146 C67       11.3401    7.1405    6.9489 C.ar      1 RES1    0.0000
    147 C68        9.9764    7.2262    7.1186 C.ar      1 RES1    0.0000
    148 H66        9.5376    8.0273    6.9476 H         1 RES1    0.0000
    149 C69        9.2589    6.1285    7.5414 C.ar      1 RES1    0.0000
    150 H67        8.3381    6.2027    7.6409 H         1 RES1    0.0000
@<TRIPOS>BOND
     1    1   18 1
     2    2   43 1
     3    3   68 1
     4    4   13 2
     5    5   13 2
     6    6   14 2
     7    7   14 2
     8    8   15 1
     9    9   37 1
    10   10   31 1
    11   11   56 1
    12   12   81 1
    13   13  143 1
    14   14  146 1
    15   15   16 1
    16   17   15 1
    17   18   15 1
    18   19   18 1
    19   20   18 1
    20   21    1 1
    21   22   21 ar
    22   23   22 1
    23   24   22 ar
    24   25   24 1
    25   26   24 ar
    26   27   26 1
    27   28   26 ar
    28   29   28 1
    29   30   21 ar
    30   31   30 1
    31   32   31 1
    32   33   31 1
    33   34   10 1
    34   35   34 1
    35   36   34 1
    36   37   34 1
    37   38   37 1
    38   39   37 1
    39   40    8 1
    40   41   40 1
    41   42   40 1
    42   43   40 1
    43   44   43 1
    44   45   43 1
    45   46    2 1
    46   47   46 ar
    47   48   47 1
    48   49   47 ar
    49   50   49 1
    50   51   49 ar
    51   52   51 1
    52   53   51 ar
    53   54   53 1
    54   55   46 ar
    55   56   55 1
    56   57   56 1
    57   58   56 1
    58   59   11 1
    59   60   59 1
    60   61   59 1
    61   62    9 1
    62   63   62 1
    63   64   62 1
    64   65    8 1
    65   66   65 1
    66   67   65 1
    67   68   65 1
    68   69   68 1
    69   70   68 1
    70   71    3 1
    71   72   71 ar
    72   73   72 1
    73   74   72 ar
    74   75   74 1
    75   76   74 ar
    76   77   76 1
    77   78   76 ar
    78   79   78 1
    79   80   71 ar
    80   81   80 1
    81   82   81 1
    82   83   81 1
    83   84   12 1
    84   85   84 1
    85   86   84 1
    86   87    9 1
    87   88   87 1
    88   89   87 1
    89   90   10 1
    90   91   90 1
    91   92   90 1
    92   93   90 1
    93   94   93 ar
    94   95   94 ar
    95   96   95 1
    96   97   95 ar
    97   98   97 1
    98   99   97 ar
    99  100   99 1
   100  101   99 ar
   101  102  101 1
   102  103   94 ar
   103  104  103 ar
   104  105  104 1
   105  106  104 ar
   106  107  106 ar
   107  108  107 1
   108  109  107 ar
   109  110  109 1
   110  111  109 ar
   111  112  111 1
   112  113  111 ar
   113  114  113 1
   114  115   93 ar
   115  116   11 1
   116  117  116 1
   117  118  116 1
   118  119  116 1
   119  120  119 ar
   120  121  120 ar
   121  122  121 1
   122  123  121 ar
   123  124  123 1
   124  125  123 ar
   125  126  125 1
   126  127  125 ar
   127  128  127 1
   128  129  120 ar
   129  130  129 ar
   130  131  130 1
   131  132  130 ar
   132  133  132 ar
   133  134  133 1
   134  135  133 ar
   135  136  135 1
   136  137  135 ar
   137  138  137 1
   138  139  137 ar
   139  140  139 1
   140  141  119 ar
   141  142   12 1
   142  143  142 ar
   143  144  143 ar
   144  145  144 1
   145  146  144 ar
   146  147  146 ar
   147  148  147 1
   148  149  142 ar
   149  150  149 1
   150   28   30 ar
   151   53   55 ar
   152   59   62 1
   153   78   80 ar
   154   84   87 1
   155  101  103 ar
   156  106  115 ar
   157  113  115 ar
   158  127  129 ar
   159  132  141 ar
   160  139  141 ar
   161  147  149 ar
@<TRIPOS>SUBSTRUCTURE
     1 RES1 1

@<TRIPOS>CRYSIN
  12.4950   33.6010   14.1070  90.0000 110.0010  90.0000 231 1

