# MOL2 file generated by ConQuest
# Please check atom types

@<TRIPOS>MOLECULE
LANCIN
    88    92     1
SMALL
NO_CHARGES
****
Generated from CSD

@<TRIPOS>ATOM
      1 C1         4.5410   -0.5292    8.5818 C.ar      1 RES1    0.0000
      2 C2         5.1924   -1.7555    8.6249 C.ar      1 RES1    0.0000
      3 C3         5.7175   -2.3106    7.4558 C.ar      1 RES1    0.0000
      4 C4         5.5676   -1.6586    6.2321 C.ar      1 RES1    0.0000
      5 C5         4.9108   -0.4210    6.1832 C.ar      1 RES1    0.0000
      6 C6         4.4014    0.1301    7.3639 C.ar      1 RES1    0.0000
      7 C7         4.0700    0.1084    9.8372 C.ar      1 RES1    0.0000
      8 C8         4.1861    1.4842   10.0138 C.ar      1 RES1    0.0000
      9 C9         3.8223    2.0950   11.1959 C.ar      1 RES1    0.0000
     10 C10        3.3454    1.3382   12.2645 C.ar      1 RES1    0.0000
     11 C11        3.2051   -0.0416   12.0893 C.ar      1 RES1    0.0000
     12 C12        3.5493   -0.6377   10.8914 C.ar      1 RES1    0.0000
     13 C13        3.0459    1.9777   13.5442 C.2       1 RES1    0.0000
     14 N1         2.8832    3.3044   13.7554 N.pl3     1 RES1    0.0000
     15 O1         2.8719    4.2257   12.8735 O.2       1 RES1    0.0000
     16 C14        2.8746    3.6436   15.2161 C.3       1 RES1    0.0000
     17 C15        2.5051    2.2831   15.8323 C.3       1 RES1    0.0000
     18 N2         2.9306    1.3508   14.7321 N.pl3     1 RES1    0.0000
     19 O2         3.0507    0.0953   14.9561 O.2       1 RES1    0.0000
     20 C16        4.3062    4.0839   15.5321 C.3       1 RES1    0.0000
     21 C17        1.9191    4.7706   15.4890 C.3       1 RES1    0.0000
     22 C18        1.0093    2.0645   15.9816 C.3       1 RES1    0.0000
     23 C19        3.2056    1.9318   17.1106 C.3       1 RES1    0.0000
     24 C20        6.4666   -3.5655    7.5147 C.2       1 RES1    0.0000
     25 N3         6.3604   -4.5013    8.4784 N.pl3     1 RES1    0.0000
     26 O3         5.5839   -4.4792    9.4916 O.2       1 RES1    0.0000
     27 C21        7.4106   -5.5676    8.3276 C.3       1 RES1    0.0000
     28 C22        7.7383   -5.4242    6.8310 C.3       1 RES1    0.0000
     29 N4         7.3927   -3.9804    6.6184 N.pl3     1 RES1    0.0000
     30 O4         7.8446   -3.3243    5.6231 O.2       1 RES1    0.0000
     31 C23        8.5498   -5.1529    9.2540 C.3       1 RES1    0.0000
     32 C24        6.8453   -6.9164    8.7298 C.3       1 RES1    0.0000
     33 C25        9.1812   -5.6942    6.4547 C.3       1 RES1    0.0000
     34 C26        6.7992   -6.1955    5.9075 C.3       1 RES1    0.0000
     35 C27        4.8107    0.3155    4.9265 C.2       1 RES1    0.0000
     36 N5         4.4189    1.6022    4.7929 N.pl3     1 RES1    0.0000
     37 C28        4.6277    2.1297    3.4040 C.3       1 RES1    0.0000
     38 C29        4.7621    0.8110    2.6097 C.3       1 RES1    0.0000
     39 N6         5.1299   -0.1474    3.6985 N.pl3     1 RES1    0.0000
     40 O5         4.0820    2.4054    5.7279 O.2       1 RES1    0.0000
     41 O6         5.5431   -1.3157    3.4011 O.2       1 RES1    0.0000
     42 C30        5.8981    2.9577    3.4643 C.3       1 RES1    0.0000
     43 C31        3.4661    3.0142    2.9947 C.3       1 RES1    0.0000
     44 C32        3.4493    0.2903    2.0381 C.3       1 RES1    0.0000
     45 C33        5.8459    0.8153    1.5469 C.3       1 RES1    0.0000
     46 H1         5.2820   -2.2172    9.4508 H         1 RES1    0.0000
     47 H2         5.9091   -2.0492    5.4364 H         1 RES1    0.0000
     48 H3         3.9534    0.9670    7.3351 H         1 RES1    0.0000
     49 H4         4.5243    2.0148    9.3029 H         1 RES1    0.0000
     50 H5         3.8976    3.0385   11.2835 H         1 RES1    0.0000
     51 H6         2.8687   -0.5746   12.8002 H         1 RES1    0.0000
     52 H7         3.4289   -1.5735   10.7851 H         1 RES1    0.0000
     53 H8         4.3713    4.3147   16.4513 H         1 RES1    0.0000
     54 H9         4.9061    3.3704   15.3425 H         1 RES1    0.0000
     55 H10        4.5325    4.8365   14.9992 H         1 RES1    0.0000
     56 H11        1.9260    4.9724   16.4183 H         1 RES1    0.0000
     57 H12        2.1841    5.5370   14.9963 H         1 RES1    0.0000
     58 H13        1.0429    4.5128   15.2276 H         1 RES1    0.0000
     59 H14        0.6734    2.6297   16.6682 H         1 RES1    0.0000
     60 H15        0.5752    2.2706   15.1615 H         1 RES1    0.0000
     61 H16        0.8420    1.1576   16.2086 H         1 RES1    0.0000
     62 H17        2.9285    2.5271   17.7971 H         1 RES1    0.0000
     63 H18        2.9868    1.0399   17.3576 H         1 RES1    0.0000
     64 H19        4.1447    2.0043   16.9885 H         1 RES1    0.0000
     65 H20        9.2491   -5.7939    9.2023 H         1 RES1    0.0000
     66 H21        8.8790   -4.3021    8.9883 H         1 RES1    0.0000
     67 H22        8.2299   -5.1053   10.1474 H         1 RES1    0.0000
     68 H23        7.5161   -7.5826    8.6307 H         1 RES1    0.0000
     69 H24        6.5623   -6.8837    9.6361 H         1 RES1    0.0000
     70 H25        6.1051   -7.1286    8.1739 H         1 RES1    0.0000
     71 H26        9.3799   -6.6116    6.5955 H         1 RES1    0.0000
     72 H27        9.3146   -5.4778    5.5383 H         1 RES1    0.0000
     73 H28        9.7543   -5.1593    6.9919 H         1 RES1    0.0000
     74 H29        6.9658   -7.1270    5.9922 H         1 RES1    0.0000
     75 H30        5.8989   -6.0124    6.1473 H         1 RES1    0.0000
     76 H31        6.9489   -5.9272    5.0084 H         1 RES1    0.0000
     77 H32        6.0827    3.3197    2.6054 H         1 RES1    0.0000
     78 H33        5.7866    3.6648    4.0891 H         1 RES1    0.0000
     79 H34        6.6221    2.4054    3.7372 H         1 RES1    0.0000
     80 H35        3.6108    3.3409    2.1142 H         1 RES1    0.0000
     81 H36        2.6610    2.5088    3.0162 H         1 RES1    0.0000
     82 H37        3.3969    3.7456    3.5965 H         1 RES1    0.0000
     83 H38        3.1607    0.8620    1.3358 H         1 RES1    0.0000
     84 H39        3.5769   -0.5879    1.6991 H         1 RES1    0.0000
     85 H40        2.7903    0.2741    2.7218 H         1 RES1    0.0000
     86 H41        5.6112    1.4236    0.8560 H         1 RES1    0.0000
     87 H42        6.6704    1.0803    1.9376 H         1 RES1    0.0000
     88 H43        5.9348   -0.0579    1.1835 H         1 RES1    0.0000
@<TRIPOS>BOND
     1    1    2 ar
     2    2    3 ar
     3    3    4 ar
     4    4    5 ar
     5    5    6 ar
     6    6    1 ar
     7    7    1 1
     8    8    7 ar
     9    9    8 ar
    10   10    9 ar
    11   11   10 ar
    12   12    7 ar
    13   13   10 1
    14   14   13 2
    15   15   14 1
    16   16   14 1
    17   17   16 1
    18   18   13 1
    19   19   18 2
    20   20   16 1
    21   21   16 1
    22   22   17 1
    23   23   17 1
    24   24    3 1
    25   25   24 2
    26   26   25 1
    27   27   25 1
    28   28   27 1
    29   29   24 1
    30   30   29 2
    31   31   27 1
    32   32   27 1
    33   33   28 1
    34   34   28 1
    35   35    5 1
    36   36   35 2
    37   37   36 1
    38   38   37 1
    39   39   35 1
    40   40   36 1
    41   41   39 2
    42   42   37 1
    43   43   37 1
    44   44   38 1
    45   45   38 1
    46   46    2 1
    47   47    4 1
    48   48    6 1
    49   49    8 1
    50   50    9 1
    51   51   11 1
    52   52   12 1
    53   53   20 1
    54   54   20 1
    55   55   20 1
    56   56   21 1
    57   57   21 1
    58   58   21 1
    59   59   22 1
    60   60   22 1
    61   61   22 1
    62   62   23 1
    63   63   23 1
    64   64   23 1
    65   65   31 1
    66   66   31 1
    67   67   31 1
    68   68   32 1
    69   69   32 1
    70   70   32 1
    71   71   33 1
    72   72   33 1
    73   73   33 1
    74   74   34 1
    75   75   34 1
    76   76   34 1
    77   77   42 1
    78   78   42 1
    79   79   42 1
    80   80   43 1
    81   81   43 1
    82   82   43 1
    83   83   44 1
    84   84   44 1
    85   85   44 1
    86   86   45 1
    87   87   45 1
    88   88   45 1
    89   11   12 ar
    90   17   18 1
    91   28   29 1
    92   38   39 1
@<TRIPOS>SUBSTRUCTURE
     1 RES1 1

@<TRIPOS>CRYSIN
   9.7414   12.3791   15.3726 104.5670  98.4770 110.6900   2 1

