# MOL2 file generated by ConQuest
# Please check atom types

@<TRIPOS>MOLECULE
LANMAP
    43    45     1
SMALL
NO_CHARGES
****
Generated from CSD

@<TRIPOS>ATOM
      1 O1         3.8261    2.1189    3.6264 O.3       1 RES1    0.0000
      2 O2         3.7940    4.0939    2.5965 O.2       1 RES1    0.0000
      3 O3         5.1058    1.8485    0.2937 O.3       1 RES1    0.0000
      4 O4         6.6149    0.9600    2.1396 O.3       1 RES1    0.0000
      5 N1         7.5646    0.3237    2.9794 N.2       1 RES1    0.0000
      6 N2         8.3672    0.5536    0.8914 N.2       1 RES1    0.0000
      7 C1         4.5472    2.7083    4.7210 C.3       1 RES1    0.0000
      8 H1         4.7114    2.0418    5.3919 H         1 RES1    0.0000
      9 H2         4.0285    3.4218    5.0994 H         1 RES1    0.0000
     10 H3         5.3841    3.0551    4.4030 H         1 RES1    0.0000
     11 C2         3.5108    2.9175    2.6190 C.2       1 RES1    0.0000
     12 C3         2.7492    2.2160    1.5362 C.3       1 RES1    0.0000
     13 H4         1.8018    2.2637    1.7363 H         1 RES1    0.0000
     14 H5         3.0038    1.2798    1.5287 H         1 RES1    0.0000
     15 C4         2.9919    2.7998    0.1740 C.ar      1 RES1    0.0000
     16 C5         2.0538    3.5594   -0.5058 C.ar      1 RES1    0.0000
     17 H6         1.2277    3.7201   -0.1095 H         1 RES1    0.0000
     18 C6         2.3146    4.0836   -1.7514 C.ar      1 RES1    0.0000
     19 H7         1.6630    4.5736   -2.1968 H         1 RES1    0.0000
     20 C7         3.5318    3.8808   -2.3272 C.ar      1 RES1    0.0000
     21 H8         3.7141    4.2466   -3.1631 H         1 RES1    0.0000
     22 C8         4.4934    3.1371   -1.6806 C.ar      1 RES1    0.0000
     23 H9         5.3232    2.9947   -2.0779 H         1 RES1    0.0000
     24 C9         4.2169    2.6065   -0.4412 C.ar      1 RES1    0.0000
     25 C10        6.4347    1.7205   -0.1448 C.3       1 RES1    0.0000
     26 H10        6.8142    2.5938   -0.3284 H         1 RES1    0.0000
     27 H11        6.4721    1.1899   -0.9568 H         1 RES1    0.0000
     28 C11        7.1872    1.0507    0.9431 C.2       1 RES1    0.0000
     29 C12        8.5658    0.0994    2.1860 C.2       1 RES1    0.0000
     30 C13        9.8234   -0.5401    2.5984 C.ar      1 RES1    0.0000
     31 C14       10.8972   -0.4287    1.7274 C.ar      1 RES1    0.0000
     32 H12       10.7865    0.0422    0.9323 H         1 RES1    0.0000
     33 C15       12.1182   -0.9935    2.0041 C.ar      1 RES1    0.0000
     34 H13       12.8244   -0.9060    1.4060 H         1 RES1    0.0000
     35 C16       12.2813   -1.6934    3.1827 C.ar      1 RES1    0.0000
     36 H14       13.0990   -2.0879    3.3858 H         1 RES1    0.0000
     37 C17       11.2257   -1.8024    4.0541 C.ar      1 RES1    0.0000
     38 H15       11.3545   -2.2645    4.8503 H         1 RES1    0.0000
     39 C18        9.9805   -1.2567    3.8029 C.ar      1 RES1    0.0000
     40 C19        8.8858   -1.4739    4.8010 C.3       1 RES1    0.0000
     41 H16        9.2256   -1.9774    5.5448 H         1 RES1    0.0000
     42 H17        8.1673   -1.9591    4.3879 H         1 RES1    0.0000
     43 H18        8.5612   -0.6252    5.1107 H         1 RES1    0.0000
@<TRIPOS>BOND
     1    1    7 1
     2    2   11 2
     3    3   24 1
     4    4    5 1
     5    5   29 2
     6    6   28 2
     7    7    8 1
     8    9    7 1
     9   10    7 1
    10   11    1 1
    11   12   11 1
    12   13   12 1
    13   14   12 1
    14   15   12 1
    15   16   15 ar
    16   17   16 1
    17   18   16 ar
    18   19   18 1
    19   20   18 ar
    20   21   20 1
    21   22   20 ar
    22   23   22 1
    23   24   15 ar
    24   25    3 1
    25   26   25 1
    26   27   25 1
    27   28    4 1
    28   29    6 1
    29   30   29 1
    30   31   30 ar
    31   32   31 1
    32   33   31 ar
    33   34   33 1
    34   35   33 ar
    35   36   35 1
    36   37   35 ar
    37   38   37 1
    38   39   30 ar
    39   40   39 1
    40   41   40 1
    41   42   40 1
    42   43   40 1
    43   22   24 ar
    44   25   28 1
    45   37   39 ar
@<TRIPOS>SUBSTRUCTURE
     1 RES1 1

@<TRIPOS>CRYSIN
  11.4440    7.9540   19.3560  90.0000 102.8300  90.0000  14 1

