# MOL2 file generated by ConQuest
# Please check atom types

@<TRIPOS>MOLECULE
LANNUL
    39    40     1
SMALL
NO_CHARGES
****
Generated from CSD

@<TRIPOS>ATOM
      1 C1         0.4289    0.6418    5.6059 C.2       1 RES1    0.0000
      2 C2         1.1202   -0.2518    2.2700 C.ar      1 RES1    0.0000
      3 C3         1.5799    0.3832    1.1085 C.ar      1 RES1    0.0000
      4 C4         1.7161   -0.3499   -0.0659 C.ar      1 RES1    0.0000
      5 H1         2.0177    0.0754   -0.8595 H         1 RES1    0.0000
      6 C5         1.4097   -1.7110   -0.0769 C.ar      1 RES1    0.0000
      7 H2         1.4925   -2.2074   -0.8830 H         1 RES1    0.0000
      8 C6         0.9860   -2.3424    1.0802 C.ar      1 RES1    0.0000
      9 H3         0.8048   -3.2750    1.0731 H         1 RES1    0.0000
     10 C7         0.8265   -1.6129    2.2502 C.ar      1 RES1    0.0000
     11 H4         0.5166   -2.0428    3.0391 H         1 RES1    0.0000
     12 C8         2.3734    2.3889    0.0961 C.3       1 RES1    0.0000
     13 H5         3.1422    1.8995   -0.2636 H         1 RES1    0.0000
     14 H6         2.6506    3.2942    0.3499 H         1 RES1    0.0000
     15 H7         1.6715    2.4420   -0.5861 H         1 RES1    0.0000
     16 C9        -0.2807    3.9994    4.8777 C.ar      1 RES1    0.0000
     17 C10       -0.2606    4.7893    3.7143 C.ar      1 RES1    0.0000
     18 C11       -0.6806    6.1174    3.7863 C.ar      1 RES1    0.0000
     19 H8        -0.6787    6.6576    3.0048 H         1 RES1    0.0000
     20 C12       -1.1009    6.6512    4.9956 C.ar      1 RES1    0.0000
     21 H9        -1.3915    7.5541    5.0364 H         1 RES1    0.0000
     22 C13       -1.1003    5.8759    6.1474 C.ar      1 RES1    0.0000
     23 H10       -1.3764    6.2530    6.9739 H         1 RES1    0.0000
     24 C14       -0.6959    4.5505    6.0905 C.ar      1 RES1    0.0000
     25 H11       -0.7019    4.0184    6.8769 H         1 RES1    0.0000
     26 C15        0.1354    4.9401    1.3757 C.3       1 RES1    0.0000
     27 H12       -0.7904    5.2074    1.1937 H         1 RES1    0.0000
     28 H13        0.4705    4.3960    0.6321 H         1 RES1    0.0000
     29 H14        0.6931    5.7400    1.4720 H         1 RES1    0.0000
     30 N1         0.0388    1.9281    5.7835 N.2       1 RES1    0.0000
     31 N2         0.1594    2.6665    4.7330 N.2       1 RES1    0.0000
     32 N3         0.7870   -0.0759    4.5510 N.2       1 RES1    0.0000
     33 N4         0.9202    0.5438    3.4154 N.pl3     1 RES1    0.0000
     34 N5         0.3558   -0.1568    6.8350 N.pl3     1 RES1    0.0000
     35 O1        -0.2121    0.3315    7.8159 O.2       1 RES1    0.0000
     36 O2         0.8658   -1.2751    6.8337 O.2       1 RES1    0.0000
     37 O3         1.8703    1.7058    1.2445 O.3       1 RES1    0.0000
     38 O4         0.1828    4.1760    2.5857 O.3       1 RES1    0.0000
     39 H15        0.7523    1.6269    3.4889 H         1 RES1    0.0000
@<TRIPOS>BOND
     1    1   30 1
     2    2    3 ar
     3    3    4 ar
     4    4    5 1
     5    6    4 ar
     6    7    6 1
     7    8    6 ar
     8    9    8 1
     9   10    2 ar
    10   11   10 1
    11   12   13 1
    12   14   12 1
    13   15   12 1
    14   16   17 ar
    15   17   18 ar
    16   18   19 1
    17   20   18 ar
    18   21   20 1
    19   22   20 ar
    20   23   22 1
    21   24   16 ar
    22   25   24 1
    23   26   27 1
    24   28   26 1
    25   29   26 1
    26   30   31 2
    27   31   16 1
    28   32    1 2
    29   33    2 1
    30   34    1 1
    31   35   34 2
    32   36   34 2
    33   37    3 1
    34   38   17 1
    35   39   33 1
    36    8   10 ar
    37   12   37 1
    38   22   24 ar
    39   26   38 1
    40   32   33 1
@<TRIPOS>SUBSTRUCTURE
     1 RES1 1

@<TRIPOS>CRYSIN
   7.2025   10.9574   11.2190 117.1880  91.4160 107.2510   2 1

