# MOL2 file generated by ConQuest
# Please check atom types

@<TRIPOS>MOLECULE
LANVII
    78    81     1
SMALL
USER_CHARGES
****
Generated from CSD

@<TRIPOS>ATOM
      1 O1         7.3625    9.4439    4.6164 O.2       1 RES1   -1.0000
      2 N1         4.1301    7.9836    6.3498 N.pl3     1 RES1    0.0000
      3 N2         5.1908    8.9558    7.9682 N.pl3     1 RES1    1.0000
      4 N3         5.4274    8.4217    4.4190 N.2       1 RES1    0.0000
      5 N4         6.5278    8.8688    3.8818 N.2       1 RES1    0.0000
      6 C1         4.1091    8.2015    7.6914 C.2       1 RES1    0.0000
      7 C2         5.2565    8.5964    5.7816 C.2       1 RES1    0.0000
      8 C3         5.9150    9.2071    6.8078 C.2       1 RES1    0.0000
      9 H1         6.7182    9.7103    6.7423 H         1 RES1    0.0000
     10 C4         3.1036    7.7329    8.6549 C.ar      1 RES1    0.0000
     11 C5         2.3452    6.5799    8.4264 C.ar      1 RES1    0.0000
     12 H2         2.4945    6.0650    7.6421 H         1 RES1    0.0000
     13 C6         1.3789    6.1841    9.3341 C.ar      1 RES1    0.0000
     14 H3         0.8636    5.4048    9.1614 H         1 RES1    0.0000
     15 C7         1.1535    6.9096   10.4896 C.ar      1 RES1    0.0000
     16 H4         0.4899    6.6318   11.1098 H         1 RES1    0.0000
     17 C8         1.9030    8.0385   10.7304 C.ar      1 RES1    0.0000
     18 H5         1.7619    8.5356   11.5275 H         1 RES1    0.0000
     19 C9         2.8599    8.4565    9.8221 C.ar      1 RES1    0.0000
     20 H6         3.3575    9.2469    9.9959 H         1 RES1    0.0000
     21 C10        3.2746    7.0822    5.6035 C.ar      1 RES1    0.0000
     22 C11        3.7603    5.7888    5.3726 C.ar      1 RES1    0.0000
     23 C12        2.9257    4.9052    4.6941 C.ar      1 RES1    0.0000
     24 H7         3.2162    4.0159    4.5291 H         1 RES1    0.0000
     25 C13        1.6787    5.3103    4.2588 C.ar      1 RES1    0.0000
     26 H8         1.1188    4.6941    3.8015 H         1 RES1    0.0000
     27 C14        1.2353    6.6021    4.4806 C.ar      1 RES1    0.0000
     28 H9         0.3818    6.8653    4.1582 H         1 RES1    0.0000
     29 C15        2.0221    7.5214    5.1685 C.ar      1 RES1    0.0000
     30 C16        1.5330    8.9432    5.4115 C.3       1 RES1    0.0000
     31 H10        1.9261    9.2596    6.2750 H         1 RES1    0.0000
     32 C17        0.0181    9.0406    5.5240 C.3       1 RES1    0.0000
     33 H11       -0.3914    8.7583    4.6796 H         1 RES1    0.0000
     34 H12       -0.2364    9.9678    5.7160 H         1 RES1    0.0000
     35 H13       -0.2942    8.4599    6.2488 H         1 RES1    0.0000
     36 C18        2.0274    9.8729    4.3019 C.3       1 RES1    0.0000
     37 H14        3.0053    9.8389    4.2592 H         1 RES1    0.0000
     38 H15        1.7400   10.7903    4.4935 H         1 RES1    0.0000
     39 H16        1.6517    9.5854    3.4440 H         1 RES1    0.0000
     40 C19        5.1168    5.3287    5.8595 C.3       1 RES1    0.0000
     41 H17        5.5787    6.1146    6.2706 H         1 RES1    0.0000
     42 C20        4.9945    4.2462    6.9270 C.3       1 RES1    0.0000
     43 H18        4.5155    4.6054    7.7030 H         1 RES1    0.0000
     44 H19        5.8886    3.9546    7.2010 H         1 RES1    0.0000
     45 H20        4.4991    3.4828    6.5626 H         1 RES1    0.0000
     46 C21        5.9747    4.8343    4.7062 C.3       1 RES1    0.0000
     47 H21        5.5538    4.0469    4.3006 H         1 RES1    0.0000
     48 H22        6.8637    4.5929    5.0402 H         1 RES1    0.0000
     49 H23        6.0585    5.5420    4.0342 H         1 RES1    0.0000
     50 C22        5.7379    9.3439    9.2575 C.ar      1 RES1    0.0000
     51 C23        6.5459    8.4220    9.9314 C.ar      1 RES1    0.0000
     52 C24        7.1612    8.8663   11.0980 C.ar      1 RES1    0.0000
     53 H24        7.7057    8.2677   11.5954 H         1 RES1    0.0000
     54 C25        6.9921   10.1656   11.5465 C.ar      1 RES1    0.0000
     55 H25        7.4314   10.4505   12.3394 H         1 RES1    0.0000
     56 C26        6.1899   11.0539   10.8492 C.ar      1 RES1    0.0000
     57 H26        6.0891   11.9435   11.1669 H         1 RES1    0.0000
     58 C27        5.5280   10.6591    9.6870 C.ar      1 RES1    0.0000
     59 C28        4.6161   11.6368    8.9489 C.3       1 RES1    0.0000
     60 H27        4.0761   11.1179    8.2862 H         1 RES1    0.0000
     61 C29        3.6518   12.3459    9.8934 C.3       1 RES1    0.0000
     62 H28        3.1636   11.6805   10.4217 H         1 RES1    0.0000
     63 H29        3.0165   12.8791    9.3716 H         1 RES1    0.0000
     64 H30        4.1561   12.9338   10.4938 H         1 RES1    0.0000
     65 C30        5.4336   12.6835    8.1817 C.3       1 RES1    0.0000
     66 H31        6.0282   13.1532    8.8032 H         1 RES1    0.0000
     67 H32        4.8269   13.3273    7.7603 H         1 RES1    0.0000
     68 H33        5.9684   12.2384    7.4915 H         1 RES1    0.0000
     69 C31        6.7848    7.0136    9.4294 C.3       1 RES1    0.0000
     70 H34        6.2149    6.8705    8.6200 H         1 RES1    0.0000
     71 C32        6.4010    5.9720   10.4706 C.3       1 RES1    0.0000
     72 H35        6.9880    6.0567   11.2499 H         1 RES1    0.0000
     73 H36        6.4961    5.0751   10.0855 H         1 RES1    0.0000
     74 H37        5.4705    6.1117   10.7449 H         1 RES1    0.0000
     75 C33        8.2392    6.8517    9.0189 C.3       1 RES1    0.0000
     76 H38        8.4769    7.5506    8.3744 H         1 RES1    0.0000
     77 H39        8.3667    5.9711    8.6076 H         1 RES1    0.0000
     78 H40        8.8126    6.9284    9.8101 H         1 RES1    0.0000
@<TRIPOS>BOND
     1    1    5 1
     2    2    6 1
     3    3    6 2
     4    4    5 2
     5    6   10 1
     6    7    2 1
     7    8    3 1
     8    9    8 1
     9   10   11 ar
    10   11   12 1
    11   13   11 ar
    12   14   13 1
    13   15   13 ar
    14   16   15 1
    15   17   15 ar
    16   18   17 1
    17   19   10 ar
    18   20   19 1
    19   21    2 1
    20   22   21 ar
    21   23   22 ar
    22   24   23 1
    23   25   23 ar
    24   26   25 1
    25   27   25 ar
    26   28   27 1
    27   29   21 ar
    28   30   29 1
    29   31   30 1
    30   32   30 1
    31   33   32 1
    32   34   32 1
    33   35   32 1
    34   36   30 1
    35   37   36 1
    36   38   36 1
    37   39   36 1
    38   40   22 1
    39   41   40 1
    40   42   40 1
    41   43   42 1
    42   44   42 1
    43   45   42 1
    44   46   40 1
    45   47   46 1
    46   48   46 1
    47   49   46 1
    48   50    3 1
    49   51   50 ar
    50   52   51 ar
    51   53   52 1
    52   54   52 ar
    53   55   54 1
    54   56   54 ar
    55   57   56 1
    56   58   50 ar
    57   59   58 1
    58   60   59 1
    59   61   59 1
    60   62   61 1
    61   63   61 1
    62   64   61 1
    63   65   59 1
    64   66   65 1
    65   67   65 1
    66   68   65 1
    67   69   51 1
    68   70   69 1
    69   71   69 1
    70   72   71 1
    71   73   71 1
    72   74   71 1
    73   75   69 1
    74   76   75 1
    75   77   75 1
    76   78   75 1
    77    4    7 1
    78    7    8 2
    79   17   19 ar
    80   27   29 ar
    81   56   58 ar
@<TRIPOS>SUBSTRUCTURE
     1 RES1 1

@<TRIPOS>CRYSIN
  10.6312   15.7365   18.2828  90.0000  90.0000  90.0000  19 1

