# MOL2 file generated by ConQuest
# Please check atom types

@<TRIPOS>MOLECULE
LANWUU
    33    34     1
SMALL
NO_CHARGES
****
Generated from CSD

@<TRIPOS>ATOM
      1 O1         1.3942   18.8031    1.4484 O.2       1 RES1    0.0000
      2 O2         2.8832   17.9109    0.2105 O.2       1 RES1    0.0000
      3 O3         2.6116    9.3088    1.6117 O.2       1 RES1    0.0000
      4 O4         5.9043    5.0676   -2.7525 O.2       1 RES1    0.0000
      5 O5         7.2177    6.6867   -3.2070 O.2       1 RES1    0.0000
      6 N1         2.0231   11.8093    0.7285 N.2       1 RES1    0.0000
      7 N2         2.6954   10.8627   -0.0309 N.am      1 RES1    0.0000
      8 N3         1.9316   17.8313    0.9493 N.pl3     1 RES1    0.0000
      9 N4         6.2261    6.2012   -2.6666 N.pl3     1 RES1    0.0000
     10 C1         1.5139   14.1430    0.9278 C.ar      1 RES1    0.0000
     11 C2         1.9557   15.4133    0.6065 C.ar      1 RES1    0.0000
     12 C3         1.4059   16.4960    1.2551 C.ar      1 RES1    0.0000
     13 C4         0.4004   16.3633    2.1821 C.ar      1 RES1    0.0000
     14 C5        -0.0208   15.0900    2.4982 C.ar      1 RES1    0.0000
     15 C6         0.5299   13.9988    1.8917 C.ar      1 RES1    0.0000
     16 C7         2.1270   12.9910    0.2603 C.2       1 RES1    0.0000
     17 C8         2.9816    9.6620    0.4974 C.2       1 RES1    0.0000
     18 C9         3.8265    8.7826   -0.3582 C.ar      1 RES1    0.0000
     19 C10        3.6699    7.4064   -0.2534 C.ar      1 RES1    0.0000
     20 C11        4.4612    6.5710   -1.0283 C.ar      1 RES1    0.0000
     21 C12        5.3993    7.1258   -1.8531 C.ar      1 RES1    0.0000
     22 C13        5.5938    8.4654   -1.9321 C.ar      1 RES1    0.0000
     23 C14        4.8041    9.2897   -1.1881 C.ar      1 RES1    0.0000
     24 H1         2.6141   15.5332   -0.0378 H         1 RES1    0.0000
     25 H2         2.9844   11.0288   -0.8771 H         1 RES1    0.0000
     26 H3         0.0166   17.1086    2.5833 H         1 RES1    0.0000
     27 H4        -0.6902   14.9728    3.1331 H         1 RES1    0.0000
     28 H5         0.2405   13.1462    2.1280 H         1 RES1    0.0000
     29 H6         2.6052   13.1251   -0.5266 H         1 RES1    0.0000
     30 H7         3.0418    7.0481    0.3307 H         1 RES1    0.0000
     31 H8         4.3543    5.6492   -0.9871 H         1 RES1    0.0000
     32 H9         6.2546    8.8169   -2.4845 H         1 RES1    0.0000
     33 H10        4.9275   10.2101   -1.2405 H         1 RES1    0.0000
@<TRIPOS>BOND
     1    1    8 2
     2    2    8 2
     3    3   17 2
     4    4    9 2
     5    5    9 2
     6    6    7 1
     7    7   17 1
     8    8   12 1
     9    9   21 1
    10   10   11 ar
    11   11   12 ar
    12   12   13 ar
    13   13   14 ar
    14   14   15 ar
    15   15   10 ar
    16   16    6 2
    17   17   18 1
    18   18   19 ar
    19   19   20 ar
    20   20   21 ar
    21   21   22 ar
    22   22   23 ar
    23   23   18 ar
    24   24   11 1
    25   25    7 1
    26   26   13 1
    27   27   14 1
    28   28   15 1
    29   29   16 1
    30   30   19 1
    31   31   20 1
    32   32   22 1
    33   33   23 1
    34   10   16 1
@<TRIPOS>SUBSTRUCTURE
     1 RES1 1

@<TRIPOS>CRYSIN
  11.8560   14.1160    8.6263  90.0000  95.1930  90.0000  14 1

