# MOL2 file generated by ConQuest
# Please check atom types

@<TRIPOS>MOLECULE
LAPCIQ
    30    30     1
SMALL
NO_CHARGES
****
Generated from CSD

@<TRIPOS>ATOM
      1 O1         6.4413    0.4681    3.2417 O.3       1 RES1    0.0000
      2 O2         5.8315    1.4120    0.6769 O.3       1 RES1    0.0000
      3 O3         5.6640    4.2542    0.3153 O.3       1 RES1    0.0000
      4 O4         7.0144    6.4716    1.6209 O.2       1 RES1    0.0000
      5 O5         5.1057    6.5141    2.6385 O.2       1 RES1    0.0000
      6 O6         7.3135    6.0659    4.5782 O.2       1 RES1    0.0000
      7 O7         6.6081    4.6298    6.0328 O.2       1 RES1    0.0000
      8 O8         8.0983    2.2627    5.6612 O.2       1 RES1    0.0000
      9 O9         6.0858    1.4949    5.9411 O.2       1 RES1    0.0000
     10 N1         6.1127    5.9549    2.2550 N.pl3     1 RES1    0.0000
     11 N2         6.8378    4.9879    4.8944 N.pl3     1 RES1    0.0000
     12 N3         6.9334    2.1054    5.3223 N.pl3     1 RES1    0.0000
     13 C1         6.2730    1.7861    2.9992 C.ar      1 RES1    0.0000
     14 C2         6.0081    2.2689    1.7117 C.ar      1 RES1    0.0000
     15 C3         5.9313    3.6547    1.4891 C.ar      1 RES1    0.0000
     16 C4         6.2198    4.5160    2.5412 C.ar      1 RES1    0.0000
     17 C5         6.5313    4.0449    3.8114 C.ar      1 RES1    0.0000
     18 C6         6.5370    2.6825    4.0267 C.ar      1 RES1    0.0000
     19 C7         5.2675   -0.3701    3.0955 C.3       1 RES1    0.0000
     20 H1         4.8719   -0.2259    2.2105 H         1 RES1    0.0000
     21 H2         4.6128   -0.1395    3.7869 H         1 RES1    0.0000
     22 H3         5.5234   -1.3107    3.1890 H         1 RES1    0.0000
     23 C8         7.0495    0.8522    0.1526 C.3       1 RES1    0.0000
     24 H4         6.8370    0.2376   -0.5797 H         1 RES1    0.0000
     25 H5         7.5179    0.3671    0.8622 H         1 RES1    0.0000
     26 H6         7.6217    1.5732   -0.1835 H         1 RES1    0.0000
     27 C9         4.7852    3.6427   -0.6551 C.3       1 RES1    0.0000
     28 H7         4.4395    4.3308   -1.2611 H         1 RES1    0.0000
     29 H8         4.0389    3.2095   -0.1917 H         1 RES1    0.0000
     30 H9         5.2831    2.9736   -1.1702 H         1 RES1    0.0000
@<TRIPOS>BOND
     1    1   13 1
     2    2   14 1
     3    3   15 1
     4    4   10 2
     5    5   10 2
     6    6   11 2
     7    7   11 2
     8    8   12 2
     9    9   12 2
    10   10   16 1
    11   11   17 1
    12   12   18 1
    13   13   14 ar
    14   14   15 ar
    15   15   16 ar
    16   16   17 ar
    17   17   18 ar
    18   18   13 ar
    19   19    1 1
    20   20   19 1
    21   21   19 1
    22   22   19 1
    23   23    2 1
    24   24   23 1
    25   25   23 1
    26   26   23 1
    27   27    3 1
    28   28   27 1
    29   29   27 1
    30   30   27 1
@<TRIPOS>SUBSTRUCTURE
     1 RES1 1

@<TRIPOS>CRYSIN
   8.1743   16.6121    9.0856  90.0000  90.0000  90.0000  33 1

