# MOL2 file generated by ConQuest
# Please check atom types

@<TRIPOS>MOLECULE
LAPHAM
    94    98     2
SMALL
NO_CHARGES
****
Generated from CSD

@<TRIPOS>ATOM
      1 C1         1.5676   18.3800    1.7195 C.3       1 RES1    0.0000
      2 H1         1.5085   18.3917    2.7175 H         1 RES1    0.0000
      3 C2         0.1559   18.4928    1.1126 C.3       1 RES1    0.0000
      4 H2         0.0232   19.3941    0.7234 H         1 RES1    0.0000
      5 H3        -0.5281   18.3485    1.8129 H         1 RES1    0.0000
      6 C3         0.0266   17.4134    0.0134 C.3       1 RES1    0.0000
      7 H4        -0.5970   16.6976    0.2938 H         1 RES1    0.0000
      8 H5        -0.2993   17.8100   -0.8335 H         1 RES1    0.0000
      9 C4         1.4365   16.8690   -0.1504 C.3       1 RES1    0.0000
     10 H6         1.9467   17.4051   -0.8085 H         1 RES1    0.0000
     11 H7         1.4174   15.9272   -0.4513 H         1 RES1    0.0000
     12 C5         2.0550   16.9830    1.2349 C.3       1 RES1    0.0000
     13 O1         1.3590   15.9571    2.0120 O.3       1 RES1    0.0000
     14 C6         1.8400   15.7700    3.3544 C.3       1 RES1    0.0000
     15 H8         1.6920   16.6111    3.8723 H         1 RES1    0.0000
     16 C7         3.3113   15.4429    3.3640 C.3       1 RES1    0.0000
     17 H9         3.4590   14.5750    2.9114 H         1 RES1    0.0000
     18 H10        3.6248   15.3572    4.2993 H         1 RES1    0.0000
     19 C8         4.1114   16.5266    2.6573 C.3       1 RES1    0.0000
     20 H11        4.0439   17.3776    3.1598 H         1 RES1    0.0000
     21 H12        5.0656   16.2652    2.6125 H         1 RES1    0.0000
     22 C9         3.5585   16.7074    1.2592 C.3       1 RES1    0.0000
     23 H13        3.7433   15.8879    0.7330 H         1 RES1    0.0000
     24 H14        4.0304   17.4602    0.8226 H         1 RES1    0.0000
     25 C10        0.9581   14.6643    3.9427 C.3       1 RES1    0.0000
     26 H15        0.0186   14.9406    3.9050 H         1 RES1    0.0000
     27 H16        1.2141   14.5043    4.8748 H         1 RES1    0.0000
     28 H17        1.0770   13.8400    3.4242 H         1 RES1    0.0000
     29 C11        2.5161   19.4841    1.2451 C.3       1 RES1    0.0000
     30 H18        3.3700   19.4491    1.7451 H         1 RES1    0.0000
     31 H19        2.7090   19.3862    0.2791 H         1 RES1    0.0000
     32 C12        2.5298   21.8657    1.4756 C.2       1 RES1    0.0000
     33 C13        1.6339   23.0587    1.6010 C.ar      1 RES1    0.0000
     34 C14        2.1980   24.3263    1.5332 C.ar      1 RES1    0.0000
     35 H20        3.1356   24.4214    1.4077 H         1 RES1    0.0000
     36 C15        1.4017   25.4548    1.6478 C.ar      1 RES1    0.0000
     37 H21        1.7773   26.3278    1.6094 H         1 RES1    0.0000
     38 C16        0.0478   25.2689    1.8181 C.ar      1 RES1    0.0000
     39 C17       -0.5461   24.0335    1.8705 C.ar      1 RES1    0.0000
     40 H22       -1.4855   23.9498    1.9807 H         1 RES1    0.0000
     41 C18        0.2602   22.9081    1.7579 C.ar      1 RES1    0.0000
     42 H23       -0.1252   22.0394    1.7880 H         1 RES1    0.0000
     43 N1        -0.8153   26.4678    1.9570 N.pl3     1 RES1    0.0000
     44 O2        -0.2828   27.5652    1.9845 O.2       1 RES1    0.0000
     45 O3        -2.0344   26.3003    2.0146 O.2       1 RES1    0.0000
     46 O4         3.7350   21.9129    1.3699 O.2       1 RES1    0.0000
     47 O5         1.8212   20.7348    1.5050 O.3       1 RES1    0.0000
     48 C19        2.4247   29.2126    4.9939 C.3       2 RES2    0.0000
     49 H24        3.2887   29.1697    5.4958 H         2 RES2    0.0000
     50 C20        2.6769   29.1096    3.4754 C.3       2 RES2    0.0000
     51 H25        2.5175   28.1831    3.1624 H         2 RES2    0.0000
     52 H26        3.6119   29.3584    3.2648 H         2 RES2    0.0000
     53 C21        1.6863   30.0938    2.7828 C.3       2 RES2    0.0000
     54 H27        2.1783   30.7970    2.2911 H         2 RES2    0.0000
     55 H28        1.0994   29.6100    2.1484 H         2 RES2    0.0000
     56 C22        0.8654   30.7027    3.9242 C.3       2 RES2    0.0000
     57 H29        0.6278   31.6421    3.7245 H         2 RES2    0.0000
     58 H30        0.0343   30.1878    4.0753 H         2 RES2    0.0000
     59 C23        1.7800   30.6213    5.1347 C.3       2 RES2    0.0000
     60 O6         2.7918   31.6146    4.8607 O.3       2 RES2    0.0000
     61 C24        3.7712   31.8300    5.8914 C.3       2 RES2    0.0000
     62 H31        4.3121   30.9975    6.0053 H         2 RES2    0.0000
     63 C25        3.1047   32.1681    7.2069 C.3       2 RES2    0.0000
     64 H32        2.6510   33.0454    7.1295 H         2 RES2    0.0000
     65 H33        3.7932   32.2396    7.9143 H         2 RES2    0.0000
     66 C26        2.0859   31.1032    7.5987 C.3       2 RES2    0.0000
     67 H34        2.5462   30.2467    7.7779 H         2 RES2    0.0000
     68 H35        1.6088   31.3788    8.4207 H         2 RES2    0.0000
     69 C27        1.1041   30.9350    6.4631 C.3       2 RES2    0.0000
     70 H36        0.5765   31.7679    6.3677 H         2 RES2    0.0000
     71 H37        0.4766   30.2035    6.6858 H         2 RES2    0.0000
     72 C28        4.6743   32.9377    5.3690 C.3       2 RES2    0.0000
     73 H38        5.0741   32.6602    4.5189 H         2 RES2    0.0000
     74 H39        5.3837   33.1161    6.0213 H         2 RES2    0.0000
     75 H40        4.1456   33.7529    5.2307 H         2 RES2    0.0000
     76 C29        1.4865   28.1128    5.4580 C.3       2 RES2    0.0000
     77 H41        1.2355   28.2499    6.4061 H         2 RES2    0.0000
     78 H42        0.6619   28.1084    4.9100 H         2 RES2    0.0000
     79 C30        1.4970   25.7449    5.1597 C.2       2 RES2    0.0000
     80 C31        2.3793   24.5378    5.0105 C.ar      2 RES2    0.0000
     81 C32        3.7373   24.6769    4.8595 C.ar      2 RES2    0.0000
     82 H43        4.1349   25.5417    4.8575 H         2 RES2    0.0000
     83 C33        4.5257   23.5362    4.7103 C.ar      2 RES2    0.0000
     84 H44        5.4674   23.6078    4.6040 H         2 RES2    0.0000
     85 C34        3.9096   22.2957    4.7193 C.ar      2 RES2    0.0000
     86 C35        2.5499   22.1424    4.8755 C.ar      2 RES2    0.0000
     87 H45        2.1529   21.2808    4.8703 H         2 RES2    0.0000
     88 C36        1.7773   23.2804    5.0393 C.ar      2 RES2    0.0000
     89 H46        0.8396   23.2029    5.1706 H         2 RES2    0.0000
     90 N2         4.7464   21.1004    4.5253 N.pl3     2 RES2    0.0000
     91 O7         4.1887   20.0289    4.3153 O.2       2 RES2    0.0000
     92 O8         5.9695   21.2293    4.5970 O.2       2 RES2    0.0000
     93 O9         0.2815   25.7009    5.1450 O.2       2 RES2    0.0000
     94 O10        2.2155   26.8589    5.2967 O.3       2 RES2    0.0000
@<TRIPOS>BOND
     1    1    2 1
     2    3    1 1
     3    4    3 1
     4    5    3 1
     5    6    3 1
     6    7    6 1
     7    8    6 1
     8    9    6 1
     9   10    9 1
    10   11    9 1
    11   12    1 1
    12   13   12 1
    13   14   13 1
    14   15   14 1
    15   16   14 1
    16   17   16 1
    17   18   16 1
    18   19   16 1
    19   20   19 1
    20   21   19 1
    21   22   12 1
    22   23   22 1
    23   24   22 1
    24   25   14 1
    25   26   25 1
    26   27   25 1
    27   28   25 1
    28   29    1 1
    29   30   29 1
    30   31   29 1
    31   32   33 1
    32   33   34 ar
    33   34   35 1
    34   36   34 ar
    35   37   36 1
    36   38   36 ar
    37   39   38 ar
    38   40   39 1
    39   41   33 ar
    40   42   41 1
    41   43   38 1
    42   44   43 2
    43   45   43 2
    44   46   32 2
    45   47   29 1
    46   48   49 1
    47   50   48 1
    48   51   50 1
    49   52   50 1
    50   53   50 1
    51   54   53 1
    52   55   53 1
    53   56   53 1
    54   57   56 1
    55   58   56 1
    56   59   48 1
    57   60   59 1
    58   61   60 1
    59   62   61 1
    60   63   61 1
    61   64   63 1
    62   65   63 1
    63   66   63 1
    64   67   66 1
    65   68   66 1
    66   69   59 1
    67   70   69 1
    68   71   69 1
    69   72   61 1
    70   73   72 1
    71   74   72 1
    72   75   72 1
    73   76   48 1
    74   77   76 1
    75   78   76 1
    76   79   80 1
    77   80   81 ar
    78   81   82 1
    79   83   81 ar
    80   84   83 1
    81   85   83 ar
    82   86   85 ar
    83   87   86 1
    84   88   80 ar
    85   89   88 1
    86   90   85 1
    87   91   90 2
    88   92   90 2
    89   93   79 2
    90   94   76 1
    91    9   12 1
    92   19   22 1
    93   32   47 1
    94   39   41 ar
    95   56   59 1
    96   66   69 1
    97   79   94 1
    98   86   88 ar
@<TRIPOS>SUBSTRUCTURE
     1 RES1 1
     2 RES2 48

@<TRIPOS>CRYSIN
   6.8517   39.3070    7.0654  90.0000 115.0350  90.0000   4 1

