# MOL2 file generated by ConQuest
# Please check atom types

@<TRIPOS>MOLECULE
LAPTOM
   122   130     2
SMALL
NO_CHARGES
****
Generated from CSD

@<TRIPOS>ATOM
      1 O1        11.7685    0.5601   22.1380 O.3       1 RES1    0.0000
      2 N1        11.8278    0.3297   20.7070 N.3       1 RES1    0.0000
      3 C1        13.2200    0.7366   20.4038 C.3       1 RES1    0.0000
      4 H1        13.2698    1.7144   20.4377 H         1 RES1    0.0000
      5 C2        14.0626    0.1735   21.5500 C.3       1 RES1    0.0000
      6 H2        14.1522   -0.7917   21.4072 H         1 RES1    0.0000
      7 C3        13.0916    0.3818   22.7302 C.3       1 RES1    0.0000
      8 H3        13.3428    1.1980   23.2118 H         1 RES1    0.0000
      9 C4        13.6571    0.2866   19.0341 C.3       1 RES1    0.0000
     10 H4        14.6204    0.4410   18.9546 H         1 RES1    0.0000
     11 O2        13.4112   -1.0813   18.8189 O.3       1 RES1    0.0000
     12 C5        12.0094   -1.4116   19.0681 C.3       1 RES1    0.0000
     13 H5        11.4469   -0.8982   18.4672 H         1 RES1    0.0000
     14 H6        11.8641   -2.3529   18.8834 H         1 RES1    0.0000
     15 C6        11.6360   -1.1250   20.4462 C.3       1 RES1    0.0000
     16 H7        12.1880   -1.6444   21.0516 H         1 RES1    0.0000
     17 H8        10.7085   -1.3673   20.5932 H         1 RES1    0.0000
     18 O3        12.9959    1.0993   18.0781 O.3       1 RES1    0.0000
     19 N2        13.7176    1.0053   16.8212 N.3       1 RES1    0.0000
     20 C7        12.9173    0.2286   15.8952 C.3       1 RES1    0.0000
     21 H9        12.0342    0.6158   15.8117 H         1 RES1    0.0000
     22 H10       12.8247   -0.6822   16.2174 H         1 RES1    0.0000
     23 C8        13.6217    0.2400   14.5541 C.3       1 RES1    0.0000
     24 H11       14.4900   -0.1819   14.6447 H         1 RES1    0.0000
     25 H12       13.1030   -0.2753   13.9176 H         1 RES1    0.0000
     26 O4        13.7871    1.5379   14.0706 O.3       1 RES1    0.0000
     27 C9        14.4789    2.3421   14.9698 C.3       1 RES1    0.0000
     28 H13       14.5465    3.2409   14.6104 H         1 RES1    0.0000
     29 H14       15.3776    1.9969   15.0873 H         1 RES1    0.0000
     30 C10       13.7690    2.3876   16.3275 C.3       1 RES1    0.0000
     31 H15       14.2601    2.9495   16.9472 H         1 RES1    0.0000
     32 H16       12.8746    2.7449   16.2280 H         1 RES1    0.0000
     33 C11       15.4439    0.7462   21.6662 C.ar      1 RES1    0.0000
     34 C12       16.5323   -0.0233   21.2376 C.ar      1 RES1    0.0000
     35 H17       16.3836   -0.8665   20.8751 H         1 RES1    0.0000
     36 C13       17.8071    0.4500   21.3453 C.ar      1 RES1    0.0000
     37 H18       18.5154   -0.0724   21.0410 H         1 RES1    0.0000
     38 C14       18.0625    1.6576   21.8817 C.ar      1 RES1    0.0000
     39 H19       18.9400    1.9412   21.9973 H         1 RES1    0.0000
     40 C15       17.0326    2.4594   22.2515 C.ar      1 RES1    0.0000
     41 H20       17.2080    3.3133   22.5743 H         1 RES1    0.0000
     42 C16       15.7170    2.0154   22.1514 C.ar      1 RES1    0.0000
     43 H21       15.0195    2.5719   22.4109 H         1 RES1    0.0000
     44 C17       13.0937   -0.7977   23.7034 C.2       1 RES1    0.0000
     45 O5        13.7922   -1.7473   23.5134 O.2       1 RES1    0.0000
     46 N3        12.2984   -0.6989   24.7529 N.am      1 RES1    0.0000
     47 C18       11.3217    0.3477   25.0385 C.3       1 RES1    0.0000
     48 H22       10.4278    0.0215   24.8425 H         1 RES1    0.0000
     49 H23       11.4918    1.1160   24.4710 H         1 RES1    0.0000
     50 C19       11.4030    0.7492   26.4537 C.3       1 RES1    0.0000
     51 H24       10.7039    1.3949   26.6444 H         1 RES1    0.0000
     52 H25       12.2593    1.1771   26.6154 H         1 RES1    0.0000
     53 C20       11.2522   -0.4362   27.3836 C.3       1 RES1    0.0000
     54 H26       10.3648   -0.8168   27.2925 H         1 RES1    0.0000
     55 H27       11.3663   -0.1496   28.3041 H         1 RES1    0.0000
     56 C21       12.2988   -1.4780   27.0348 C.3       1 RES1    0.0000
     57 H28       13.1836   -1.1148   27.1950 H         1 RES1    0.0000
     58 H29       12.1835   -2.2554   27.6033 H         1 RES1    0.0000
     59 C22       12.1774   -1.8754   25.6331 C.3       1 RES1    0.0000
     60 H30       11.3207   -2.3026   25.4879 H         1 RES1    0.0000
     61 H31       12.8731   -2.5157   25.4168 H         1 RES1    0.0000
     62 O6        -1.9118    0.6289   22.6380 O.3       2 RES2    0.0000
     63 N4        -1.9363    0.3543   21.2115 N.3       2 RES2    0.0000
     64 C23       -0.5650    0.7480   20.8074 C.3       2 RES2    0.0000
     65 H32       -0.5043    1.7264   20.8197 H         2 RES2    0.0000
     66 C24        0.3256    0.1849   21.9249 C.3       2 RES2    0.0000
     67 H33        0.3961   -0.7845   21.8024 H         2 RES2    0.0000
     68 C25       -0.5429    0.4476   23.1443 C.3       2 RES2    0.0000
     69 H34       -0.2475    1.2710   23.5859 H         2 RES2    0.0000
     70 O7        -1.0045    1.0538   18.5370 O.3       2 RES2    0.0000
     71 C26       -0.2304    0.2615   19.4240 C.3       2 RES2    0.0000
     72 H35        0.7199    0.4273   19.2496 H         2 RES2    0.0000
     73 O8        -0.4893   -1.1202   19.2675 O.3       2 RES2    0.0000
     74 C27       -1.8680   -1.4451   19.6258 C.3       2 RES2    0.0000
     75 H36       -2.0207   -2.3936   19.4894 H         2 RES2    0.0000
     76 H37       -2.4740   -0.9574   19.0468 H         2 RES2    0.0000
     77 C28       -2.1561   -1.0975   21.0500 C.3       2 RES2    0.0000
     78 H38       -3.0722   -1.3237   21.2702 H         2 RES2    0.0000
     79 H39       -1.5669   -1.5929   21.6417 H         2 RES2    0.0000
     80 N5        -0.4633    0.9156   17.1890 N.3       2 RES2    0.0000
     81 C29       -1.4212    0.1502   16.4321 C.3       2 RES2    0.0000
     82 H40       -2.3009    0.5541   16.5019 H         2 RES2    0.0000
     83 H41       -1.4710   -0.7546   16.7786 H         2 RES2    0.0000
     84 C30       -0.9711    0.1293   14.9895 C.3       2 RES2    0.0000
     85 H42       -0.1171   -0.3243   14.9318 H         2 RES2    0.0000
     86 H43       -1.6118   -0.3776   14.4655 H         2 RES2    0.0000
     87 O9        -0.8459    1.4212   14.4371 O.3       2 RES2    0.0000
     88 C31        0.0104    2.1931   15.2137 C.3       2 RES2    0.0000
     89 H44        0.0607    3.0854   14.8344 H         2 RES2    0.0000
     90 H45        0.8994    1.8066   15.1847 H         2 RES2    0.0000
     91 C32       -0.4492    2.2973   16.6961 C.3       2 RES2    0.0000
     92 H46        0.1687    2.8388   17.2106 H         2 RES2    0.0000
     93 H47       -1.3343    2.6916   16.7548 H         2 RES2    0.0000
     94 C33        1.7256    0.7671   21.9417 C.ar      2 RES2    0.0000
     95 C34        2.7804    0.0191   21.3946 C.ar      2 RES2    0.0000
     96 H48        2.6068   -0.8180   21.0279 H         2 RES2    0.0000
     97 C35        4.0663    0.5050   21.3914 C.ar      2 RES2    0.0000
     98 H49        4.7514   -0.0126   21.0305 H         2 RES2    0.0000
     99 C36        4.3541    1.7276   21.9025 C.ar      2 RES2    0.0000
    100 H50        5.2295    2.0411   21.9157 H         2 RES2    0.0000
    101 C37        3.3411    2.4858   22.3943 C.ar      2 RES2    0.0000
    102 H51        3.5307    3.3355   22.7218 H         2 RES2    0.0000
    103 C38        2.0292    2.0208   22.4220 C.ar      2 RES2    0.0000
    104 H52        1.3531    2.5606   22.7666 H         2 RES2    0.0000
    105 C39       -0.5499   -0.7067   24.1644 C.2       2 RES2    0.0000
    106 O10        0.0339   -1.7234   23.9644 O.2       2 RES2    0.0000
    107 N6        -1.2172   -0.4751   25.3030 N.am      2 RES2    0.0000
    108 C40       -1.9854    0.7283   25.6663 C.3       2 RES2    0.0000
    109 H53       -1.9264    1.3793   24.9505 H         2 RES2    0.0000
    110 H54       -1.6064    1.1262   26.4653 H         2 RES2    0.0000
    111 C41       -3.4448    0.3752   25.9147 C.3       2 RES2    0.0000
    112 H55       -3.9226    1.1651   26.2176 H         2 RES2    0.0000
    113 H56       -3.8532    0.0784   25.0875 H         2 RES2    0.0000
    114 C42       -3.5698   -0.7091   26.9500 C.3       2 RES2    0.0000
    115 H57       -3.2537   -0.3788   27.8062 H         2 RES2    0.0000
    116 H58       -4.4998   -0.9604   27.0475 H         2 RES2    0.0000
    117 C43       -2.7686   -1.9053   26.5530 C.3       2 RES2    0.0000
    118 H59       -3.1372   -2.2811   25.7382 H         2 RES2    0.0000
    119 H60       -2.8311   -2.5785   27.2477 H         2 RES2    0.0000
    120 C44       -1.3036   -1.5552   26.3246 C.3       2 RES2    0.0000
    121 H61       -0.9027   -1.2560   27.1555 H         2 RES2    0.0000
    122 H62       -0.8209   -2.3385   26.0174 H         2 RES2    0.0000
@<TRIPOS>BOND
     1    1    2 1
     2    2    3 1
     3    3    4 1
     4    5    3 1
     5    6    5 1
     6    7    1 1
     7    8    7 1
     8    9    3 1
     9   10    9 1
    10   11    9 1
    11   12   11 1
    12   13   12 1
    13   14   12 1
    14   15    2 1
    15   16   15 1
    16   17   15 1
    17   18    9 1
    18   19   18 1
    19   20   19 1
    20   21   20 1
    21   22   20 1
    22   23   20 1
    23   24   23 1
    24   25   23 1
    25   26   23 1
    26   27   26 1
    27   28   27 1
    28   29   27 1
    29   30   19 1
    30   31   30 1
    31   32   30 1
    32   33    5 1
    33   34   33 ar
    34   35   34 1
    35   36   34 ar
    36   37   36 1
    37   38   36 ar
    38   39   38 1
    39   40   38 ar
    40   41   40 1
    41   42   33 ar
    42   43   42 1
    43   44    7 1
    44   45   44 2
    45   46   44 1
    46   47   46 1
    47   48   47 1
    48   49   47 1
    49   50   47 1
    50   51   50 1
    51   52   50 1
    52   53   50 1
    53   54   53 1
    54   55   53 1
    55   56   53 1
    56   57   56 1
    57   58   56 1
    58   59   46 1
    59   60   59 1
    60   61   59 1
    61   62   63 1
    62   63   64 1
    63   64   65 1
    64   66   64 1
    65   67   66 1
    66   68   62 1
    67   69   68 1
    68   70   71 1
    69   71   64 1
    70   72   71 1
    71   73   71 1
    72   74   73 1
    73   75   74 1
    74   76   74 1
    75   77   63 1
    76   78   77 1
    77   79   77 1
    78   80   70 1
    79   81   80 1
    80   82   81 1
    81   83   81 1
    82   84   81 1
    83   85   84 1
    84   86   84 1
    85   87   84 1
    86   88   87 1
    87   89   88 1
    88   90   88 1
    89   91   80 1
    90   92   91 1
    91   93   91 1
    92   94   66 1
    93   95   94 ar
    94   96   95 1
    95   97   95 ar
    96   98   97 1
    97   99   97 ar
    98  100   99 1
    99  101   99 ar
   100  102  101 1
   101  103   94 ar
   102  104  103 1
   103  105   68 1
   104  106  105 2
   105  107  105 1
   106  108  107 1
   107  109  108 1
   108  110  108 1
   109  111  108 1
   110  112  111 1
   111  113  111 1
   112  114  111 1
   113  115  114 1
   114  116  114 1
   115  117  114 1
   116  118  117 1
   117  119  117 1
   118  120  107 1
   119  121  120 1
   120  122  120 1
   121    5    7 1
   122   12   15 1
   123   27   30 1
   124   40   42 ar
   125   56   59 1
   126   66   68 1
   127   74   77 1
   128   88   91 1
   129  101  103 ar
   130  117  120 1
@<TRIPOS>SUBSTRUCTURE
     1 RES1 1
     2 RES2 62

@<TRIPOS>CRYSIN
  27.6550    5.9840   29.6810  90.0000 117.4300  90.0000  14 1

