# MOL2 file generated by ConQuest
# Please check atom types

@<TRIPOS>MOLECULE
LAPVEG
   100   104     4
SMALL
NO_CHARGES
****
Generated from CSD

@<TRIPOS>ATOM
      1 N1         9.1452    8.9583   14.0075 N.pl3     1 RES1    0.0000
      2 O1        13.9219    6.8487   12.0563 O.3       1 RES1    0.0000
      3 C1        10.3289    7.5609   12.3962 C.ar      1 RES1    0.0000
      4 H1         9.5254    7.3289   11.9924 H         1 RES1    0.0000
      5 C2        11.5427    8.6938   14.1285 C.ar      1 RES1    0.0000
      6 H2        11.5488    9.2192   14.8967 H         1 RES1    0.0000
      7 C3        11.5316    7.0843   11.9068 C.ar      1 RES1    0.0000
      8 C4        10.3543    8.3914   13.5017 C.ar      1 RES1    0.0000
      9 N2        11.4647    6.1861   10.7551 N.pl3     1 RES1    0.0000
     10 N3         9.1919   10.0144   14.8545 N.2       1 RES1    0.0000
     11 C5        12.7681    7.4021   12.4710 C.ar      1 RES1    0.0000
     12 C6        12.7083    8.2109   13.6077 C.ar      1 RES1    0.0000
     13 N4        13.9457    8.5783   14.2944 N.pl3     1 RES1    0.0000
     14 N5         7.9796   10.3358   15.1115 N.2       1 RES1    0.0000
     15 N6         7.1198    9.5189   14.4507 N.2       1 RES1    0.0000
     16 O2        10.4941    5.4802   10.6422 O.2       1 RES1    0.0000
     17 O3        14.8833    8.9646   13.6268 O.2       1 RES1    0.0000
     18 O4        13.9479    8.5042   15.5018 O.2       1 RES1    0.0000
     19 O5        12.3600    6.2358    9.9352 O.2       1 RES1    0.0000
     20 C7         7.8682    8.6893   13.7886 C.2       1 RES1    0.0000
     21 H3         7.5549    8.0069   13.2406 H         1 RES1    0.0000
     22 C8        14.6563    7.5591   11.0434 C.3       1 RES1    0.0000
     23 H4        14.1380    8.3120   10.7442 H         1 RES1    0.0000
     24 H5        14.8279    6.9733   10.3023 H         1 RES1    0.0000
     25 H6        15.4894    7.8660   11.4091 H         1 RES1    0.0000
     26 O6        13.8022    6.9778    5.1505 O.3       2 RES2    0.0000
     27 C9        11.5273    4.8935    7.1642 C.ar      2 RES2    0.0000
     28 H7        11.5501    4.3230    7.8984 H         2 RES2    0.0000
     29 N7         9.1320    4.6326    7.0663 N.pl3     2 RES2    0.0000
     30 C10       12.6826    5.4902    6.7087 C.ar      2 RES2    0.0000
     31 C11       12.7182    6.3089    5.5761 C.ar      2 RES2    0.0000
     32 N8        13.8808    5.2717    7.5313 N.pl3     2 RES2    0.0000
     33 C12       10.3134    5.9659    5.4047 C.ar      2 RES2    0.0000
     34 H8         9.5097    6.1464    4.9696 H         2 RES2    0.0000
     35 C13       11.4903    6.5021    4.9520 C.ar      2 RES2    0.0000
     36 C14       10.3394    5.1535    6.5183 C.ar      2 RES2    0.0000
     37 N9        11.4270    7.3271    3.7446 N.pl3     2 RES2    0.0000
     38 O7        14.5798    6.2376    7.7652 O.2       2 RES2    0.0000
     39 O8        14.0632    4.1515    7.9732 O.2       2 RES2    0.0000
     40 O9        10.4996    8.1206    3.6603 O.2       2 RES2    0.0000
     41 C15        7.8845    5.0930    7.0595 C.2       2 RES2    0.0000
     42 H9         7.5907    5.8503    6.6053 H         2 RES2    0.0000
     43 O10       12.2988    7.1710    2.8893 O.2       2 RES2    0.0000
     44 N10        7.1401    4.3185    7.7869 N.2       2 RES2    0.0000
     45 N11        9.1523    3.5313    7.8304 N.2       2 RES2    0.0000
     46 C16       14.9131    6.2141    4.6460 C.3       2 RES2    0.0000
     47 H10       14.8735    5.3232    5.0023 H         2 RES2    0.0000
     48 H11       15.7348    6.6312    4.9125 H         2 RES2    0.0000
     49 H12       14.8669    6.1780    3.6888 H         2 RES2    0.0000
     50 N12        7.9533    3.3553    8.2560 N.2       2 RES2    0.0000
     51 N13        5.3975    6.7070    3.1055 N.pl3     3 RES3    0.0000
     52 C17        5.0573    5.3620    1.1272 C.ar      3 RES3    0.0000
     53 H13        5.9579    5.1354    1.1190 H         3 RES3    0.0000
     54 C18        4.5358    6.1582    2.1293 C.ar      3 RES3    0.0000
     55 C19        3.1842    6.4560    2.1646 C.ar      3 RES3    0.0000
     56 H14        2.8346    6.9661    2.8567 H         3 RES3    0.0000
     57 C20        4.2077    4.9151    0.1428 C.ar      3 RES3    0.0000
     58 C21        4.9995    7.6972    3.9132 C.2       3 RES3    0.0000
     59 H15        4.1639    8.0998    3.9227 H         3 RES3    0.0000
     60 N14        7.0488    7.2152    4.3891 N.2       3 RES3    0.0000
     61 N15        5.9823    7.9834    4.6651 N.2       3 RES3    0.0000
     62 O11        2.0297    4.6371   -0.8009 O.3       3 RES3    0.0000
     63 C22        2.3763    5.9875    1.1612 C.ar      3 RES3    0.0000
     64 N16        4.8125    4.1099   -0.9042 N.pl3     3 RES3    0.0000
     65 N17        0.9657    6.3631    1.2251 N.pl3     3 RES3    0.0000
     66 C23        2.8524    5.2022    0.1074 C.ar      3 RES3    0.0000
     67 O12        0.3864    6.6537    0.2026 O.2       3 RES3    0.0000
     68 N18        6.6641    6.4199    3.4142 N.2       3 RES3    0.0000
     69 O13        0.4553    6.4118    2.3278 O.2       3 RES3    0.0000
     70 O14        4.6142    4.3437   -2.0232 O.2       3 RES3    0.0000
     71 O15        5.7322    3.3842   -0.6214 O.2       3 RES3    0.0000
     72 C24        1.8456    5.3412   -2.0395 C.3       3 RES3    0.0000
     73 H16        0.9895    5.7736   -2.0382 H         3 RES3    0.0000
     74 H17        1.8876    4.7202   -2.7710 H         3 RES3    0.0000
     75 H18        2.5346    6.0011   -2.1388 H         3 RES3    0.0000
     76 N19        5.5851    7.0004    9.7938 N.pl3     4 RES4    0.0000
     77 C25        4.6010    7.5492    8.9182 C.ar      4 RES4    0.0000
     78 C26        2.6362    8.6992    7.2988 C.ar      4 RES4    0.0000
     79 O16        1.6752    9.3140    6.5795 O.3       4 RES4    0.0000
     80 C27        3.2867    7.1827    9.0868 C.ar      4 RES4    0.0000
     81 H19        3.0486    6.5463    9.7231 H         4 RES4    0.0000
     82 C28        4.9739    8.4681    7.9569 C.ar      4 RES4    0.0000
     83 H20        5.8627    8.7101    7.8481 H         4 RES4    0.0000
     84 C29        3.9849    9.0215    7.1601 C.ar      4 RES4    0.0000
     85 C30        2.3344    7.7758    8.2995 C.ar      4 RES4    0.0000
     86 N20        0.9417    7.4589    8.6163 N.pl3     4 RES4    0.0000
     87 N21        4.4467   10.0208    6.1825 N.pl3     4 RES4    0.0000
     88 O17        3.7465   10.2049    5.1967 O.2       4 RES4    0.0000
     89 O18        0.6511    6.2809    8.7319 O.2       4 RES4    0.0000
     90 O19        5.4864   10.6012    6.4136 O.2       4 RES4    0.0000
     91 C31        5.4781    5.7799   10.3050 C.2       4 RES4    0.0000
     92 H21        4.8123    5.1643   10.1079 H         4 RES4    0.0000
     93 N22        7.2351    6.7088   11.1480 N.2       4 RES4    0.0000
     94 N23        6.6840    7.5727   10.3336 N.2       4 RES4    0.0000
     95 N24        6.4415    5.5967   11.1059 N.2       4 RES4    0.0000
     96 O20        0.1728    8.3869    8.7931 O.2       4 RES4    0.0000
     97 C32        1.0466    8.5521    5.5394 C.3       4 RES4    0.0000
     98 H22        1.6490    8.4600    4.7997 H         4 RES4    0.0000
     99 H23        0.2477    9.0034    5.2484 H         4 RES4    0.0000
    100 H24        0.8175    7.6819    5.8752 H         4 RES4    0.0000
@<TRIPOS>BOND
     1    1    8 1
     2    2   11 1
     3    3    4 1
     4    5    6 1
     5    7    3 ar
     6    8    3 ar
     7    9    7 1
     8   10    1 1
     9   11    7 ar
    10   12    5 ar
    11   13   12 1
    12   14   10 2
    13   15   14 1
    14   16    9 2
    15   17   13 2
    16   18   13 2
    17   19    9 2
    18   20    1 1
    19   21   20 1
    20   22    2 1
    21   23   22 1
    22   24   22 1
    23   25   22 1
    24   26   31 1
    25   27   28 1
    26   29   36 1
    27   30   27 ar
    28   31   30 ar
    29   32   30 1
    30   33   34 1
    31   35   31 ar
    32   36   27 ar
    33   37   35 1
    34   38   32 2
    35   39   32 2
    36   40   37 2
    37   41   29 1
    38   42   41 1
    39   43   37 2
    40   44   41 2
    41   45   29 1
    42   46   26 1
    43   47   46 1
    44   48   46 1
    45   49   46 1
    46   50   44 1
    47   51   54 1
    48   52   53 1
    49   54   52 ar
    50   55   54 ar
    51   56   55 1
    52   57   52 ar
    53   58   51 1
    54   59   58 1
    55   60   61 1
    56   61   58 2
    57   62   66 1
    58   63   55 ar
    59   64   57 1
    60   65   63 1
    61   66   57 ar
    62   67   65 2
    63   68   51 1
    64   69   65 2
    65   70   64 2
    66   71   64 2
    67   72   62 1
    68   73   72 1
    69   74   72 1
    70   75   72 1
    71   76   77 1
    72   77   80 ar
    73   78   79 1
    74   79   97 1
    75   80   81 1
    76   82   77 ar
    77   83   82 1
    78   84   78 ar
    79   85   78 ar
    80   86   85 1
    81   87   84 1
    82   88   87 2
    83   89   86 2
    84   90   87 2
    85   91   76 1
    86   92   91 1
    87   93   94 2
    88   94   76 1
    89   95   91 2
    90   96   86 2
    91   97   98 1
    92   99   97 1
    93  100   97 1
    94    5    8 ar
    95   11   12 ar
    96   15   20 2
    97   33   35 ar
    98   33   36 ar
    99   45   50 2
   100   60   68 2
   101   63   66 ar
   102   80   85 ar
   103   82   84 ar
   104   93   95 1
@<TRIPOS>SUBSTRUCTURE
     1 RES1 1
     2 RES2 26
     3 RES3 51
     4 RES4 76

@<TRIPOS>CRYSIN
  71.0270    9.0269   13.8125  90.0000 100.1380  90.0000  15 1

