# MOL2 file generated by ConQuest
# Please check atom types

@<TRIPOS>MOLECULE
LAPWUX
    25    26     1
SMALL
NO_CHARGES
****
Generated from CSD

@<TRIPOS>ATOM
      1 O1        10.7602    0.8355    1.2548 O.3       1 RES1    0.0000
      2 N1         8.2822    3.6609    4.1712 N.pl3     1 RES1    0.0000
      3 C1         9.5247    2.2649    2.7184 C.ar      1 RES1    0.0000
      4 H1         9.0976    1.5420    3.1178 H         1 RES1    0.0000
      5 O2         9.1372    6.1819    4.0742 O.2       1 RES1    0.0000
      6 C2        11.0208    3.1515    1.1082 C.ar      1 RES1    0.0000
      7 C3         9.2363    3.5278    3.1346 C.ar      1 RES1    0.0000
      8 N2        11.9720    3.0237    0.0167 N.pl3     1 RES1    0.0000
      9 C4        10.7334    4.4236    1.5284 C.ar      1 RES1    0.0000
     10 H2        11.1327    5.1526    1.1120 H         1 RES1    0.0000
     11 N3         9.7149    5.9778    3.0532 N.pl3     1 RES1    0.0000
     12 C5        10.4412    2.0400    1.7118 C.ar      1 RES1    0.0000
     13 C6         9.8625    4.6189    2.5589 C.ar      1 RES1    0.0000
     14 N4         7.1190    4.2998    4.0028 N.2       1 RES1    0.0000
     15 N5         6.5205    4.2528    5.1258 N.2       1 RES1    0.0000
     16 O3        12.0938    3.9665   -0.7206 O.2       1 RES1    0.0000
     17 O4        12.6229    2.0277   -0.0902 O.2       1 RES1    0.0000
     18 N6         7.2636    3.6096    6.0453 N.2       1 RES1    0.0000
     19 O5        10.2281    6.8558    2.4250 O.2       1 RES1    0.0000
     20 C7        10.1647   -0.3088    1.8728 C.3       1 RES1    0.0000
     21 H3        10.4788   -1.1064    1.4403 H         1 RES1    0.0000
     22 H4         9.2096   -0.2556    1.7919 H         1 RES1    0.0000
     23 H5        10.4055   -0.3334    2.8022 H         1 RES1    0.0000
     24 C8         8.3347    3.2578    5.4194 C.2       1 RES1    0.0000
     25 H6         9.0421    2.7875    5.7972 H         1 RES1    0.0000
@<TRIPOS>BOND
     1    1   12 1
     2    2    7 1
     3    3    4 1
     4    5   11 2
     5    6    8 1
     6    7    3 ar
     7    8   16 2
     8    9    6 ar
     9   10    9 1
    10   11   13 1
    11   12    3 ar
    12   13    7 ar
    13   14    2 1
    14   15   14 2
    15   17    8 2
    16   18   15 1
    17   19   11 2
    18   20    1 1
    19   21   20 1
    20   22   20 1
    21   23   20 1
    22   24    2 1
    23   25   24 1
    24    6   12 ar
    25    9   13 ar
    26   18   24 2
@<TRIPOS>SUBSTRUCTURE
     1 RES1 1

@<TRIPOS>CRYSIN
   9.9081   10.2255   21.1810  90.0000  90.0000  90.0000  61 1

