# MOL2 file generated by ConQuest
# Please check atom types

@<TRIPOS>MOLECULE
LAPWIL
    24    25     1
SMALL
NO_CHARGES
****
Generated from CSD

@<TRIPOS>ATOM
      1 N1        -6.0459   -1.5672   11.3701 N.pl3     1 RES1    0.0000
      2 C1        -3.4103    0.9255   10.9552 C.ar      1 RES1    0.0000
      3 C2        -4.4958    0.1336   10.6846 C.ar      1 RES1    0.0000
      4 H1        -4.9367    0.2006    9.8678 H         1 RES1    0.0000
      5 N2        -3.0521    1.8963    9.9269 N.pl3     1 RES1    0.0000
      6 O1        -2.7198    3.0074   10.2775 O.2       1 RES1    0.0000
      7 O2        -3.1290    1.5431    8.7752 O.2       1 RES1    0.0000
      8 N3        -6.0418   -2.8688   11.7221 N.2       1 RES1    0.0000
      9 C3        -4.9186   -0.7495   11.6236 C.ar      1 RES1    0.0000
     10 C4        -2.6911    0.8836   12.1305 C.ar      1 RES1    0.0000
     11 C5        -1.4489    1.6722   12.4063 C.3       1 RES1    0.0000
     12 H2        -1.6879    2.5285   12.7701 H         1 RES1    0.0000
     13 H3        -0.9606    1.7963   11.5895 H         1 RES1    0.0000
     14 H4        -0.9034    1.1983   13.0380 H         1 RES1    0.0000
     15 C6        -4.2541   -0.8669   12.8055 C.ar      1 RES1    0.0000
     16 H5        -4.5260   -1.4766   13.4543 H         1 RES1    0.0000
     17 C7        -3.1706   -0.0503   13.0025 C.ar      1 RES1    0.0000
     18 N4        -7.1732   -3.3305   11.3426 N.2       1 RES1    0.0000
     19 O3        -2.4757    0.7730   15.0039 O.2       1 RES1    0.0000
     20 N5        -2.5369   -0.1956   14.3184 N.pl3     1 RES1    0.0000
     21 N6        -7.9359   -2.3776   10.7739 N.2       1 RES1    0.0000
     22 C8        -7.2035   -1.3190   10.7844 C.2       1 RES1    0.0000
     23 H6        -7.4527   -0.4963   10.4285 H         1 RES1    0.0000
     24 O4        -2.1266   -1.2631   14.6231 O.2       1 RES1    0.0000
@<TRIPOS>BOND
     1    1    8 1
     2    2    3 ar
     3    3    4 1
     4    5    2 1
     5    6    5 2
     6    7    5 2
     7    8   18 2
     8    9    1 1
     9   10    2 ar
    10   11   10 1
    11   12   11 1
    12   13   11 1
    13   14   11 1
    14   15    9 ar
    15   16   15 1
    16   17   10 ar
    17   18   21 1
    18   19   20 2
    19   20   17 1
    20   21   22 2
    21   22    1 1
    22   23   22 1
    23   24   20 2
    24    3    9 ar
    25   15   17 ar
@<TRIPOS>SUBSTRUCTURE
     1 RES1 1

@<TRIPOS>CRYSIN
  13.8690    5.5890   14.8000  90.0000 117.4600  90.0000 231 1

