# MOL2 file generated by ConQuest
# Please check atom types

@<TRIPOS>MOLECULE
LAQGIU
    47    49     1
SMALL
NO_CHARGES
****
Generated from CSD

@<TRIPOS>ATOM
      1 N1        -4.9987    8.3114   11.9875 N.pl3     1 RES1    0.0000
      2 C1         0.9942    4.1841    7.4062 C.3       1 RES1    0.0000
      3 C2         0.6676    5.2124    6.3181 C.3       1 RES1    0.0000
      4 C3         0.4115    4.3780    5.0519 C.3       1 RES1    0.0000
      5 C4         1.1517    3.0496    5.2629 C.3       1 RES1    0.0000
      6 C5         1.8441    3.1364    6.6370 C.3       1 RES1    0.0000
      7 C6         2.4477    1.6711    8.4825 C.3       1 RES1    0.0000
      8 C7         3.9016    2.0633    8.3993 C.3       1 RES1    0.0000
      9 C8         4.0669    3.4702    7.8238 C.3       1 RES1    0.0000
     10 C9         3.2942    3.5720    6.5121 C.3       1 RES1    0.0000
     11 C10        2.2185    0.2342    8.9087 C.3       1 RES1    0.0000
     12 C11       -0.2655    3.5510    7.9677 C.3       1 RES1    0.0000
     13 C12       -2.0591    4.1879    9.3574 C.2       1 RES1    0.0000
     14 C13       -2.7802    5.2970   10.0494 C.ar      1 RES1    0.0000
     15 C14       -3.9485    4.9737   10.7340 C.ar      1 RES1    0.0000
     16 C15       -4.6730    5.9525   11.3730 C.ar      1 RES1    0.0000
     17 C16       -4.2103    7.2622   11.3186 C.ar      1 RES1    0.0000
     18 C17       -3.0592    7.6162   10.6505 C.ar      1 RES1    0.0000
     19 C18       -2.3423    6.6186   10.0050 C.ar      1 RES1    0.0000
     20 O1        -6.0706    7.9986   12.4996 O.2       1 RES1    0.0000
     21 O2        -4.5441    9.4459   12.0085 O.2       1 RES1    0.0000
     22 O3        -2.4225    3.0402    9.3904 O.2       1 RES1    0.0000
     23 O4        -0.9788    4.5998    8.6965 O.3       1 RES1    0.0000
     24 O5         1.7843    1.8149    7.2154 O.3       1 RES1    0.0000
     25 H1         1.5309    4.5725    8.1581 H         1 RES1    0.0000
     26 H2         1.4213    5.8074    6.2069 H         1 RES1    0.0000
     27 H3        -0.1014    5.7250    6.5752 H         1 RES1    0.0000
     28 H4        -0.6367    4.2208    4.9805 H         1 RES1    0.0000
     29 H5         0.7162    4.8120    4.2556 H         1 RES1    0.0000
     30 H6         1.8455    2.8962    4.6180 H         1 RES1    0.0000
     31 H7         0.4894    2.2750    5.3055 H         1 RES1    0.0000
     32 H8         1.9604    2.2451    9.1332 H         1 RES1    0.0000
     33 H9         4.3333    1.3770    7.8331 H         1 RES1    0.0000
     34 H10        4.3209    2.0056    9.2595 H         1 RES1    0.0000
     35 H11        4.9985    3.6595    7.7057 H         1 RES1    0.0000
     36 H12        3.6432    4.1310    8.5580 H         1 RES1    0.0000
     37 H13        3.3481    4.4603    6.2291 H         1 RES1    0.0000
     38 H14        3.7516    2.9860    5.8339 H         1 RES1    0.0000
     39 H15        1.2588    0.0000    8.9660 H         1 RES1    0.0000
     40 H16        2.6309    0.0000    9.8206 H         1 RES1    0.0000
     41 H17        2.6380   -0.4116    8.3125 H         1 RES1    0.0000
     42 H18       -0.8646    3.2629    7.2217 H         1 RES1    0.0000
     43 H19       -0.0624    2.8288    8.6024 H         1 RES1    0.0000
     44 H20       -4.1966    4.0412   10.8261 H         1 RES1    0.0000
     45 H21       -5.5068    5.8148   11.8082 H         1 RES1    0.0000
     46 H22       -2.7700    8.4940   10.6273 H         1 RES1    0.0000
     47 H23       -1.5585    6.8027    9.5482 H         1 RES1    0.0000
@<TRIPOS>BOND
     1    1   17 1
     2    2    3 1
     3    3    4 1
     4    4    5 1
     5    5    6 1
     6    6    2 1
     7    7    8 1
     8    8    9 1
     9    9   10 1
    10   10    6 1
    11   11    7 1
    12   12    2 1
    13   13   14 1
    14   14   15 ar
    15   15   16 ar
    16   16   17 ar
    17   17   18 ar
    18   18   19 ar
    19   19   14 ar
    20   20    1 2
    21   21    1 2
    22   22   13 2
    23   23   12 1
    24   24    6 1
    25   25    2 1
    26   26    3 1
    27   27    3 1
    28   28    4 1
    29   29    4 1
    30   30    5 1
    31   31    5 1
    32   32    7 1
    33   33    8 1
    34   34    8 1
    35   35    9 1
    36   36    9 1
    37   37   10 1
    38   38   10 1
    39   39   11 1
    40   40   11 1
    41   41   11 1
    42   42   12 1
    43   43   12 1
    44   44   15 1
    45   45   16 1
    46   46   18 1
    47   47   19 1
    48    7   24 1
    49   13   23 1
@<TRIPOS>SUBSTRUCTURE
     1 RES1 1

@<TRIPOS>CRYSIN
   9.6051    7.4837   11.8595  90.0000  99.6630  90.0000   4 1

