# MOL2 file generated by ConQuest
# Please check atom types

@<TRIPOS>MOLECULE
LAQHES
    35    37     1
SMALL
NO_CHARGES
****
Generated from CSD

@<TRIPOS>ATOM
      1 O1         5.8381    3.1866    4.9733 O.2       1 RES1    0.0000
      2 O2         6.6540   10.0986    5.1381 O.2       1 RES1    0.0000
      3 O3         4.7567   10.3263    4.1209 O.2       1 RES1    0.0000
      4 N1         3.7955    3.5731    4.0205 N.am      1 RES1    0.0000
      5 N2         3.0229    5.7442    3.4683 N.2       1 RES1    0.0000
      6 N3         5.6452    9.6408    4.6147 N.pl3     1 RES1    0.0000
      7 C1         4.1917    6.2535    4.0013 C.ar      1 RES1    0.0000
      8 C2         4.3469    7.6534    4.0177 C.ar      1 RES1    0.0000
      9 H1         3.6836    8.2228    3.6463 H         1 RES1    0.0000
     10 C3         5.4848    8.1696    4.5856 C.ar      1 RES1    0.0000
     11 C4         6.4985    7.3839    5.1314 C.ar      1 RES1    0.0000
     12 H2         7.2684    7.7846    5.5195 H         1 RES1    0.0000
     13 C5         6.3595    6.0123    5.0952 C.ar      1 RES1    0.0000
     14 H3         7.0428    5.4543    5.4468 H         1 RES1    0.0000
     15 C6         5.2071    5.4451    4.5384 C.ar      1 RES1    0.0000
     16 C7         5.0236    3.9897    4.5415 C.2       1 RES1    0.0000
     17 C8         2.8529    4.4622    3.5071 C.2       1 RES1    0.0000
     18 C9         1.5773    3.8863    2.9799 C.3       1 RES1    0.0000
     19 H4         0.9923    4.6109    2.6763 H         1 RES1    0.0000
     20 H5         1.1289    3.3804    3.6895 H         1 RES1    0.0000
     21 H6         1.7747    3.2895    2.2287 H         1 RES1    0.0000
     22 C10        3.4643    2.1625    4.1197 C.ar      1 RES1    0.0000
     23 C11        3.7119    1.3338    3.0333 C.ar      1 RES1    0.0000
     24 H7         4.1422    1.6720    2.2571 H         1 RES1    0.0000
     25 C12        3.3212    0.0031    3.0995 C.ar      1 RES1    0.0000
     26 H8         3.4514   -0.5706    2.3525 H         1 RES1    0.0000
     27 C13        2.7390   -0.4877    4.2622 C.ar      1 RES1    0.0000
     28 H9         2.4764   -1.3991    4.3143 H         1 RES1    0.0000
     29 C14        2.5408    0.3526    5.3468 C.ar      1 RES1    0.0000
     30 H10        2.1693   -0.0017    6.1465 H         1 RES1    0.0000
     31 C15        2.8721    1.7056    5.2931 C.ar      1 RES1    0.0000
     32 C16        2.5843    2.6241    6.4480 C.3       1 RES1    0.0000
     33 H11        3.3888    3.1406    6.6634 H         1 RES1    0.0000
     34 H12        2.3171    2.0937    7.2279 H         1 RES1    0.0000
     35 H13        1.8588    3.2365    6.2056 H         1 RES1    0.0000
@<TRIPOS>BOND
     1    1   16 2
     2    2    6 2
     3    3    6 2
     4    4   16 1
     5    5    7 1
     6    6   10 1
     7    7    8 ar
     8    8    9 1
     9   10    8 ar
    10   11   10 ar
    11   12   11 1
    12   13   11 ar
    13   14   13 1
    14   15    7 ar
    15   16   15 1
    16   17    4 1
    17   18   17 1
    18   19   18 1
    19   20   18 1
    20   21   18 1
    21   22    4 1
    22   23   22 ar
    23   24   23 1
    24   25   23 ar
    25   26   25 1
    26   27   25 ar
    27   28   27 1
    28   29   27 ar
    29   30   29 1
    30   31   22 ar
    31   32   31 1
    32   33   32 1
    33   34   32 1
    34   35   32 1
    35    5   17 2
    36   13   15 ar
    37   29   31 ar
@<TRIPOS>SUBSTRUCTURE
     1 RES1 1

@<TRIPOS>CRYSIN
  14.4614   16.5383   12.9968  90.0000 119.0720  90.0000  15 1

