# MOL2 file generated by ConQuest
# Please check atom types

@<TRIPOS>MOLECULE
LAQMAU
    96   102     2
SMALL
NO_CHARGES
****
Generated from CSD

@<TRIPOS>ATOM
      1 O1         2.2087   15.8259   -5.2469 O.2       1 RES1    0.0000
      2 O2         2.3987   17.5647   -3.9651 O.2       1 RES1    0.0000
      3 N1         2.7192   16.4184   -4.3056 N.pl3     1 RES1    0.0000
      4 N2        10.5100   12.2191   -3.4889 N.1       1 RES1    0.0000
      5 N3         9.7934    8.6014   -1.4477 N.1       1 RES1    0.0000
      6 C1         4.2685   14.5729   -3.9824 C.ar      1 RES1    0.0000
      7 H1         3.9673   14.2194   -4.7888 H         1 RES1    0.0000
      8 C2         3.7489   15.7430   -3.5082 C.ar      1 RES1    0.0000
      9 C3         4.1722   16.3246   -2.2976 C.ar      1 RES1    0.0000
     10 H2         3.8088   17.1298   -2.0064 H         1 RES1    0.0000
     11 C4         5.1161   15.6919   -1.5658 C.ar      1 RES1    0.0000
     12 H3         5.3945   16.0639   -0.7607 H         1 RES1    0.0000
     13 C5         5.6899   14.4707   -2.0016 C.ar      1 RES1    0.0000
     14 C6         5.2663   13.9019   -3.2401 C.ar      1 RES1    0.0000
     15 C7         5.8394   12.6715   -3.7051 C.ar      1 RES1    0.0000
     16 C8         6.7614   12.0268   -2.9088 C.ar      1 RES1    0.0000
     17 C9         7.1598   12.5971   -1.6679 C.ar      1 RES1    0.0000
     18 C10        6.6673   13.7893   -1.2341 C.ar      1 RES1    0.0000
     19 H4         6.9705   14.1561   -0.4347 H         1 RES1    0.0000
     20 C11        8.1934   11.7369   -0.9968 C.3       1 RES1    0.0000
     21 H5         7.8007   11.1954   -0.2954 H         1 RES1    0.0000
     22 H6         8.9103   12.2726   -0.6228 H         1 RES1    0.0000
     23 C12        8.7033   10.8539   -2.1798 C.3       1 RES1    0.0000
     24 C13        7.4654   10.6828   -3.1391 C.3       1 RES1    0.0000
     25 C14        5.4931   12.1761   -5.0802 C.ar      1 RES1    0.0000
     26 C15        4.6179   11.1171   -5.2855 C.ar      1 RES1    0.0000
     27 H7         4.1544   10.7412   -4.5715 H         1 RES1    0.0000
     28 C16        4.4438   10.6203   -6.5945 C.ar      1 RES1    0.0000
     29 H8         3.8727    9.9008   -6.7408 H         1 RES1    0.0000
     30 C17        5.1083   11.1891   -7.6558 C.ar      1 RES1    0.0000
     31 H9         5.0042   10.8401   -8.5117 H         1 RES1    0.0000
     32 C18        5.9148   12.2558   -7.4541 C.ar      1 RES1    0.0000
     33 H10        6.3456   12.6506   -8.1774 H         1 RES1    0.0000
     34 C19        6.1057   12.7694   -6.1745 C.ar      1 RES1    0.0000
     35 H11        6.6483   13.5153   -6.0525 H         1 RES1    0.0000
     36 C20        9.7317   11.6156   -2.9253 C.1       1 RES1    0.0000
     37 C21        9.3100    9.5949   -1.7485 C.1       1 RES1    0.0000
     38 C22        7.9092   10.3651   -4.5676 C.3       1 RES1    0.0000
     39 H12        7.1465   10.1085   -5.0912 H         1 RES1    0.0000
     40 H13        8.5437    9.6445   -4.5533 H         1 RES1    0.0000
     41 H14        8.3170   11.1419   -4.9560 H         1 RES1    0.0000
     42 C23        6.5474    9.4896   -2.6891 C.3       1 RES1    0.0000
     43 H15        5.8509    9.3898   -3.3565 H         1 RES1    0.0000
     44 H16        7.0850    8.6825   -2.7170 H         1 RES1    0.0000
     45 C24        5.8673    9.5465   -1.3139 C.3       1 RES1    0.0000
     46 H17        5.3752   10.3664   -1.2345 H         1 RES1    0.0000
     47 H18        6.5356    9.5066   -0.6256 H         1 RES1    0.0000
     48 H19        5.2686    8.8025   -1.2233 H         1 RES1    0.0000
     49 O3        -0.2957    9.1070    1.4527 O.2       2 RES2    0.0000
     50 O4        -0.3609    7.3796    2.7358 O.2       2 RES2    0.0000
     51 N4         0.0567    8.4898    2.4521 N.pl3     2 RES2    0.0000
     52 N5         7.1196   15.9685    6.0525 N.1       2 RES2    0.0000
     53 N6         2.8225   15.4640    6.1543 N.1       2 RES2    0.0000
     54 C25        1.6377   10.2681    2.9565 C.ar      2 RES2    0.0000
     55 H20        1.4162   10.6536    2.1387 H         2 RES2    0.0000
     56 C26        1.0390    9.1114    3.3589 C.ar      2 RES2    0.0000
     57 C27        1.3151    8.4843    4.5804 C.ar      2 RES2    0.0000
     58 H21        0.8908    7.6913    4.8195 H         2 RES2    0.0000
     59 C28        2.2273    9.0725    5.4101 C.ar      2 RES2    0.0000
     60 H22        2.4209    8.6744    6.2281 H         2 RES2    0.0000
     61 C29        2.8839   10.2706    5.0563 C.ar      2 RES2    0.0000
     62 C30        2.5995   10.8760    3.7965 C.ar      2 RES2    0.0000
     63 C31        3.2766   12.0788    3.3973 C.ar      2 RES2    0.0000
     64 C32        4.1625   12.6524    4.2783 C.ar      2 RES2    0.0000
     65 C33        4.3442   12.1033    5.5834 C.ar      2 RES2    0.0000
     66 C34        3.7617   10.9289    5.9468 C.ar      2 RES2    0.0000
     67 H23        3.9411   10.5595    6.7813 H         2 RES2    0.0000
     68 C35        5.1731   13.0218    6.4463 C.3       2 RES2    0.0000
     69 H24        6.0814   12.6960    6.5416 H         2 RES2    0.0000
     70 H25        4.7794   13.1341    7.3260 H         2 RES2    0.0000
     71 C36        5.1265   14.3404    5.6312 C.3       2 RES2    0.0000
     72 C37        5.0965   13.8625    4.1193 C.3       2 RES2    0.0000
     73 C38        2.9323   12.6652    2.0632 C.ar      2 RES2    0.0000
     74 C39        1.9739   13.6688    1.9721 C.ar      2 RES2    0.0000
     75 H26        1.5234   13.9598    2.7323 H         2 RES2    0.0000
     76 C40        1.6934   14.2414    0.7134 C.ar      2 RES2    0.0000
     77 H27        1.0655   14.9234    0.6409 H         2 RES2    0.0000
     78 C41        2.3493   13.7896   -0.4050 C.ar      2 RES2    0.0000
     79 H28        2.1805   14.1869   -1.2289 H         2 RES2    0.0000
     80 C42        3.2424   12.7690   -0.3220 C.ar      2 RES2    0.0000
     81 H29        3.6536   12.4478   -1.0924 H         2 RES2    0.0000
     82 C43        3.5387   12.2136    0.8967 C.ar      2 RES2    0.0000
     83 H30        4.1569   11.5215    0.9433 H         2 RES2    0.0000
     84 C44        6.2426   15.2628    5.8998 C.1       2 RES2    0.0000
     85 C45        3.8456   15.0190    5.9384 C.1       2 RES2    0.0000
     86 C46        4.6746   14.9882    3.1886 C.3       2 RES2    0.0000
     87 H31        4.7314   14.6898    2.2781 H         2 RES2    0.0000
     88 H32        5.2545   15.7427    3.3147 H         2 RES2    0.0000
     89 H33        3.7697   15.2447    3.3857 H         2 RES2    0.0000
     90 C47        6.5254   13.3845    3.7487 C.3       2 RES2    0.0000
     91 H34        7.1003   14.1642    3.6923 H         2 RES2    0.0000
     92 H35        6.8578   12.8323    4.4739 H         2 RES2    0.0000
     93 C48        6.6587   12.6084    2.4664 C.3       2 RES2    0.0000
     94 H36        6.2734   13.1113    1.7458 H         2 RES2    0.0000
     95 H37        6.1991   11.7697    2.5512 H         2 RES2    0.0000
     96 H38        7.5874   12.4478    2.2836 H         2 RES2    0.0000
@<TRIPOS>BOND
     1    1    3 2
     2    2    3 2
     3    3    8 1
     4    4   36 3
     5    5   37 3
     6    6    7 1
     7    8    6 ar
     8    9    8 ar
     9   10    9 1
    10   11    9 ar
    11   12   11 1
    12   13   11 ar
    13   14    6 ar
    14   15   14 ar
    15   16   15 ar
    16   17   16 ar
    17   18   13 ar
    18   19   18 1
    19   20   17 1
    20   21   20 1
    21   22   20 1
    22   23   20 1
    23   24   16 1
    24   25   15 1
    25   26   25 ar
    26   27   26 1
    27   28   26 ar
    28   29   28 1
    29   30   28 ar
    30   31   30 1
    31   32   30 ar
    32   33   32 1
    33   34   25 ar
    34   35   34 1
    35   36   23 1
    36   37   23 1
    37   38   24 1
    38   39   38 1
    39   40   38 1
    40   41   38 1
    41   42   24 1
    42   43   42 1
    43   44   42 1
    44   45   42 1
    45   46   45 1
    46   47   45 1
    47   48   45 1
    48   49   51 2
    49   50   51 2
    50   51   56 1
    51   52   84 3
    52   53   85 3
    53   54   55 1
    54   56   54 ar
    55   57   56 ar
    56   58   57 1
    57   59   57 ar
    58   60   59 1
    59   61   59 ar
    60   62   54 ar
    61   63   62 ar
    62   64   63 ar
    63   65   64 ar
    64   66   61 ar
    65   67   66 1
    66   68   65 1
    67   69   68 1
    68   70   68 1
    69   71   68 1
    70   72   64 1
    71   73   63 1
    72   74   73 ar
    73   75   74 1
    74   76   74 ar
    75   77   76 1
    76   78   76 ar
    77   79   78 1
    78   80   78 ar
    79   81   80 1
    80   82   73 ar
    81   83   82 1
    82   84   71 1
    83   85   71 1
    84   86   72 1
    85   87   86 1
    86   88   86 1
    87   89   86 1
    88   90   72 1
    89   91   90 1
    90   92   90 1
    91   93   90 1
    92   94   93 1
    93   95   93 1
    94   96   93 1
    95   13   14 ar
    96   17   18 ar
    97   23   24 1
    98   32   34 ar
    99   61   62 ar
   100   65   66 ar
   101   71   72 1
   102   80   82 ar
@<TRIPOS>SUBSTRUCTURE
     1 RES1 1
     2 RES2 49

@<TRIPOS>CRYSIN
   8.6612   16.2229   14.9775  90.0000 111.5230  90.0000   4 1

