# MOL2 file generated by ConQuest
# Please check atom types

@<TRIPOS>MOLECULE
LAQRUS
    35    36     1
SMALL
NO_CHARGES
****
Generated from CSD

@<TRIPOS>ATOM
      1 C1         3.5731    0.1210    4.3188 C.2       1 RES1    0.0000
      2 H1         3.1481    0.1441    3.4921 H         1 RES1    0.0000
      3 C2         4.5752    1.1303    4.6419 C.ar      1 RES1    0.0000
      4 C3         5.2731    1.0998    5.8423 C.ar      1 RES1    0.0000
      5 H2         5.0785    0.4348    6.4634 H         1 RES1    0.0000
      6 C4         6.2434    2.0255    6.1366 C.ar      1 RES1    0.0000
      7 H3         6.7069    1.9812    6.9408 H         1 RES1    0.0000
      8 C5         6.5205    3.0174    5.2302 C.ar      1 RES1    0.0000
      9 H4         7.1757    3.6487    5.4261 H         1 RES1    0.0000
     10 C6         5.8395    3.0904    4.0305 C.ar      1 RES1    0.0000
     11 H5         6.0320    3.7684    3.4240 H         1 RES1    0.0000
     12 C7         4.8712    2.1515    3.7370 C.ar      1 RES1    0.0000
     13 C8         4.4093    3.1340    1.6035 C.3       1 RES1    0.0000
     14 H6         5.3323    3.0891    1.3115 H         1 RES1    0.0000
     15 H7         4.2461    4.0142    1.9775 H         1 RES1    0.0000
     16 C9         3.4837    2.8751    0.4540 C.2       1 RES1    0.0000
     17 C10        3.7012    1.6263   -0.2070 C.1       1 RES1    0.0000
     18 C11        2.5405    3.7516    0.1055 C.2       1 RES1    0.0000
     19 H8         2.5358    4.5232    0.6253 H         1 RES1    0.0000
     20 C12        1.5170    3.7366   -0.9282 C.ar      1 RES1    0.0000
     21 C13        1.2345    2.6574   -1.7655 C.ar      1 RES1    0.0000
     22 H9         1.7487    1.8845   -1.7076 H         1 RES1    0.0000
     23 C14        0.2059    2.7217   -2.6730 C.ar      1 RES1    0.0000
     24 H10        0.0340    1.9937   -3.2252 H         1 RES1    0.0000
     25 C15       -0.5683    3.8452   -2.7744 C.ar      1 RES1    0.0000
     26 H11       -1.2731    3.8751   -3.3804 H         1 RES1    0.0000
     27 C16       -0.2977    4.9231   -1.9781 C.ar      1 RES1    0.0000
     28 H12       -0.8123    5.6941   -2.0515 H         1 RES1    0.0000
     29 C17        0.7320    4.8701   -1.0678 C.ar      1 RES1    0.0000
     30 H13        0.9056    5.6118   -0.5339 H         1 RES1    0.0000
     31 N1         3.2763   -0.7851    5.1500 N.2       1 RES1    0.0000
     32 N2         3.9318    0.6188   -0.6857 N.1       1 RES1    0.0000
     33 O1         2.3217   -1.6487    4.6319 O.3       1 RES1    0.0000
     34 H14        2.1603   -2.2376    5.1795 H         1 RES1    0.0000
     35 O2         4.1459    2.1264    2.5722 O.3       1 RES1    0.0000
@<TRIPOS>BOND
     1    1    2 1
     2    3    1 1
     3    4    3 ar
     4    5    4 1
     5    6    4 ar
     6    7    6 1
     7    8    6 ar
     8    9    8 1
     9   10    8 ar
    10   11   10 1
    11   12    3 ar
    12   13   14 1
    13   15   13 1
    14   16   13 1
    15   17   16 1
    16   18   16 2
    17   19   18 1
    18   20   18 1
    19   21   20 ar
    20   22   21 1
    21   23   21 ar
    22   24   23 1
    23   25   23 ar
    24   26   25 1
    25   27   25 ar
    26   28   27 1
    27   29   20 ar
    28   30   29 1
    29   31    1 2
    30   32   17 3
    31   33   31 1
    32   34   33 1
    33   35   12 1
    34   10   12 ar
    35   13   35 1
    36   27   29 ar
@<TRIPOS>SUBSTRUCTURE
     1 RES1 1

@<TRIPOS>CRYSIN
  15.8867    6.2381   15.1874  90.0000 107.1990  90.0000  14 1

