# MOL2 file generated by ConQuest
# Please check atom types

@<TRIPOS>MOLECULE
LAQSAZ
    40    41     1
SMALL
NO_CHARGES
****
Generated from CSD

@<TRIPOS>ATOM
      1 C1        -0.2023    5.4776    1.6104 C.2       1 RES1    0.0000
      2 H1         0.3609    5.4098    2.3473 H         1 RES1    0.0000
      3 C2        -1.1093    4.3782    1.3187 C.ar      1 RES1    0.0000
      4 C3        -2.0125    4.3987    0.2643 C.ar      1 RES1    0.0000
      5 H2        -2.0514    5.1454   -0.2873 H         1 RES1    0.0000
      6 C4        -2.8462    3.3406    0.0221 C.ar      1 RES1    0.0000
      7 H3        -3.4560    3.3784   -0.6786 H         1 RES1    0.0000
      8 C5        -2.7810    2.2263    0.8138 C.ar      1 RES1    0.0000
      9 H4        -3.3426    1.5050    0.6410 H         1 RES1    0.0000
     10 C6        -1.8897    2.1608    1.8659 C.ar      1 RES1    0.0000
     11 H5        -1.8444    1.3987    2.3959 H         1 RES1    0.0000
     12 C7        -1.0652    3.2412    2.1217 C.ar      1 RES1    0.0000
     13 C8         0.0652    2.1354    3.9456 C.3       1 RES1    0.0000
     14 H6         0.5131    1.4565    3.4171 H         1 RES1    0.0000
     15 H7        -0.7674    1.7678    4.2813 H         1 RES1    0.0000
     16 C9         0.9359    2.5784    5.0772 C.2       1 RES1    0.0000
     17 C10        2.3983    2.7010    4.8549 C.2       1 RES1    0.0000
     18 C11        4.1284    2.5192    3.2644 C.3       1 RES1    0.0000
     19 H8         4.4034    3.4331    3.3641 H         1 RES1    0.0000
     20 H9         4.2632    2.2417    2.3562 H         1 RES1    0.0000
     21 H10        4.6480    1.9620    3.8481 H         1 RES1    0.0000
     22 C12        0.4817    2.8824    6.2898 C.2       1 RES1    0.0000
     23 H11        1.1289    3.1133    6.9160 H         1 RES1    0.0000
     24 C13       -0.8959    2.9029    6.7694 C.ar      1 RES1    0.0000
     25 C14       -1.9768    3.2859    5.9841 C.ar      1 RES1    0.0000
     26 H12       -1.8344    3.5741    5.1124 H         1 RES1    0.0000
     27 C15       -3.2556    3.2405    6.4890 C.ar      1 RES1    0.0000
     28 H13       -3.9756    3.4917    5.9567 H         1 RES1    0.0000
     29 C16       -3.4686    2.8259    7.7784 C.ar      1 RES1    0.0000
     30 H14       -4.3370    2.7604    8.1073 H         1 RES1    0.0000
     31 C17       -2.4081    2.5091    8.5856 C.ar      1 RES1    0.0000
     32 H15       -2.5528    2.2587    9.4689 H         1 RES1    0.0000
     33 C18       -1.1361    2.5623    8.0850 C.ar      1 RES1    0.0000
     34 H16       -0.4178    2.3658    8.6422 H         1 RES1    0.0000
     35 N1        -0.1525    6.5134    0.9033 N.2       1 RES1    0.0000
     36 O1         0.7925    7.4349    1.3757 O.3       1 RES1    0.0000
     37 H17        0.8236    8.0784    0.8686 H         1 RES1    0.0000
     38 O2        -0.1832    3.3075    3.1552 O.3       1 RES1    0.0000
     39 O3         3.1965    3.0378    5.6813 O.2       1 RES1    0.0000
     40 O4         2.7368    2.3987    3.6006 O.3       1 RES1    0.0000
@<TRIPOS>BOND
     1    1    2 1
     2    3    1 1
     3    4    3 ar
     4    5    4 1
     5    6    4 ar
     6    7    6 1
     7    8    6 ar
     8    9    8 1
     9   10    8 ar
    10   11   10 1
    11   12    3 ar
    12   13   14 1
    13   15   13 1
    14   16   13 1
    15   17   16 1
    16   18   19 1
    17   20   18 1
    18   21   18 1
    19   22   16 2
    20   23   22 1
    21   24   22 1
    22   25   24 ar
    23   26   25 1
    24   27   25 ar
    25   28   27 1
    26   29   27 ar
    27   30   29 1
    28   31   29 ar
    29   32   31 1
    30   33   24 ar
    31   34   33 1
    32   35    1 2
    33   36   35 1
    34   37   36 1
    35   38   12 1
    36   39   17 2
    37   40   17 1
    38   10   12 ar
    39   13   38 1
    40   18   40 1
    41   31   33 ar
@<TRIPOS>SUBSTRUCTURE
     1 RES1 1

@<TRIPOS>CRYSIN
   9.6463    7.7062   22.4675  90.0000 100.3370  90.0000 231 1

