# MOL2 file generated by ConQuest
# Please check atom types

@<TRIPOS>MOLECULE
LAQSED
    98   102     2
SMALL
NO_CHARGES
****
Generated from CSD

@<TRIPOS>ATOM
      1 C1         6.4750   -0.5675   10.6146 C.3       1 RES1    0.0000
      2 H1         5.6427   -0.6939   10.1532 H         1 RES1    0.0000
      3 H2         6.3015   -0.2704   11.5108 H         1 RES1    0.0000
      4 H3         6.9569   -1.3970   10.6412 H         1 RES1    0.0000
      5 O1         7.8498    1.5409   10.3392 O.2       1 RES1    0.0000
      6 O2         7.4271    0.1393    8.6400 O.3       1 RES1    0.0000
      7 O3         4.7257    0.6671    6.6422 O.2       1 RES1    0.0000
      8 O4         6.2899    2.2385    6.9255 O.3       1 RES1    0.0000
      9 O5         7.4209    4.2204    4.1832 O.2       1 RES1    0.0000
     10 O6         7.4413    1.9764    4.2673 O.3       1 RES1    0.0000
     11 O7        10.1834    1.1441    6.4929 O.3       1 RES1    0.0000
     12 O8        10.2406    2.2016    4.4708 O.3       1 RES1    0.0000
     13 O9        12.8782    2.4784    5.4343 O.2       1 RES1    0.0000
     14 O10       10.3457    0.7778    2.0418 O.2       1 RES1    0.0000
     15 N1        11.3474    1.5787    3.9494 N.am      1 RES1    0.0000
     16 C2         7.2910    0.4623    9.8987 C.2       1 RES1    0.0000
     17 C3         4.0579    2.8678    7.2745 C.3       1 RES1    0.0000
     18 H4         3.1680    2.5144    7.2118 H         1 RES1    0.0000
     19 H5         4.1574    3.5976    6.6593 H         1 RES1    0.0000
     20 H6         4.2166    3.1805    8.1689 H         1 RES1    0.0000
     21 C4         5.0279    1.8131    6.9460 C.2       1 RES1    0.0000
     22 C5         6.5712    2.9683    2.3090 C.3       1 RES1    0.0000
     23 H7         5.7303    2.5144    2.3963 H         1 RES1    0.0000
     24 H8         7.1618    2.4452    1.7621 H         1 RES1    0.0000
     25 H9         6.4317    3.8255    1.8970 H         1 RES1    0.0000
     26 C6         7.1851    3.1593    3.6724 C.2       1 RES1    0.0000
     27 C7         8.1474    2.0133    5.5105 C.3       1 RES1    0.0000
     28 H10        8.2935    2.9453    5.7744 H         1 RES1    0.0000
     29 C8         9.4814    1.3398    5.2883 C.3       1 RES1    0.0000
     30 H11        9.3505    0.4798    4.8345 H         1 RES1    0.0000
     31 C9         9.4530    0.3165    7.3713 C.3       1 RES1    0.0000
     32 H12        9.9934    0.1126    8.1499 H         1 RES1    0.0000
     33 H13        9.2352   -0.5176    6.9270 H         1 RES1    0.0000
     34 C10        8.1769    1.0104    7.8043 C.3       1 RES1    0.0000
     35 H14        8.3877    1.8389    8.2847 H         1 RES1    0.0000
     36 C11        7.3468    1.3167    6.5738 C.3       1 RES1    0.0000
     37 H15        6.9639    0.4890    6.2149 H         1 RES1    0.0000
     38 C12       11.3276    0.9642    2.7040 C.2       1 RES1    0.0000
     39 C13       12.7518    0.6145    2.4552 C.ar      1 RES1    0.0000
     40 C14       13.3464   -0.1310    1.4583 C.ar      1 RES1    0.0000
     41 H16       12.8381   -0.5195    0.7823 H         1 RES1    0.0000
     42 C15       14.7100   -0.2842    1.4887 C.ar      1 RES1    0.0000
     43 H17       15.1281   -0.7769    0.8203 H         1 RES1    0.0000
     44 C16       15.4705    0.2750    2.4856 C.ar      1 RES1    0.0000
     45 H18       16.3953    0.1808    2.4723 H         1 RES1    0.0000
     46 C17       14.8542    0.9910    3.5300 C.ar      1 RES1    0.0000
     47 H19       15.3536    1.3499    4.2268 H         1 RES1    0.0000
     48 C18       13.5302    1.1358    3.4825 C.ar      1 RES1    0.0000
     49 C19       12.6058    1.8288    4.4357 C.2       1 RES1    0.0000
     50 O11        2.6720    6.7745    8.3663 O.2       2 RES2    0.0000
     51 O12        2.3498    7.7110    6.4196 O.3       2 RES2    0.0000
     52 O13       -0.3471    7.7894    4.3996 O.2       2 RES2    0.0000
     53 O14        0.6853    5.9071    5.0076 O.3       2 RES2    0.0000
     54 O15        6.8923    7.3705    5.6405 O.2       2 RES2    0.0000
     55 O16        5.1278    6.2107    6.3340 O.3       2 RES2    0.0000
     56 O17        3.8143    4.9614    3.7930 O.3       2 RES2    0.0000
     57 O18        2.1956    5.7097    2.3035 O.3       2 RES2    0.0000
     58 O19        0.3722    3.7729    1.4868 O.2       2 RES2    0.0000
     59 O20        4.4941    5.4476    0.6703 O.2       2 RES2    0.0000
     60 N2         2.4381    4.7362    1.3672 N.am      2 RES2    0.0000
     61 C20        1.6833    8.9548    8.2600 C.3       2 RES2    0.0000
     62 H20        1.6746    8.8967    9.2170 H         2 RES2    0.0000
     63 H21        0.7893    9.0840    7.9372 H         2 RES2    0.0000
     64 H22        2.2319    9.6948    7.9885 H         2 RES2    0.0000
     65 C21        2.2421    7.6842    7.6865 C.2       2 RES2    0.0000
     66 C22       -1.5971    6.0095    5.3699 C.3       2 RES2    0.0000
     67 H23       -1.5049    5.8905    6.3175 H         2 RES2    0.0000
     68 H24       -1.6930    5.1533    4.9484 H         2 RES2    0.0000
     69 H25       -2.3716    6.5456    5.1877 H         2 RES2    0.0000
     70 C23       -0.3948    6.6877    4.8421 C.2       2 RES2    0.0000
     71 C24        7.0433    5.9256    7.5422 C.3       2 RES2    0.0000
     72 H26        7.0620    4.9789    7.3884 H         2 RES2    0.0000
     73 H27        6.5523    6.1083    8.3473 H         2 RES2    0.0000
     74 H28        7.9417    6.2531    7.6353 H         2 RES2    0.0000
     75 C25        6.3882    6.6001    6.4010 C.2       2 RES2    0.0000
     76 C26        4.3160    6.8086    5.3092 C.3       2 RES2    0.0000
     77 H29        4.4929    7.7710    5.2598 H         2 RES2    0.0000
     78 C27        2.8509    6.5613    5.7250 C.3       2 RES2    0.0000
     79 H30        2.8014    5.7761    6.3099 H         2 RES2    0.0000
     80 C28        1.9580    6.3528    4.5155 C.3       2 RES2    0.0000
     81 H31        1.8602    7.1869    4.0104 H         2 RES2    0.0000
     82 C29        2.4589    5.2465    3.6268 C.3       2 RES2    0.0000
     83 H32        1.9362    4.4345    3.7939 H         2 RES2    0.0000
     84 C30        4.5958    6.1516    3.9572 C.3       2 RES2    0.0000
     85 H33        4.3852    6.7763    3.2451 H         2 RES2    0.0000
     86 H34        5.5381    5.9311    3.8945 H         2 RES2    0.0000
     87 C31        1.4345    3.8347    0.9741 C.2       2 RES2    0.0000
     88 C32        2.0537    3.0892   -0.1177 C.ar      2 RES2    0.0000
     89 C33        1.5206    2.0419   -0.8792 C.ar      2 RES2    0.0000
     90 H35        0.6580    1.7301   -0.7349 H         2 RES2    0.0000
     91 C34        2.3105    1.4994   -1.8381 C.ar      2 RES2    0.0000
     92 H36        2.0058    0.7824   -2.3451 H         2 RES2    0.0000
     93 C35        3.6492    2.0502   -2.0735 C.ar      2 RES2    0.0000
     94 H37        4.1650    1.7153   -2.7704 H         2 RES2    0.0000
     95 C36        4.1366    3.0145   -1.3121 C.ar      2 RES2    0.0000
     96 H38        5.0070    3.3208   -1.4279 H         2 RES2    0.0000
     97 C37        3.3108    3.5579   -0.3323 C.ar      2 RES2    0.0000
     98 C38        3.5778    4.6855    0.5602 C.2       2 RES2    0.0000
@<TRIPOS>BOND
     1    1    2 1
     2    3    1 1
     3    4    1 1
     4    5   16 2
     5    6   16 1
     6    7   21 2
     7    8   21 1
     8    9   26 2
     9   10   26 1
    10   11   29 1
    11   12   15 1
    12   13   49 2
    13   14   38 2
    14   15   38 1
    15   16    1 1
    16   17   18 1
    17   19   17 1
    18   20   17 1
    19   21   17 1
    20   22   23 1
    21   24   22 1
    22   25   22 1
    23   26   22 1
    24   27   10 1
    25   28   27 1
    26   29   12 1
    27   30   29 1
    28   31   11 1
    29   32   31 1
    30   33   31 1
    31   34    6 1
    32   35   34 1
    33   36    8 1
    34   37   36 1
    35   38   39 1
    36   39   40 ar
    37   40   41 1
    38   42   40 ar
    39   43   42 1
    40   44   42 ar
    41   45   44 1
    42   46   44 ar
    43   47   46 1
    44   48   39 ar
    45   49   15 1
    46   50   65 2
    47   51   65 1
    48   52   70 2
    49   53   70 1
    50   54   75 2
    51   55   75 1
    52   56   82 1
    53   57   60 1
    54   58   87 2
    55   59   98 2
    56   60   87 1
    57   61   62 1
    58   63   61 1
    59   64   61 1
    60   65   61 1
    61   66   67 1
    62   68   66 1
    63   69   66 1
    64   70   66 1
    65   71   72 1
    66   73   71 1
    67   74   71 1
    68   75   71 1
    69   76   55 1
    70   77   76 1
    71   78   51 1
    72   79   78 1
    73   80   53 1
    74   81   80 1
    75   82   57 1
    76   83   82 1
    77   84   56 1
    78   85   84 1
    79   86   84 1
    80   87   88 1
    81   88   89 ar
    82   89   90 1
    83   91   89 ar
    84   92   91 1
    85   93   91 ar
    86   94   93 1
    87   95   93 ar
    88   96   95 1
    89   97   88 ar
    90   98   60 1
    91   27   29 1
    92   27   36 1
    93   31   34 1
    94   34   36 1
    95   46   48 ar
    96   48   49 1
    97   76   78 1
    98   76   84 1
    99   78   80 1
   100   80   82 1
   101   95   97 ar
   102   97   98 1
@<TRIPOS>SUBSTRUCTURE
     1 RES1 1
     2 RES2 50

@<TRIPOS>CRYSIN
  11.7220    9.2270   19.6150  90.0000 104.5200  90.0000   4 1

