# MOL2 file generated by ConQuest
# Please check atom types

@<TRIPOS>MOLECULE
LAQZEK
   144   152     2
SMALL
NO_CHARGES
****
Generated from CSD

@<TRIPOS>ATOM
      1 O1         5.8685    4.8040   11.1144 O.2       1 RES1    0.0000
      2 N1         5.4657    3.6763    9.1913 N.am      1 RES1    0.0000
      3 C1         5.3330    3.6897    7.7601 C.3       1 RES1    0.0000
      4 O2         7.4873    6.5018    7.1691 O.2       1 RES1    0.0000
      5 N2         6.2226    4.6244    7.1133 N.am      1 RES1    0.0000
      6 C2         5.8342    4.8077    9.9014 C.2       1 RES1    0.0000
      7 O3         3.9824    3.6874    7.2544 O.3       1 RES1    0.0000
      8 N3         3.4083   -2.7830    8.3352 N.pl3     1 RES1    0.0000
      9 C3         6.1440    6.0633    9.1087 C.3       1 RES1    0.0000
     10 C4         6.7045    5.7578    7.7271 C.2       1 RES1    0.0000
     11 O4         2.6353   -2.9651    9.2724 O.2       1 RES1    0.0000
     12 N4         0.1751    3.0332    4.4306 N.am      2 RES2    0.0000
     13 O5         3.9103   -3.6913    7.6872 O.2       1 RES1    0.0000
     14 C5         7.1137    6.9411    9.9012 C.3       1 RES1    0.0000
     15 H1         7.8846    6.4250   10.1467 H         1 RES1    0.0000
     16 H2         6.6789    7.2642   10.6932 H         1 RES1    0.0000
     17 H3         7.3873    7.6860    9.3595 H         1 RES1    0.0000
     18 N5         1.3250    2.1727    2.5069 N.am      2 RES2    0.0000
     19 C6         4.7994    6.8088    8.8920 C.3       1 RES1    0.0000
     20 H4         4.2093    6.2597    8.3701 H         1 RES1    0.0000
     21 H5         4.9620    7.6347    8.4303 H         1 RES1    0.0000
     22 H6         4.3953    6.9921    9.7423 H         1 RES1    0.0000
     23 O6        -1.0393    4.9376    4.2900 O.2       2 RES2    0.0000
     24 N6         4.4764   -3.6635    3.5091 N.pl3     2 RES2    0.0000
     25 C7         4.9311    2.5721    9.9801 C.ar      1 RES1    0.0000
     26 O7         0.8716    3.1719    0.5207 O.2       2 RES2    0.0000
     27 C8         5.7394    1.4759   10.2406 C.ar      1 RES1    0.0000
     28 O8         2.5263    2.4627    4.6278 O.3       2 RES2    0.0000
     29 C9         5.1952    0.4309   10.9881 C.ar      1 RES1    0.0000
     30 H7         5.7161   -0.3206   11.1578 H         1 RES1    0.0000
     31 O9         5.4768   -3.5765    2.8153 O.2       2 RES2    0.0000
     32 C10        3.9018    0.4786   11.4876 C.ar      1 RES1    0.0000
     33 O10        3.9759   -4.7209    3.8483 O.2       2 RES2    0.0000
     34 C11        3.1526    1.6156   11.2541 C.ar      1 RES1    0.0000
     35 H8         2.2941    1.6672   11.6103 H         1 RES1    0.0000
     36 C12        3.6346    2.6897   10.5044 C.ar      1 RES1    0.0000
     37 C13        2.7882    3.9060   10.2767 C.3       1 RES1    0.0000
     38 H9         3.2280    4.6752   10.6474 H         1 RES1    0.0000
     39 H10        1.9370    3.7874   10.7028 H         1 RES1    0.0000
     40 H11        2.6589    4.0339    9.3330 H         1 RES1    0.0000
     41 C14        3.3277   -0.6911   12.2642 C.3       1 RES1    0.0000
     42 H12        2.4112   -0.5087   12.4866 H         1 RES1    0.0000
     43 H13        3.8334   -0.8193   13.0692 H         1 RES1    0.0000
     44 H14        3.3730   -1.4848   11.7259 H         1 RES1    0.0000
     45 C15        7.1638    1.3927    9.7656 C.3       1 RES1    0.0000
     46 H15        7.6282    2.1987   10.0023 H         1 RES1    0.0000
     47 H16        7.1766    1.2839    8.8131 H         1 RES1    0.0000
     48 H17        7.5956    0.6426   10.1804 H         1 RES1    0.0000
     49 C16        6.5236    4.4713    5.6925 C.ar      1 RES1    0.0000
     50 C17        7.5033    3.5609    5.2972 C.ar      1 RES1    0.0000
     51 C18        7.7988    3.4735    3.9359 C.ar      1 RES1    0.0000
     52 H18        8.4385    2.8598    3.6543 H         1 RES1    0.0000
     53 C19        7.1768    4.2648    2.9894 C.ar      1 RES1    0.0000
     54 C20        6.1977    5.1489    3.4246 C.ar      1 RES1    0.0000
     55 H19        5.7585    5.6755    2.7949 H         1 RES1    0.0000
     56 C21        5.8476    5.2776    4.7710 C.ar      1 RES1    0.0000
     57 C22        4.8080    6.2765    5.1848 C.3       1 RES1    0.0000
     58 H20        4.1371    5.8393    5.7149 H         1 RES1    0.0000
     59 H21        4.3995    6.6558    4.4029 H         1 RES1    0.0000
     60 H22        5.2214    6.9721    5.7005 H         1 RES1    0.0000
     61 C23        7.5787    4.1736    1.5361 C.3       1 RES1    0.0000
     62 H23        6.9736    4.6951    1.0038 H         1 RES1    0.0000
     63 H24        7.5466    3.2574    1.2518 H         1 RES1    0.0000
     64 H25        8.4716    4.5099    1.4299 H         1 RES1    0.0000
     65 C24        8.2580    2.6972    6.2712 C.3       1 RES1    0.0000
     66 H26        8.1243    3.0280    7.1617 H         1 RES1    0.0000
     67 H27        9.1933    2.7187    6.0591 H         1 RES1    0.0000
     68 H28        7.9372    1.7940    6.2132 H         1 RES1    0.0000
     69 C25        4.8346    2.5547    6.9491 C.3       1 RES1    0.0000
     70 H29        5.1710    2.5777    6.0278 H         1 RES1    0.0000
     71 C26        4.4253    1.1824    7.3701 C.ar      1 RES1    0.0000
     72 C27        3.1989    0.9129    7.9587 C.ar      1 RES1    0.0000
     73 H30        2.6061    1.6073    8.1366 H         1 RES1    0.0000
     74 C28        2.8544   -0.3909    8.2842 C.ar      1 RES1    0.0000
     75 H31        2.0444   -0.5799    8.7023 H         1 RES1    0.0000
     76 C29        3.7422   -1.4008    7.9737 C.ar      1 RES1    0.0000
     77 C30        4.9414   -1.1672    7.3376 C.ar      1 RES1    0.0000
     78 H32        5.5110   -1.8695    7.1208 H         1 RES1    0.0000
     79 C31        5.2742    0.1325    7.0336 C.ar      1 RES1    0.0000
     80 H33        6.0762    0.3121    6.5984 H         1 RES1    0.0000
     81 C32        1.2764    2.2304    3.9419 C.3       2 RES2    0.0000
     82 C33       -0.2199    4.1860    3.8004 C.2       2 RES2    0.0000
     83 C34        0.4810    4.4985    2.4843 C.3       2 RES2    0.0000
     84 C35        0.8815    3.2357    1.7318 C.2       2 RES2    0.0000
     85 C36       -0.4188    5.3648    1.5968 C.3       2 RES2    0.0000
     86 H34       -1.2218    4.8818    1.3890 H         2 RES2    0.0000
     87 H35        0.0451    5.5800    0.7848 H         2 RES2    0.0000
     88 H36       -0.6437    6.1742    2.0630 H         2 RES2    0.0000
     89 C37        1.7841    5.2624    2.8343 C.3       2 RES2    0.0000
     90 H37        2.3546    4.6980    3.3606 H         2 RES2    0.0000
     91 H38        1.5677    6.0531    3.3341 H         2 RES2    0.0000
     92 H39        2.2378    5.5087    2.0245 H         2 RES2    0.0000
     93 C38        2.0082    1.0982    1.7994 C.ar      2 RES2    0.0000
     94 C39        1.3367   -0.0956    1.5443 C.ar      2 RES2    0.0000
     95 C40        2.0414   -1.1079    0.8847 C.ar      2 RES2    0.0000
     96 H40        1.6139   -1.9179    0.7198 H         2 RES2    0.0000
     97 C41        3.3539   -0.9470    0.4670 C.ar      2 RES2    0.0000
     98 C42        3.9610    0.2843    0.6902 C.ar      2 RES2    0.0000
     99 H41        4.8304    0.4175    0.3852 H         2 RES2    0.0000
    100 C43        3.3183    1.3219    1.3505 C.ar      2 RES2    0.0000
    101 C44        4.0465    2.6130    1.6122 C.3       2 RES2    0.0000
    102 H42        4.9325    2.5606    1.2470 H         2 RES2    0.0000
    103 H43        4.0998    2.7643    2.5589 H         2 RES2    0.0000
    104 H44        3.5719    3.3372    1.1988 H         2 RES2    0.0000
    105 C45        4.0986   -2.0775   -0.2065 C.3       2 RES2    0.0000
    106 H45        3.8397   -2.9111    0.1902 H         2 RES2    0.0000
    107 H46        5.0424   -1.9479   -0.0963 H         2 RES2    0.0000
    108 H47        3.8836   -2.0875   -1.1435 H         2 RES2    0.0000
    109 C46       -0.0858   -0.3186    1.9581 C.3       2 RES2    0.0000
    110 H48       -0.5691    0.5087    1.8993 H         2 RES2    0.0000
    111 H49       -0.1089   -0.6412    2.8623 H         2 RES2    0.0000
    112 H50       -0.4898   -0.9675    1.3770 H         2 RES2    0.0000
    113 C47       -0.3096    2.8118    5.7866 C.ar      2 RES2    0.0000
    114 C48       -1.2995    1.8552    5.9927 C.ar      2 RES2    0.0000
    115 C49       -1.6900    1.5879    7.3080 C.ar      2 RES2    0.0000
    116 H51       -2.3250    0.9262    7.4674 H         2 RES2    0.0000
    117 C50       -1.1549    2.2849    8.3805 C.ar      2 RES2    0.0000
    118 C51       -0.2313    3.2785    8.1243 C.ar      2 RES2    0.0000
    119 H52        0.1109    3.7661    8.8371 H         2 RES2    0.0000
    120 C52        0.2082    3.5787    6.8324 C.ar      2 RES2    0.0000
    121 C53        1.1475    4.7263    6.5880 C.3       2 RES2    0.0000
    122 H53        1.8873    4.4258    6.0543 H         2 RES2    0.0000
    123 H54        1.4710    5.0585    7.4289 H         2 RES2    0.0000
    124 H55        0.6830    5.4275    6.1241 H         2 RES2    0.0000
    125 C54       -1.6419    2.0305    9.8003 C.3       2 RES2    0.0000
    126 H56       -1.6469    1.0858    9.9710 H         2 RES2    0.0000
    127 H57       -2.5296    2.3796    9.9012 H         2 RES2    0.0000
    128 H58       -1.0540    2.4651   10.4235 H         2 RES2    0.0000
    129 C55       -1.9740    1.1607    4.8384 C.3       2 RES2    0.0000
    130 H59       -2.2622    1.8139    4.1959 H         2 RES2    0.0000
    131 H60       -2.7340    0.6711    5.1588 H         2 RES2    0.0000
    132 H61       -1.3549    0.5557    4.4246 H         2 RES2    0.0000
    133 C56        1.8388    1.2051    4.8509 C.3       2 RES2    0.0000
    134 H62        1.3793    1.1713    5.7149 H         2 RES2    0.0000
    135 C57        2.5732   -0.0520    4.5380 C.ar      2 RES2    0.0000
    136 C58        1.9827   -1.2605    4.8620 C.ar      2 RES2    0.0000
    137 H63        1.1517   -1.2696    5.2792 H         2 RES2    0.0000
    138 C59        2.6192   -2.4571    4.5717 C.ar      2 RES2    0.0000
    139 H64        2.2280   -3.2730    4.7857 H         2 RES2    0.0000
    140 C60        3.8455   -2.4018    3.9573 C.ar      2 RES2    0.0000
    141 C61        4.4970   -1.2197    3.7070 C.ar      2 RES2    0.0000
    142 H65        5.3469   -1.2169    3.3317 H         2 RES2    0.0000
    143 C62        3.8633   -0.0369    4.0250 C.ar      2 RES2    0.0000
    144 H66        4.3010    0.7737    3.8950 H         2 RES2    0.0000
@<TRIPOS>BOND
     1    1    6 2
     2    2    3 1
     3    3    5 1
     4    4   10 2
     5    5   10 1
     6    6    2 1
     7    7    3 1
     8    8   11 2
     9    9    6 1
    10   10    9 1
    11   12   81 1
    12   13    8 2
    13   14    9 1
    14   15   14 1
    15   16   14 1
    16   17   14 1
    17   18   81 1
    18   19    9 1
    19   20   19 1
    20   21   19 1
    21   22   19 1
    22   23   82 2
    23   24   31 2
    24   25    2 1
    25   26   84 2
    26   27   25 ar
    27   28   81 1
    28   29   27 ar
    29   30   29 1
    30   32   29 ar
    31   33   24 2
    32   34   32 ar
    33   35   34 1
    34   36   25 ar
    35   37   36 1
    36   38   37 1
    37   39   37 1
    38   40   37 1
    39   41   32 1
    40   42   41 1
    41   43   41 1
    42   44   41 1
    43   45   27 1
    44   46   45 1
    45   47   45 1
    46   48   45 1
    47   49    5 1
    48   50   49 ar
    49   51   50 ar
    50   52   51 1
    51   53   51 ar
    52   54   53 ar
    53   55   54 1
    54   56   49 ar
    55   57   56 1
    56   58   57 1
    57   59   57 1
    58   60   57 1
    59   61   53 1
    60   62   61 1
    61   63   61 1
    62   64   61 1
    63   65   50 1
    64   66   65 1
    65   67   65 1
    66   68   65 1
    67   69    3 1
    68   70   69 1
    69   71   69 1
    70   72   71 ar
    71   73   72 1
    72   74   72 ar
    73   75   74 1
    74   76    8 1
    75   77   76 ar
    76   78   77 1
    77   79   71 ar
    78   80   79 1
    79   81  133 1
    80   82   12 1
    81   83   82 1
    82   84   18 1
    83   85   83 1
    84   86   85 1
    85   87   85 1
    86   88   85 1
    87   89   83 1
    88   90   89 1
    89   91   89 1
    90   92   89 1
    91   93   18 1
    92   94   93 ar
    93   95   94 ar
    94   96   95 1
    95   97   95 ar
    96   98   97 ar
    97   99   98 1
    98  100   93 ar
    99  101  100 1
   100  102  101 1
   101  103  101 1
   102  104  101 1
   103  105   97 1
   104  106  105 1
   105  107  105 1
   106  108  105 1
   107  109   94 1
   108  110  109 1
   109  111  109 1
   110  112  109 1
   111  113   12 1
   112  114  113 ar
   113  115  114 ar
   114  116  115 1
   115  117  115 ar
   116  118  117 ar
   117  119  118 1
   118  120  113 ar
   119  121  120 1
   120  122  121 1
   121  123  121 1
   122  124  121 1
   123  125  117 1
   124  126  125 1
   125  127  125 1
   126  128  125 1
   127  129  114 1
   128  130  129 1
   129  131  129 1
   130  132  129 1
   131  133   28 1
   132  134  133 1
   133  135  133 1
   134  136  135 ar
   135  137  136 1
   136  138  136 ar
   137  139  138 1
   138  140   24 1
   139  141  140 ar
   140  142  141 1
   141  143  135 ar
   142  144  143 1
   143    7   69 1
   144   34   36 ar
   145   54   56 ar
   146   74   76 ar
   147   77   79 ar
   148   83   84 1
   149   98  100 ar
   150  118  120 ar
   151  138  140 ar
   152  141  143 ar
@<TRIPOS>SUBSTRUCTURE
     1 RES1 1
     2 RES2 12

@<TRIPOS>CRYSIN
  15.9318   14.2492   24.1259  90.0000  93.8000  90.0000  14 1

