# MOL2 file generated by ConQuest
# Please check atom types

@<TRIPOS>MOLECULE
LASHEV
    60    64     2
SMALL
USER_CHARGES
****
Generated from CSD

@<TRIPOS>ATOM
      1 O1        14.6091    2.5979    8.3359 O.2       1 RES1    0.0000
      2 O2        19.2353    2.1778    7.6933 O.2       1 RES1   -1.0000
      3 N1        18.3169    0.2502    9.3596 N.3       1 RES1    0.0000
      4 N2        17.9878    2.5314    7.6603 N.pl3     1 RES1    1.0000
      5 C1        18.1938   -0.8308   10.1895 C.2       1 RES1    0.0000
      6 C2        16.8723   -0.9127   10.5754 C.2       1 RES1    0.0000
      7 C3        16.1607    0.1325    9.9549 C.2       1 RES1    0.0000
      8 C4        17.0890    0.8500    9.1753 C.2       1 RES1    0.0000
      9 C5        16.9686    1.9865    8.2965 C.2       1 RES1    0.0000
     10 C6        15.7327    2.7249    7.9516 C.2       1 RES1    0.0000
     11 C7        16.1714    3.7850    6.9689 C.ar      1 RES1    0.0000
     12 C8        15.5106    4.7867    6.2964 C.ar      1 RES1    0.0000
     13 C9        16.2597    5.5917    5.4381 C.ar      1 RES1    0.0000
     14 C10       17.6320    5.4273    5.3200 C.ar      1 RES1    0.0000
     15 C11       18.3115    4.4469    6.0098 C.ar      1 RES1    0.0000
     16 C12       17.5545    3.6415    6.8334 C.ar      1 RES1    0.0000
     17 C13       19.3575   -1.6550   10.5801 C.3       1 RES1    0.0000
     18 C14       14.6733    0.3189   10.1517 C.3       1 RES1    0.0000
     19 H1        19.0606    0.5823    9.0918 H         1 RES1    0.0000
     20 H2        16.5085   -1.5538   11.1392 H         1 RES1    0.0000
     21 H3        14.5984    4.9132    6.4051 H         1 RES1    0.0000
     22 H4        15.8263    6.2482    4.9467 H         1 RES1    0.0000
     23 H5        18.1082    5.9985    4.7656 H         1 RES1    0.0000
     24 H6        19.2345    4.3408    5.9216 H         1 RES1    0.0000
     25 H7        19.1462   -2.1597   11.3723 H         1 RES1    0.0000
     26 H8        20.1119   -1.0864   10.7518 H         1 RES1    0.0000
     27 H9        19.5929   -2.2620    9.8730 H         1 RES1    0.0000
     28 H10       14.2319    0.3348    9.3060 H         1 RES1    0.0000
     29 H11       14.5235    1.1541   10.6006 H         1 RES1    0.0000
     30 H12       14.3255   -0.4003   10.6856 H         1 RES1    0.0000
     31 O3        12.4382    0.0506    7.4020 O.2       2 RES2    0.0000
     32 O4         7.8671    0.5812    8.3012 O.2       2 RES2   -1.0000
     33 N3         8.7532    2.5072    6.5421 N.3       2 RES2    0.0000
     34 N4         9.0929    0.2161    8.2634 N.pl3     2 RES2    1.0000
     35 C15        8.8682    3.5243    5.6901 C.2       2 RES2    0.0000
     36 C16       10.1763    3.5837    5.2932 C.2       2 RES2    0.0000
     37 C17       10.8933    2.5523    5.8712 C.2       2 RES2    0.0000
     38 C18        9.9811    1.8271    6.6665 C.2       2 RES2    0.0000
     39 C19       10.1095    0.7384    7.5327 C.2       2 RES2    0.0000
     40 C20       11.3240   -0.1105    7.8571 C.2       2 RES2    0.0000
     41 C21       10.9013   -1.0985    8.8588 C.ar      2 RES2    0.0000
     42 C22       11.5621   -2.1058    9.5123 C.ar      2 RES2    0.0000
     43 C23       10.8398   -2.9184   10.3707 C.ar      2 RES2    0.0000
     44 C24        9.4835   -2.7101   10.5565 C.ar      2 RES2    0.0000
     45 C25        8.8013   -1.6720    9.9234 C.ar      2 RES2    0.0000
     46 C26        9.5530   -0.9116    9.0745 C.ar      2 RES2    0.0000
     47 C27        7.7286    4.4513    5.3405 C.3       2 RES2    0.0000
     48 C28       12.3539    2.3147    5.6302 C.3       2 RES2    0.0000
     49 H13        8.0737    2.3780    7.0571 H         2 RES2    0.0000
     50 H14       10.5214    4.2259    4.7199 H         2 RES2    0.0000
     51 H15       12.4743   -2.2361    9.3800 H         2 RES2    0.0000
     52 H16       11.2651   -3.6118   10.8211 H         2 RES2    0.0000
     53 H17        9.0100   -3.2797   11.1171 H         2 RES2    0.0000
     54 H18        7.8918   -1.5137   10.0651 H         2 RES2    0.0000
     55 H19        8.0576    5.3437    5.1467 H         2 RES2    0.0000
     56 H20        7.1106    4.4816    6.0775 H         2 RES2    0.0000
     57 H21        7.2658    4.1033    4.5688 H         2 RES2    0.0000
     58 H22       12.4930    1.4009    5.3625 H         2 RES2    0.0000
     59 H23       12.8488    2.4879    6.4287 H         2 RES2    0.0000
     60 H24       12.6616    2.9058    4.9373 H         2 RES2    0.0000
@<TRIPOS>BOND
     1    1   10 2
     2    2    4 1
     3    3    5 1
     4    4    9 2
     5    5    6 2
     6    6    7 1
     7    7    8 2
     8    8    3 1
     9    9    8 1
    10   10    9 1
    11   11   10 1
    12   12   11 ar
    13   13   12 ar
    14   14   13 ar
    15   15   14 ar
    16   16    4 1
    17   17    5 1
    18   18    7 1
    19   19    3 1
    20   20    6 1
    21   21   12 1
    22   22   13 1
    23   23   14 1
    24   24   15 1
    25   25   17 1
    26   26   17 1
    27   27   17 1
    28   28   18 1
    29   29   18 1
    30   30   18 1
    31   31   40 2
    32   32   34 1
    33   33   35 1
    34   34   39 2
    35   35   36 2
    36   36   37 1
    37   37   38 2
    38   38   33 1
    39   39   38 1
    40   40   39 1
    41   41   40 1
    42   42   41 ar
    43   43   42 ar
    44   44   43 ar
    45   45   44 ar
    46   46   34 1
    47   47   35 1
    48   48   37 1
    49   49   33 1
    50   50   36 1
    51   51   42 1
    52   52   43 1
    53   53   44 1
    54   54   45 1
    55   55   47 1
    56   56   47 1
    57   57   47 1
    58   58   48 1
    59   59   48 1
    60   60   48 1
    61   11   16 ar
    62   15   16 ar
    63   41   46 ar
    64   45   46 ar
@<TRIPOS>SUBSTRUCTURE
     1 RES1 1
     2 RES2 31

@<TRIPOS>CRYSIN
  26.7517    5.4982   15.7489  90.0000  90.0000  90.0000  29 1

