# MOL2 file generated by ConQuest
# Please check atom types

@<TRIPOS>MOLECULE
LASXAH
    36    38     1
SMALL
NO_CHARGES
****
Generated from CSD

@<TRIPOS>ATOM
      1 O1         3.5570    5.6856    4.9121 O.3       1 RES1    0.0000
      2 O2         2.0847    3.3312    4.9536 O.3       1 RES1    0.0000
      3 C1         3.3463    3.4520    5.5897 C.3       1 RES1    0.0000
      4 H1         4.0651    3.2710    4.9483 H         1 RES1    0.0000
      5 N1         3.4598    4.8321    6.1019 N.3       1 RES1    0.0000
      6 C2         3.4190    2.4837    6.7255 C.ar      1 RES1    0.0000
      7 C3         2.2829    6.6371    3.1501 C.ar      1 RES1    0.0000
      8 C4         1.2511    7.5677    3.0006 C.ar      1 RES1    0.0000
      9 H2         0.5650    7.6007    3.6274 H         1 RES1    0.0000
     10 C5         4.4915    1.6163    6.8480 C.ar      1 RES1    0.0000
     11 H3         5.1524    1.5999    6.1941 H         1 RES1    0.0000
     12 C6         1.9529    4.2529    3.8684 C.3       1 RES1    0.0000
     13 H4         1.0487    4.2108    3.5195 H         1 RES1    0.0000
     14 H5         2.5610    3.9987    3.1566 H         1 RES1    0.0000
     15 C7         1.2414    8.4436    1.9260 C.ar      1 RES1    0.0000
     16 H6         0.5472    9.0542    1.8312 H         1 RES1    0.0000
     17 C8         4.5800    0.7698    7.9555 C.ar      1 RES1    0.0000
     18 H7         5.3089    0.1975    8.0365 H         1 RES1    0.0000
     19 C9         2.5224    1.6200    8.7884 C.ar      1 RES1    0.0000
     20 H8         1.8549    1.6200    9.4357 H         1 RES1    0.0000
     21 C10        2.2587    5.6790    4.3116 C.3       1 RES1    0.0000
     22 H9         1.5905    5.9716    4.9661 H         1 RES1    0.0000
     23 C11        3.2985    6.5987    2.1979 C.ar      1 RES1    0.0000
     24 H10        3.9878    5.9807    2.2769 H         1 RES1    0.0000
     25 C12        2.2676    8.4088    0.9910 C.ar      1 RES1    0.0000
     26 H11        2.2681    9.0049    0.2766 H         1 RES1    0.0000
     27 C13        3.2810    7.4910    1.1260 C.ar      1 RES1    0.0000
     28 H12        3.9638    7.4635    0.4945 H         1 RES1    0.0000
     29 C14        3.6142    0.7679    8.9195 C.ar      1 RES1    0.0000
     30 H13        3.6849    0.2030    9.6550 H         1 RES1    0.0000
     31 C15        2.4240    2.4720    7.6967 C.ar      1 RES1    0.0000
     32 H14        1.6899    3.0370    7.6144 H         1 RES1    0.0000
     33 C16        4.7348    5.0519    6.7769 C.3       1 RES1    0.0000
     34 H15        5.4505    4.7429    6.2172 H         1 RES1    0.0000
     35 H16        4.7451    4.5673    7.6059 H         1 RES1    0.0000
     36 H17        4.8472    5.9880    6.9520 H         1 RES1    0.0000
@<TRIPOS>BOND
     1    1    5 1
     2    2    3 1
     3    3    4 1
     4    5    3 1
     5    6    3 1
     6    7    8 ar
     7    8    9 1
     8   10    6 ar
     9   11   10 1
    10   12    2 1
    11   13   12 1
    12   14   12 1
    13   15    8 ar
    14   16   15 1
    15   17   10 ar
    16   18   17 1
    17   19   20 1
    18   21    1 1
    19   22   21 1
    20   23    7 ar
    21   24   23 1
    22   25   15 ar
    23   26   25 1
    24   27   23 ar
    25   28   27 1
    26   29   17 ar
    27   30   29 1
    28   31    6 ar
    29   32   31 1
    30   33    5 1
    31   34   33 1
    32   35   33 1
    33   36   33 1
    34    7   21 1
    35   12   21 1
    36   19   29 ar
    37   19   31 ar
    38   25   27 ar
@<TRIPOS>SUBSTRUCTURE
     1 RES1 1

@<TRIPOS>CRYSIN
   5.4942   18.2840    6.7810  90.0000 103.8240  90.0000   4 1

