# MOL2 file generated by ConQuest
# Please check atom types

@<TRIPOS>MOLECULE
LAWCOC
    38    45     1
SMALL
NO_CHARGES
****
Generated from CSD

@<TRIPOS>ATOM
      1 O1        -3.2373    4.7182    8.1171 O.2       1 RES1    0.0000
      2 O2        -4.3176    4.1988    6.3341 O.2       1 RES1    0.0000
      3 N1         0.5900    1.3940    8.1210 N.2       1 RES1    0.0000
      4 N2         0.9420    2.2413    9.1183 N.2       1 RES1    0.0000
      5 N3        -3.3994    4.0130    7.1353 N.2       1 RES1    0.0000
      6 C1        -0.5092    1.6559    7.3461 C.3       1 RES1    0.0000
      7 C2        -1.3191    2.7522    7.6512 C.3       1 RES1    0.0000
      8 C3        -2.4765    2.9000    6.8792 C.2       1 RES1    0.0000
      9 C4        -2.8265    2.0359    5.8601 C.2       1 RES1    0.0000
     10 C5        -1.9895    0.9704    5.5707 C.2       1 RES1    0.0000
     11 C6        -0.8347    0.7829    6.3206 C.2       1 RES1    0.0000
     12 C7        -0.8206    3.6823    8.7205 C.3       1 RES1    0.0000
     13 H1         1.0705    0.6721    7.9693 H         1 RES1    0.0000
     14 H2         0.3227    1.6352    7.8046 H         1 RES1    0.0000
     15 H3        -1.0698    3.3555    8.3412 H         1 RES1    0.0000
     16 H4        -3.6269    2.1702    5.3659 H         1 RES1    0.0000
     17 H5        -2.2040    0.3721    4.8644 H         1 RES1    0.0000
     18 H6        -0.2629    0.0487    6.1282 H         1 RES1    0.0000
     19 H7        -1.2750    4.4960    8.9055 H         1 RES1    0.0000
     20 O1B        4.4166    0.8780   10.3859 O.2       1 RES1    0.0000
     21 O2B        5.4969    1.3974   12.1689 O.2       1 RES1    0.0000
     22 N1B        0.5893    4.2022   10.3821 N.2       1 RES1    0.0000
     23 N2B        0.2373    3.3549    9.3847 N.2       1 RES1    0.0000
     24 N3B        4.5787    1.5832   11.3677 N.2       1 RES1    0.0000
     25 C1B        1.6885    3.9403   11.1570 C.3       1 RES1    0.0000
     26 C2B        2.4984    2.8440   10.8518 C.3       1 RES1    0.0000
     27 C3B        3.6558    2.6962   11.6238 C.2       1 RES1    0.0000
     28 C4B        4.0058    3.5603   12.6429 C.2       1 RES1    0.0000
     29 C5B        3.1688    4.6258   12.9323 C.2       1 RES1    0.0000
     30 C6B        2.0140    4.8133   12.1824 C.2       1 RES1    0.0000
     31 C7B        1.9999    1.9139    9.7826 C.3       1 RES1    0.0000
     32 H1B        0.1088    4.9241   10.5338 H         1 RES1    0.0000
     33 H2B        0.8566    3.9610   10.6985 H         1 RES1    0.0000
     34 H3B        2.2491    2.2407   10.1619 H         1 RES1    0.0000
     35 H4B        4.8062    3.4260   13.1372 H         1 RES1    0.0000
     36 H5B        3.3834    5.2241   13.6386 H         1 RES1    0.0000
     37 H6B        1.4422    5.5475   12.3748 H         1 RES1    0.0000
     38 H7B        2.4543    1.1002    9.5975 H         1 RES1    0.0000
@<TRIPOS>BOND
     1    1    5 1
     2    2    5 1
     3    3    4 1
     4    4   23 1
     5    5    8 1
     6    6    3 1
     7    7    6 1
     8    8    7 1
     9    9    8 1
    10   10    9 1
    11   11    6 1
    12   12    7 1
    13   13    3 1
    14   14    3 1
    15   15    7 1
    16   16    9 1
    17   17   10 1
    18   18   11 1
    19   19   12 1
    20   20   24 1
    21   21   24 1
    22   22   23 1
    23   23   12 1
    24   24   27 1
    25   25   22 1
    26   26   25 1
    27   27   26 1
    28   28   27 1
    29   29   28 1
    30   30   25 1
    31   31    4 1
    32   32   22 1
    33   33   22 1
    34   34   26 1
    35   35   28 1
    36   36   29 1
    37   37   30 1
    38   38   31 1
    39    6   14 1
    40   10   11 1
    41   12   15 1
    42   25   33 1
    43   26   31 1
    44   29   30 1
    45   31   34 1
@<TRIPOS>SUBSTRUCTURE
     1 RES1 1

@<TRIPOS>CRYSIN
   5.9845    5.5962   19.1168  90.0000 104.5580  90.0000  14 1

