# MOL2 file generated by ConQuest
# Please check atom types

@<TRIPOS>MOLECULE
LAWJAX
    44    47     1
SMALL
NO_CHARGES
****
Generated from CSD

@<TRIPOS>ATOM
      1 O1         2.8512    2.5514   19.5633 O.3       1 RES1    0.0000
      2 N1         3.2749    4.9080   19.2380 N.3       1 RES1    0.0000
      3 O2         6.7987    3.3365   13.4949 O.2       1 RES1    0.0000
      4 C1         5.1339    3.6638   22.2158 C.ar      1 RES1    0.0000
      5 H1         5.6679    4.3923   22.4384 H         1 RES1    0.0000
      6 C2         4.4366    3.6861   21.0178 C.ar      1 RES1    0.0000
      7 C3         1.1149    5.9405   18.9437 C.ar      1 RES1    0.0000
      8 H2         1.1537    5.7024   18.0466 H         1 RES1    0.0000
      9 N2         6.4439    2.4186   14.2215 N.pl3     1 RES1    0.0000
     10 O3         6.8005    1.2655   14.0679 O.2       1 RES1    0.0000
     11 C4         4.4260    2.0214   17.3161 C.ar      1 RES1    0.0000
     12 H3         4.1956    1.3456   17.9116 H         1 RES1    0.0000
     13 C5         3.6253    2.6080   20.7005 C.ar      1 RES1    0.0000
     14 C6         2.9765    3.6395   18.6196 C.3       1 RES1    0.0000
     15 H4         2.1000    3.7388   18.1933 H         1 RES1    0.0000
     16 C7         2.1150    6.0570   21.0949 C.ar      1 RES1    0.0000
     17 H5         2.8221    5.8777   21.6716 H         1 RES1    0.0000
     18 C8         5.0624    2.5989   23.0902 C.ar      1 RES1    0.0000
     19 C9         2.1715    5.6143   19.7865 C.ar      1 RES1    0.0000
     20 C10        5.5541    2.7235   15.3552 C.ar      1 RES1    0.0000
     21 C11        5.2407    1.7316   16.2343 C.ar      1 RES1    0.0000
     22 H6         5.5700    0.8704   16.1099 H         1 RES1    0.0000
     23 C12        4.5098    4.8189   20.0330 C.3       1 RES1    0.0000
     24 H7         4.6484    5.6517   20.5095 H         1 RES1    0.0000
     25 H8         5.2663    4.6821   19.4414 H         1 RES1    0.0000
     26 C13        3.9511    3.3031   17.5190 C.ar      1 RES1    0.0000
     27 C14        3.5397    1.5269   21.5597 C.ar      1 RES1    0.0000
     28 H9         3.0004    0.8004   21.3449 H         1 RES1    0.0000
     29 C15       -0.0388    7.0368   20.7271 C.ar      1 RES1    0.0000
     30 H10       -0.7803    7.4999   21.0436 H         1 RES1    0.0000
     31 C16        4.2971    4.2788   16.6078 C.ar      1 RES1    0.0000
     32 H11        3.9819    5.1451   16.7281 H         1 RES1    0.0000
     33 C17        5.1021    3.9982   15.5199 C.ar      1 RES1    0.0000
     34 H12        5.3299    4.6649   14.9126 H         1 RES1    0.0000
     35 C18        1.0195    6.7643   21.5532 C.ar      1 RES1    0.0000
     36 H13        1.0010    7.0591   22.4345 H         1 RES1    0.0000
     37 C19        4.2591    1.5330   22.7321 C.ar      1 RES1    0.0000
     38 H14        4.2035    0.7984   23.2992 H         1 RES1    0.0000
     39 C20        0.0150    6.6102   19.4181 C.ar      1 RES1    0.0000
     40 H15       -0.7018    6.7795   18.8487 H         1 RES1    0.0000
     41 C21        5.8171    2.6101   24.3986 C.3       1 RES1    0.0000
     42 H16        6.5577    3.2170   24.3360 H         1 RES1    0.0000
     43 H17        6.1428    1.7265   24.5884 H         1 RES1    0.0000
     44 H18        5.2301    2.8917   25.1048 H         1 RES1    0.0000
@<TRIPOS>BOND
     1    1   13 1
     2    2   14 1
     3    3    9 2
     4    4    5 1
     5    6    4 ar
     6    7    8 1
     7    9   10 2
     8   11   12 1
     9   13    6 ar
    10   14    1 1
    11   15   14 1
    12   16   17 1
    13   18    4 ar
    14   19    2 1
    15   20    9 1
    16   21   11 ar
    17   22   21 1
    18   23    2 1
    19   24   23 1
    20   25   23 1
    21   26   11 ar
    22   27   13 ar
    23   28   27 1
    24   29   30 1
    25   31   26 ar
    26   32   31 1
    27   33   20 ar
    28   34   33 1
    29   35   16 ar
    30   36   35 1
    31   37   18 ar
    32   38   37 1
    33   39    7 ar
    34   40   39 1
    35   41   18 1
    36   42   41 1
    37   43   41 1
    38   44   41 1
    39    6   23 1
    40    7   19 ar
    41   14   26 1
    42   16   19 ar
    43   20   21 ar
    44   27   37 ar
    45   29   35 ar
    46   29   39 ar
    47   31   33 ar
@<TRIPOS>SUBSTRUCTURE
     1 RES1 1

@<TRIPOS>CRYSIN
   8.8272   10.1322   19.5627  90.0000  90.0000  90.0000  19 1

