# MOL2 file generated by ConQuest
# Please check atom types

@<TRIPOS>MOLECULE
LAWVIR
    33    35     1
SMALL
NO_CHARGES
****
Generated from CSD

@<TRIPOS>ATOM
      1 O1         8.2420    0.4399    0.5154 O.2       1 RES1    0.0000
      2 O2         6.9275    2.1293    0.2958 O.2       1 RES1    0.0000
      3 N1         7.9179    1.5928    0.7760 N.pl3     1 RES1    0.0000
      4 N2        12.0369    5.6620    3.4353 N.pl3     1 RES1    0.0000
      5 N3        11.6313    6.9450    3.4574 N.2       1 RES1    0.0000
      6 N4        12.4229    7.6155    2.6589 N.2       1 RES1    0.0000
      7 N5        15.3179    8.1595    1.8730 N.pl3     1 RES1    0.0000
      8 N6        16.2727   10.0229    2.6079 N.2       1 RES1    0.0000
      9 H1         9.1946    5.4279    2.8045 H         1 RES1    0.0000
     10 C1        10.3959    3.8328    3.3397 C.ar      1 RES1    0.0000
     11 C2        10.6108    2.4711    3.1738 C.ar      1 RES1    0.0000
     12 H2        11.3743    2.0744    3.6297 H         1 RES1    0.0000
     13 C3         9.7907    1.7274    2.3451 C.ar      1 RES1    0.0000
     14 H3         9.9123    0.7666    2.2184 H         1 RES1    0.0000
     15 C4         8.7603    2.3662    1.6922 C.ar      1 RES1    0.0000
     16 C5         8.5055    3.7221    1.8468 C.ar      1 RES1    0.0000
     17 H4         7.7713    4.1145    1.3437 H         1 RES1    0.0000
     18 C6         9.3347    4.4485    2.6783 C.ar      1 RES1    0.0000
     19 C7        11.3070    4.6598    4.2131 C.3       1 RES1    0.0000
     20 H5        11.9416    4.1116    4.6532 H         1 RES1    0.0000
     21 H6        10.7623    5.1652    4.8876 H         1 RES1    0.0000
     22 C8        13.0932    5.5090    2.6025 C.2       1 RES1    0.0000
     23 H7        13.5397    4.6513    2.5024 H         1 RES1    0.0000
     24 C9        13.3297    6.7627    2.1115 C.2       1 RES1    0.0000
     25 C10       14.3862    7.2647    1.1831 C.3       1 RES1    0.0000
     26 H8        14.9163    6.5157    0.7800 H         1 RES1    0.0000
     27 H9        13.9810    7.7764    0.4283 H         1 RES1    0.0000
     28 C11       16.2751    7.7845    2.7757 C.2       1 RES1    0.0000
     29 H10       16.4006    6.8455    3.0074 H         1 RES1    0.0000
     30 C12       16.8428    8.9313    3.2099 C.2       1 RES1    0.0000
     31 H11       17.5535    9.0313    3.8506 H         1 RES1    0.0000
     32 C13       15.3484    9.5122    1.8126 C.2       1 RES1    0.0000
     33 H12       14.7028    9.9935    1.2354 H         1 RES1    0.0000
@<TRIPOS>BOND
     1    1    3 2
     2    2    3 2
     3    3   15 1
     4    4    5 1
     5    5    6 2
     6    6   24 1
     7    7   25 1
     8    8   30 1
     9    9   18 1
    10   10   11 ar
    11   11   12 1
    12   13   11 ar
    13   14   13 1
    14   15   13 ar
    15   16   15 ar
    16   17   16 1
    17   18   10 ar
    18   19    4 1
    19   20   19 1
    20   21   19 1
    21   22    4 1
    22   23   22 1
    23   24   22 2
    24   25   24 1
    25   26   25 1
    26   27   25 1
    27   28    7 1
    28   29   28 1
    29   30   28 2
    30   31   30 1
    31   32    7 1
    32   33   32 1
    33    8   32 2
    34   10   19 1
    35   16   18 ar
@<TRIPOS>SUBSTRUCTURE
     1 RES1 1

@<TRIPOS>CRYSIN
  20.3330   14.2764    4.5089  90.0000  90.0000  90.0000  33 1

