# MOL2 file generated by ConQuest
# Please check atom types

@<TRIPOS>MOLECULE
LAWVOX
    98   102     2
SMALL
NO_CHARGES
****
Generated from CSD

@<TRIPOS>ATOM
      1 O1        -0.2503    6.7605    1.0402 O.2       1 RES1    0.0000
      2 O2        -0.2140    4.8697    2.0757 O.2       1 RES1    0.0000
      3 O3         9.2839    7.8034    6.0449 O.3       1 RES1    0.0000
      4 N1         0.3466    5.8389    1.5849 N.pl3     1 RES1    0.0000
      5 N2         6.5736    6.7471    2.8713 N.pl3     1 RES1    0.0000
      6 N3         6.6197    8.0894    2.8658 N.2       1 RES1    0.0000
      7 N4         7.0894    8.4541    4.0403 N.2       1 RES1    0.0000
      8 C1         1.8185    5.8939    1.6353 C.ar      1 RES1    0.0000
      9 C2         2.4911    4.8754    2.2747 C.ar      1 RES1    0.0000
     10 H1         2.0198    4.1632    2.6910 H         1 RES1    0.0000
     11 C3         3.8803    4.9216    2.2938 C.ar      1 RES1    0.0000
     12 H2         4.3693    4.2323    2.7258 H         1 RES1    0.0000
     13 C4         4.5572    5.9712    1.6831 C.ar      1 RES1    0.0000
     14 C5         3.8484    6.9884    1.0601 C.ar      1 RES1    0.0000
     15 H3         4.3145    7.7113    0.6554 H         1 RES1    0.0000
     16 C6         2.4605    6.9528    1.0272 C.ar      1 RES1    0.0000
     17 H4         1.9658    7.6406    0.5968 H         1 RES1    0.0000
     18 C7         6.0715    6.0086    1.7076 C.3       1 RES1    0.0000
     19 H5         6.4218    5.0831    1.7318 H         1 RES1    0.0000
     20 H6         6.4017    6.4398    0.8787 H         1 RES1    0.0000
     21 C8         7.0118    6.2500    4.0354 C.2       1 RES1    0.0000
     22 H7         7.0731    5.3367    4.2909 H         1 RES1    0.0000
     23 C9         7.3509    7.3481    4.7750 C.2       1 RES1    0.0000
     24 C10        7.9130    7.4000    6.1508 C.3       1 RES1    0.0000
     25 H8         7.4082    8.0501    6.7019 H         1 RES1    0.0000
     26 H9         7.8508    6.5100    6.5792 H         1 RES1    0.0000
     27 C11       10.0122    7.8437    7.2115 C.ar      1 RES1    0.0000
     28 C12       11.3200    8.3404    7.0744 C.ar      1 RES1    0.0000
     29 C13       12.0837    8.4190    8.2363 C.ar      1 RES1    0.0000
     30 H10       12.9680    8.7612    8.1828 H         1 RES1    0.0000
     31 C14       11.5924    8.0099    9.4707 C.ar      1 RES1    0.0000
     32 H11       12.1458    8.0767   10.2404 H         1 RES1    0.0000
     33 C15       10.3049    7.5075    9.5935 C.ar      1 RES1    0.0000
     34 C16        9.5192    7.4331    8.4428 C.ar      1 RES1    0.0000
     35 H12        8.6337    7.0960    8.5032 H         1 RES1    0.0000
     36 C17       11.8355    8.7520    5.7011 C.3       1 RES1    0.0000
     37 H13       11.0975    9.2430    5.2374 H         1 RES1    0.0000
     38 C18       13.0431    9.6828    5.7564 C.3       1 RES1    0.0000
     39 H14       13.8158    9.1952    6.1087 H         1 RES1    0.0000
     40 H15       12.8425   10.4436    6.3412 H         1 RES1    0.0000
     41 H16       13.2455   10.0092    4.8548 H         1 RES1    0.0000
     42 C19       12.1640    7.5164    4.8621 C.3       1 RES1    0.0000
     43 H17       11.3601    6.9630    4.7669 H         1 RES1    0.0000
     44 H18       12.8672    6.9970    5.3051 H         1 RES1    0.0000
     45 H19       12.4744    7.7960    3.9761 H         1 RES1    0.0000
     46 C20        9.7407    7.0432   10.9108 C.3       1 RES1    0.0000
     47 H20        9.8579    6.0731   10.9928 H         1 RES1    0.0000
     48 H21        8.7856    7.2611   10.9525 H         1 RES1    0.0000
     49 H22       10.2101    7.4922   11.6445 H         1 RES1    0.0000
     50 O4        13.7472    1.4175    1.0557 O.2       2 RES2    0.0000
     51 O5        13.7423   -0.5250    1.9767 O.2       2 RES2    0.0000
     52 O6         4.1930    2.3449    6.0784 O.3       2 RES2    0.0000
     53 N5        13.1709    0.4580    1.5357 N.pl3     2 RES2    0.0000
     54 N6         6.9359    1.3016    2.9288 N.pl3     2 RES2    0.0000
     55 N7         6.8754    2.6401    2.9171 N.2       2 RES2    0.0000
     56 N8         6.3929    3.0086    4.0852 N.2       2 RES2    0.0000
     57 C21       11.6990    0.4958    1.6113 C.ar      2 RES2    0.0000
     58 C22       11.0458   -0.5210    2.2687 C.ar      2 RES2    0.0000
     59 H23       11.5310   -1.2288    2.6745 H         2 RES2    0.0000
     60 C23        9.6555   -0.4866    2.3238 C.ar      2 RES2    0.0000
     61 H24        9.1830   -1.1773    2.7734 H         2 RES2    0.0000
     62 C24        8.9542    0.5539    1.7259 C.ar      2 RES2    0.0000
     63 C25        9.6484    1.5687    1.0832 C.ar      2 RES2    0.0000
     64 H25        9.1676    2.2837    0.6846 H         2 RES2    0.0000
     65 C26       11.0324    1.5547    1.0138 C.ar      2 RES2    0.0000
     66 H26       11.5084    2.2483    0.5712 H         2 RES2    0.0000
     67 C27        7.4424    0.5718    1.7607 C.3       2 RES2    0.0000
     68 H27        7.1014    0.9989    0.9354 H         2 RES2    0.0000
     69 H28        7.1047   -0.3591    1.7848 H         2 RES2    0.0000
     70 C28        6.4882    0.7980    4.0879 C.2       2 RES2    0.0000
     71 H29        6.4272   -0.1157    4.3404 H         2 RES2    0.0000
     72 C29        6.1385    1.8955    4.8251 C.2       2 RES2    0.0000
     73 C30        5.5637    1.9563    6.1948 C.3       2 RES2    0.0000
     74 H30        5.6302    1.0699    6.6323 H         2 RES2    0.0000
     75 H31        6.0585    2.6144    6.7440 H         2 RES2    0.0000
     76 C31        3.4583    2.3816    7.2446 C.ar      2 RES2    0.0000
     77 C32        2.1460    2.8828    7.1015 C.ar      2 RES2    0.0000
     78 C33        1.3869    2.9631    8.2604 C.ar      2 RES2    0.0000
     79 H32        0.5037    3.3097    8.2066 H         2 RES2    0.0000
     80 C34        1.8743    2.5531    9.4989 C.ar      2 RES2    0.0000
     81 H33        1.3209    2.6223   10.2679 H         2 RES2    0.0000
     82 C35        3.1600    2.0437    9.6239 C.ar      2 RES2    0.0000
     83 C36        3.9469    1.9742    8.4761 C.ar      2 RES2    0.0000
     84 H34        4.8344    1.6408    8.5398 H         2 RES2    0.0000
     85 C37        1.6383    3.2982    5.7304 C.3       2 RES2    0.0000
     86 H35        2.3786    3.7910    5.2740 H         2 RES2    0.0000
     87 C38        1.3149    2.0673    4.8793 C.3       2 RES2    0.0000
     88 H36        1.0316    2.3540    3.9852 H         2 RES2    0.0000
     89 H37        0.5927    1.5573    5.3033 H         2 RES2    0.0000
     90 H38        2.1124    1.5034    4.8035 H         2 RES2    0.0000
     91 C39        0.4336    4.2313    5.7856 C.3       2 RES2    0.0000
     92 H39        0.6449    5.0038    6.3504 H         2 RES2    0.0000
     93 H40       -0.3342    3.7522    6.1600 H         2 RES2    0.0000
     94 H41        0.2164    4.5388    4.8804 H         2 RES2    0.0000
     95 C40        3.7156    1.5859   10.9465 C.3       2 RES2    0.0000
     96 H42        3.5791    0.6196   11.0422 H         2 RES2    0.0000
     97 H43        3.2552    2.0537   11.6738 H         2 RES2    0.0000
     98 H44        4.6740    1.7860   10.9855 H         2 RES2    0.0000
@<TRIPOS>BOND
     1    1    4 2
     2    2    4 2
     3    3   24 1
     4    4    8 1
     5    5    6 1
     6    6    7 2
     7    7   23 1
     8    8    9 ar
     9    9   10 1
    10   11    9 ar
    11   12   11 1
    12   13   11 ar
    13   14   13 ar
    14   15   14 1
    15   16    8 ar
    16   17   16 1
    17   18    5 1
    18   19   18 1
    19   20   18 1
    20   21    5 1
    21   22   21 1
    22   23   21 2
    23   24   23 1
    24   25   24 1
    25   26   24 1
    26   27    3 1
    27   28   27 ar
    28   29   28 ar
    29   30   29 1
    30   31   29 ar
    31   32   31 1
    32   33   31 ar
    33   34   27 ar
    34   35   34 1
    35   36   28 1
    36   37   36 1
    37   38   36 1
    38   39   38 1
    39   40   38 1
    40   41   38 1
    41   42   36 1
    42   43   42 1
    43   44   42 1
    44   45   42 1
    45   46   33 1
    46   47   46 1
    47   48   46 1
    48   49   46 1
    49   50   53 2
    50   51   53 2
    51   52   73 1
    52   53   57 1
    53   54   55 1
    54   55   56 2
    55   56   72 1
    56   57   58 ar
    57   58   59 1
    58   60   58 ar
    59   61   60 1
    60   62   60 ar
    61   63   62 ar
    62   64   63 1
    63   65   57 ar
    64   66   65 1
    65   67   54 1
    66   68   67 1
    67   69   67 1
    68   70   54 1
    69   71   70 1
    70   72   70 2
    71   73   72 1
    72   74   73 1
    73   75   73 1
    74   76   52 1
    75   77   76 ar
    76   78   77 ar
    77   79   78 1
    78   80   78 ar
    79   81   80 1
    80   82   80 ar
    81   83   76 ar
    82   84   83 1
    83   85   77 1
    84   86   85 1
    85   87   85 1
    86   88   87 1
    87   89   87 1
    88   90   87 1
    89   91   85 1
    90   92   91 1
    91   93   91 1
    92   94   91 1
    93   95   82 1
    94   96   95 1
    95   97   95 1
    96   98   95 1
    97   13   18 1
    98   14   16 ar
    99   33   34 ar
   100   62   67 1
   101   63   65 ar
   102   82   83 ar
@<TRIPOS>SUBSTRUCTURE
     1 RES1 1
     2 RES2 50

@<TRIPOS>CRYSIN
   9.4118   10.8934   18.6996 101.6290  91.7520  90.3510   2 1

