# MOL2 file generated by ConQuest
# Please check atom types

@<TRIPOS>MOLECULE
LAYFUP
    36    28     2
SMALL
NO_CHARGES
****
Generated from CSD

@<TRIPOS>ATOM
      1 O1         2.0853    5.5607   12.7543 O.3       1 RES1    0.0000
      2 H1         1.8344    5.0818   13.4367 H         1 RES1    0.0000
      3 N1         0.9085    6.1127   12.2324 N.2       1 RES1    0.0000
      4 C1         1.0940    6.7815   11.1485 C.2       1 RES1    0.0000
      5 C2         2.4605    6.9631   10.5066 C.3       1 RES1    0.0000
      6 H2         2.9806    6.1526   10.7745 H         1 RES1    0.0000
      7 C3         3.2057    8.1296   11.1375 C.3       1 RES1    0.0000
      8 H3         4.1140    8.1728   10.7733 H         1 RES1    0.0000
      9 H4         3.2493    8.0036   12.1086 H         1 RES1    0.0000
     10 H5         2.7341    8.9658   10.9372 H         1 RES1    0.0000
     11 C4         2.4511    6.9351    8.9954 C.3       1 RES1    0.0000
     12 H6         3.3633    7.1333    8.6674 H         1 RES1    0.0000
     13 H7         1.8528    7.6521    8.6674 H         1 RES1    0.0000
     14 C5         1.9972    5.6122    8.4080 C.3       1 RES1    0.0000
     15 H8         2.0165    5.6651    7.4291 H         1 RES1    0.0000
     16 H9         2.5979    4.8978    8.7081 H         1 RES1    0.0000
     17 H10        1.0837    5.4185    8.7069 H         1 RES1    0.0000
     18 C6        -0.1452    7.3797   10.5842 C.ar      1 RES1    0.0000
     19 C7        -0.1663    8.7044   10.1384 C.ar      1 RES1    0.0000
     20 H11        0.6219    9.2308   10.1858 H         1 RES1    0.0000
     21 C8        -1.3339    9.2545    9.6267 C.ar      1 RES1    0.0000
     22 H12       -1.3431   10.1599    9.3411 H         1 RES1    0.0000
     23 C9        -2.4866    8.4887    9.5302 C.ar      1 RES1    0.0000
     24 H13       -3.2787    8.8628    9.1616 H         1 RES1    0.0000
     25 C10       -2.4798    7.1732    9.9752 C.ar      1 RES1    0.0000
     26 H14       -3.2695    6.6494    9.9166 H         1 RES1    0.0000
     27 C11       -1.3176    6.6207   10.5071 C.ar      1 RES1    0.0000
     28 H15       -1.3210    5.7239   10.8188 H         1 RES1    0.0000
     29 H16        2.1214    7.4884    9.7515 Du        2 SUP2    0.0000
     30 C12        3.0303    5.9447    9.6797 Du        2 SUP2    0.0000
     31 H17        3.2750    5.1867   10.2672 Du        2 SUP2    0.0000
     32 H18        3.8730    6.3035    9.3040 Du        2 SUP2    0.0000
     33 C13        2.2226    5.3872    8.5322 Du        2 SUP2    0.0000
     34 H19        2.7470    4.7046    8.0644 Du        2 SUP2    0.0000
     35 H20        1.3965    4.9861    8.8768 Du        2 SUP2    0.0000
     36 H21        1.9981    6.1103    7.9089 Du        2 SUP2    0.0000
@<TRIPOS>BOND
     1    1    2 1
     2    3    1 1
     3    4    3 2
     4    5    4 1
     5    6    5 1
     6    7    5 1
     7    8    7 1
     8    9    7 1
     9   10    7 1
    10   11    5 1
    11   12   11 1
    12   13   11 1
    13   14   11 1
    14   15   14 1
    15   16   14 1
    16   17   14 1
    17   18    4 1
    18   19   18 ar
    19   20   19 1
    20   21   19 ar
    21   22   21 1
    22   23   21 ar
    23   24   23 1
    24   25   23 ar
    25   26   25 1
    26   27   18 ar
    27   28   27 1
    28   25   27 ar
@<TRIPOS>SUBSTRUCTURE
     1 RES1 1
     2 SUP2 29

@<TRIPOS>CRYSIN
  18.3990   18.3990   11.9650  90.0000  90.0000  90.0000  88 1

