# MOL2 file generated by ConQuest
# Please check atom types

@<TRIPOS>MOLECULE
LAYHOI
    50    53     1
SMALL
NO_CHARGES
****
Generated from CSD

@<TRIPOS>ATOM
      1 O1         7.3348    8.3648    0.3528 O.2       1 RES1    0.0000
      2 N1         7.3836    8.8231    1.5475 N.pl3     1 RES1    0.0000
      3 N2         6.2251    9.7500    4.7833 N.2       1 RES1    0.0000
      4 C1         6.1893    9.0720    2.4090 C.3       1 RES1    0.0000
      5 C2         6.9176    9.4910    3.7444 C.2       1 RES1    0.0000
      6 C3         8.3556    9.5291    3.4923 C.ar      1 RES1    0.0000
      7 C4         9.4423    9.9176    4.2660 C.ar      1 RES1    0.0000
      8 C5        10.7069    9.8872    3.6925 C.ar      1 RES1    0.0000
      9 C6        10.9062    9.4923    2.3646 C.ar      1 RES1    0.0000
     10 C7         9.8467    9.1088    1.5865 C.ar      1 RES1    0.0000
     11 C8         8.5778    9.1406    2.1601 C.ar      1 RES1    0.0000
     12 C9         5.3434    7.7566    2.5269 C.3       1 RES1    0.0000
     13 C10        6.2724    6.5974    2.9090 C.3       1 RES1    0.0000
     14 C11        4.2237    7.8798    3.5680 C.3       1 RES1    0.0000
     15 C12        4.6337    7.4404    1.1926 C.3       1 RES1    0.0000
     16 C13        5.4323   10.3265    1.8581 C.ar      1 RES1    0.0000
     17 C14        4.4875   10.9639    2.6319 C.ar      1 RES1    0.0000
     18 C15        3.8294   12.1015    2.1211 C.ar      1 RES1    0.0000
     19 C16        4.1463   12.5903    0.8723 C.ar      1 RES1    0.0000
     20 C17        5.0638   11.9504    0.1364 C.ar      1 RES1    0.0000
     21 C18        5.7162   10.8204    0.6082 C.ar      1 RES1    0.0000
     22 C19        6.8603   10.1551    5.9856 C.ar      1 RES1    0.0000
     23 C20        6.9004   11.5048    6.3038 C.ar      1 RES1    0.0000
     24 C21        7.4595   11.9060    7.5235 C.ar      1 RES1    0.0000
     25 C22        7.9155   10.9372    8.4228 C.ar      1 RES1    0.0000
     26 C23        7.8380    9.6142    8.1176 C.ar      1 RES1    0.0000
     27 C24        7.2961    9.1952    6.8947 C.ar      1 RES1    0.0000
     28 H1         9.2617   10.1957    5.2811 H         1 RES1    0.0000
     29 H2        11.3406   10.1068    4.1989 H         1 RES1    0.0000
     30 H3        11.9140    9.4466    2.0562 H         1 RES1    0.0000
     31 H4         9.9212    8.9260    0.6493 H         1 RES1    0.0000
     32 H5         6.9965    6.6405    2.2402 H         1 RES1    0.0000
     33 H6         6.6380    6.8691    3.7119 H         1 RES1    0.0000
     34 H7         5.5914    5.6883    3.0734 H         1 RES1    0.0000
     35 H8         3.6129    7.0722    3.6795 H         1 RES1    0.0000
     36 H9         3.2975    8.4943    3.3873 H         1 RES1    0.0000
     37 H10        4.7025    7.8975    4.5561 H         1 RES1    0.0000
     38 H11        3.7420    8.2150    0.9199 H         1 RES1    0.0000
     39 H12        4.0860    6.3993    1.3852 H         1 RES1    0.0000
     40 H13        5.1900    7.3643    0.5519 H         1 RES1    0.0000
     41 H14        4.3441   10.6909    3.5063 H         1 RES1    0.0000
     42 H15        3.2115   12.5954    2.6947 H         1 RES1    0.0000
     43 H16        3.6559   13.4715    0.5411 H         1 RES1    0.0000
     44 H17        5.2187   12.2272   -0.7792 H         1 RES1    0.0000
     45 H18        6.2509   10.3100    0.0108 H         1 RES1    0.0000
     46 H19        6.3370   12.2145    5.5300 H         1 RES1    0.0000
     47 H20        7.5413   13.0144    7.6512 H         1 RES1    0.0000
     48 H21        8.4158   11.3384    9.4260 H         1 RES1    0.0000
     49 H22        8.0861    8.9133    8.7658 H         1 RES1    0.0000
     50 H23        7.3262    8.0880    6.5257 H         1 RES1    0.0000
@<TRIPOS>BOND
     1    1    2 1
     2    2    4 1
     3    3    5 2
     4    4    5 1
     5    5    6 1
     6    6    7 ar
     7    7    8 ar
     8    8    9 ar
     9    9   10 ar
    10   10   11 ar
    11   11    2 1
    12   12    4 1
    13   13   12 1
    14   14   12 1
    15   15   12 1
    16   16    4 1
    17   17   16 ar
    18   18   17 ar
    19   19   18 ar
    20   20   19 ar
    21   21   16 ar
    22   22    3 1
    23   23   22 ar
    24   24   23 ar
    25   25   24 ar
    26   26   25 ar
    27   27   22 ar
    28   28    7 1
    29   29    8 1
    30   30    9 1
    31   31   10 1
    32   32   13 1
    33   33   13 1
    34   34   13 1
    35   35   14 1
    36   36   14 1
    37   37   14 1
    38   38   15 1
    39   39   15 1
    40   40   15 1
    41   41   17 1
    42   42   18 1
    43   43   19 1
    44   44   20 1
    45   45   21 1
    46   46   23 1
    47   47   24 1
    48   48   25 1
    49   49   26 1
    50   50   27 1
    51    6   11 ar
    52   20   21 ar
    53   26   27 ar
@<TRIPOS>SUBSTRUCTURE
     1 RES1 1

@<TRIPOS>CRYSIN
  14.3370   12.6970   10.8220  90.0000  90.0000  90.0000  19 1

