# MOL2 file generated by ConQuest
# Please check atom types

@<TRIPOS>MOLECULE
LAYHIC
    37    40     1
SMALL
NO_CHARGES
****
Generated from CSD

@<TRIPOS>ATOM
      1 O1         1.5895    0.5329   15.7837 O.2       1 RES1    0.0000
      2 N1         1.6076    0.3037   14.5217 N.pl3     1 RES1    0.0000
      3 N2         0.8649    0.6578   11.1311 N.2       1 RES1    0.0000
      4 C1         0.8971    0.9168   13.5557 C.2       1 RES1    0.0000
      5 C2         1.3215    0.2930   12.2678 C.2       1 RES1    0.0000
      6 C3         2.3100   -0.7594   12.6179 C.ar      1 RES1    0.0000
      7 C4         3.0148   -1.7140   11.9026 C.ar      1 RES1    0.0000
      8 C5         3.8315   -2.5957   12.6135 C.ar      1 RES1    0.0000
      9 C6         3.9373   -2.5239   13.9879 C.ar      1 RES1    0.0000
     10 C7         3.2355   -1.5826   14.7162 C.ar      1 RES1    0.0000
     11 C8         2.4357   -0.7307   13.9966 C.ar      1 RES1    0.0000
     12 C9        -0.0570    1.9937   13.7783 C.ar      1 RES1    0.0000
     13 C10       -0.6189    2.6851   12.6957 C.ar      1 RES1    0.0000
     14 C11       -1.5012    3.7152   12.8793 C.ar      1 RES1    0.0000
     15 C12       -1.8858    4.0959   14.1521 C.ar      1 RES1    0.0000
     16 C13       -1.3529    3.4285   15.2305 C.ar      1 RES1    0.0000
     17 C14       -0.4614    2.3936   15.0619 C.ar      1 RES1    0.0000
     18 C15        1.3409    0.0335    9.9404 C.ar      1 RES1    0.0000
     19 C16        0.6574   -1.0397    9.3980 C.ar      1 RES1    0.0000
     20 C17        1.1039   -1.6060    8.2225 C.ar      1 RES1    0.0000
     21 C18        2.1862   -1.0950    7.5569 C.ar      1 RES1    0.0000
     22 C19        2.8377   -0.0112    8.0734 C.ar      1 RES1    0.0000
     23 C20        2.4111    0.5616    9.2619 C.ar      1 RES1    0.0000
     24 H1         2.9920   -1.7656   10.8913 H         1 RES1    0.0000
     25 H2         4.3177   -3.2653   12.1230 H         1 RES1    0.0000
     26 H3         4.5409   -3.1695   14.4568 H         1 RES1    0.0000
     27 H4         3.2890   -1.5050   15.6886 H         1 RES1    0.0000
     28 H5        -0.3445    2.4410   11.7773 H         1 RES1    0.0000
     29 H6        -1.8488    4.2384   12.0798 H         1 RES1    0.0000
     30 H7        -2.5072    4.8341   14.2840 H         1 RES1    0.0000
     31 H8        -1.6743    3.6481   16.1856 H         1 RES1    0.0000
     32 H9        -0.0953    1.8613   15.8183 H         1 RES1    0.0000
     33 H10       -0.1010   -1.4359    9.8324 H         1 RES1    0.0000
     34 H11        0.6066   -2.3399    7.8875 H         1 RES1    0.0000
     35 H12        2.5408   -1.4678    6.7422 H         1 RES1    0.0000
     36 H13        3.6343    0.4042    7.6498 H         1 RES1    0.0000
     37 H14        2.8588    1.3348    9.6163 H         1 RES1    0.0000
@<TRIPOS>BOND
     1    1    2 1
     2    2    4 2
     3    3    5 2
     4    4    5 1
     5    5    6 1
     6    6    7 ar
     7    7    8 ar
     8    8    9 ar
     9    9   10 ar
    10   10   11 ar
    11   11    2 1
    12   12    4 1
    13   13   12 ar
    14   14   13 ar
    15   15   14 ar
    16   16   15 ar
    17   17   12 ar
    18   18    3 1
    19   19   18 ar
    20   20   19 ar
    21   21   20 ar
    22   22   21 ar
    23   23   18 ar
    24   24    7 1
    25   25    8 1
    26   26    9 1
    27   27   10 1
    28   28   13 1
    29   29   14 1
    30   30   15 1
    31   31   16 1
    32   32   17 1
    33   33   19 1
    34   34   20 1
    35   35   21 1
    36   36   22 1
    37   37   23 1
    38    6   11 ar
    39   16   17 ar
    40   22   23 ar
@<TRIPOS>SUBSTRUCTURE
     1 RES1 1

@<TRIPOS>CRYSIN
  12.8880    5.3180   21.8790  90.0000  99.0000  90.0000  14 1

