# MOL2 file generated by ConQuest
# Please check atom types

@<TRIPOS>MOLECULE
LAYRUA
    40    41     1
SMALL
NO_CHARGES
****
Generated from CSD

@<TRIPOS>ATOM
      1 O1         1.7338    0.6188   14.1594 O.3       1 RES1    0.0000
      2 H1         2.1231   -0.0943   14.2711 H         1 RES1    0.0000
      3 O2         4.3632    3.4085   15.7881 O.3       1 RES1    0.0000
      4 O3         5.3867    3.6691   13.8292 O.2       1 RES1    0.0000
      5 N1         3.0863    4.6238   12.6213 N.3       1 RES1    0.0000
      6 N2         2.6616    1.6645   14.1714 N.2       1 RES1    0.0000
      7 C1         4.3893    3.6808   14.4788 C.2       1 RES1    0.0000
      8 C2         2.1244    2.7908   14.0142 C.2       1 RES1    0.0000
      9 C3         3.0014    4.0271   13.9782 C.3       1 RES1    0.0000
     10 C4         3.6596    4.3567   10.2292 C.ar      1 RES1    0.0000
     11 C5         1.4234    5.8609   13.8024 C.3       1 RES1    0.0000
     12 H2         1.5258    6.8250   13.8475 H         1 RES1    0.0000
     13 H3         0.5010    5.6355   14.0014 H         1 RES1    0.0000
     14 C6         3.3632    3.6677   11.5344 C.3       1 RES1    0.0000
     15 H4         2.5960    3.0848   11.4195 H         1 RES1    0.0000
     16 H5         4.1218    3.1154   11.7816 H         1 RES1    0.0000
     17 C7         2.3632    5.1773   14.7796 C.3       1 RES1    0.0000
     18 H6         1.8749    4.8342   15.5440 H         1 RES1    0.0000
     19 H7         3.0422    5.7947   15.0932 H         1 RES1    0.0000
     20 C8         1.8154    5.3451   12.4278 C.3       1 RES1    0.0000
     21 H8         1.1338    4.7485   12.0803 H         1 RES1    0.0000
     22 H9         1.9311    6.0814   11.8069 H         1 RES1    0.0000
     23 C9         5.5920    2.8937   16.3577 C.3       1 RES1    0.0000
     24 H10        6.2388    3.6091   16.4547 H         1 RES1    0.0000
     25 H11        5.9699    2.2150   15.7776 H         1 RES1    0.0000
     26 C10        2.7880    4.2682    9.1759 C.ar      1 RES1    0.0000
     27 H12        1.9799    3.8223    9.2938 H         1 RES1    0.0000
     28 C11        4.8308    5.0327   10.0251 C.ar      1 RES1    0.0000
     29 H13        5.4435    5.1160   10.7206 H         1 RES1    0.0000
     30 C12        3.0736    4.8220    7.9438 C.ar      1 RES1    0.0000
     31 H14        2.4636    4.7448    7.2460 H         1 RES1    0.0000
     32 C13        4.2315    5.4737    7.7530 C.ar      1 RES1    0.0000
     33 H15        4.4301    5.8388    6.9201 H         1 RES1    0.0000
     34 C14        5.2723    2.3105   17.6838 C.3       1 RES1    0.0000
     35 H16        6.0749    1.9687   18.0843 H         1 RES1    0.0000
     36 H17        4.6408    1.5951   17.5755 H         1 RES1    0.0000
     37 H18        4.8950    2.9880   18.2490 H         1 RES1    0.0000
     38 C15        5.1117    5.5975    8.7791 C.ar      1 RES1    0.0000
     39 H19        5.9071    6.0618    8.6510 H         1 RES1    0.0000
     40 H20        1.1171    2.8631   13.9090 H         1 RES1    0.0000
@<TRIPOS>BOND
     1    1    2 1
     2    3    7 1
     3    4    7 2
     4    5    9 1
     5    6    1 1
     6    7    9 1
     7    8    6 2
     8    9    8 1
     9   10   14 1
    10   11   12 1
    11   13   11 1
    12   14    5 1
    13   15   14 1
    14   16   14 1
    15   17    9 1
    16   18   17 1
    17   19   17 1
    18   20    5 1
    19   21   20 1
    20   22   20 1
    21   23    3 1
    22   24   23 1
    23   25   23 1
    24   26   10 ar
    25   27   26 1
    26   28   10 ar
    27   29   28 1
    28   30   26 ar
    29   31   30 1
    30   32   30 ar
    31   33   32 1
    32   34   23 1
    33   35   34 1
    34   36   34 1
    35   37   34 1
    36   38   28 ar
    37   39   38 1
    38   40    8 1
    39   11   17 1
    40   11   20 1
    41   32   38 ar
@<TRIPOS>SUBSTRUCTURE
     1 RES1 1

@<TRIPOS>CRYSIN
   6.6890   12.2510   18.1060  90.0000  90.0000  90.0000  19 1

