# MOL2 file generated by ConQuest
# Please check atom types

@<TRIPOS>MOLECULE
LAYSUC
    62    57     2
SMALL
USER_CHARGES
****
Generated from CSD

@<TRIPOS>ATOM
      1 N1         3.2341   10.5250    7.9509 N.pl3     1 RES1    1.0000
      2 O1         3.0276    9.3501    8.3705 O.2       1 RES1   -1.0000
      3 C1         2.7358   11.2154    6.7035 C.3       1 RES1    0.0000
      4 C2         3.5009   12.4736    7.2674 C.3       1 RES1    0.0000
      5 H1         2.8573   13.1527    7.5611 H         1 RES1    0.0000
      6 C3         3.8634   11.5772    8.4188 C.2       1 RES1    0.0000
      7 C4         3.3701   10.6699    5.4463 C.2       1 RES1    0.0000
      8 O2         4.3726   10.0240    5.4094 O.2       1 RES1    0.0000
      9 C5         3.1636   10.6786    3.0924 C.3       1 RES1    0.0000
     10 H2         3.9137   11.2309    2.8256 H         1 RES1    0.0000
     11 H3         3.4669    9.7586    3.1394 H         1 RES1    0.0000
     12 O3         2.6827   11.1018    4.3938 O.3       1 RES1    0.0000
     13 C6         2.1234   10.7901    2.1366 C.3       1 RES1    0.0000
     14 H4         1.3747   10.2571    2.4144 H         1 RES1    0.0000
     15 H5         2.4384   10.4818    1.2840 H         1 RES1    0.0000
     16 H6         1.8525   11.7092    2.0644 H         1 RES1    0.0000
     17 C7         1.2038   11.3505    6.6600 C.2       1 RES1    0.0000
     18 O4         0.7482   12.4750    6.6455 O.2       1 RES1    0.0000
     19 C8         4.5731   11.7432    9.6692 C.ar      1 RES1    0.0000
     20 C9         4.8368   13.0213   10.1223 C.ar      1 RES1    0.0000
     21 H7         4.5926   13.7548    9.6037 H         1 RES1    0.0000
     22 C10        5.4538   13.2198   11.3266 C.ar      1 RES1    0.0000
     23 H8         5.6208   14.0862   11.6236 H         1 RES1    0.0000
     24 C11        5.8293   12.1469   12.1003 C.ar      1 RES1    0.0000
     25 H9         6.2487   12.2854   12.9185 H         1 RES1    0.0000
     26 C12        5.5834   10.8797   11.6606 C.ar      1 RES1    0.0000
     27 H10        5.8454   10.1533   12.1783 H         1 RES1    0.0000
     28 C13        4.9525   10.6656   10.4597 C.ar      1 RES1    0.0000
     29 H11        4.7787    9.7990   10.1752 H         1 RES1    0.0000
     30 C14        0.3193   10.1764    6.7301 C.ar      1 RES1    0.0000
     31 C15       -0.9450   10.3683    7.2749 C.ar      1 RES1    0.0000
     32 H12       -1.2024   11.2309    7.5091 H         1 RES1    0.0000
     33 C16       -1.8294    9.3429    7.4822 C.ar      1 RES1    0.0000
     34 H13       -2.6620    9.5051    7.8624 H         1 RES1    0.0000
     35 C17       -1.4627    8.0607    7.1163 C.ar      1 RES1    0.0000
     36 C18       -3.5009    7.1212    7.9085 C.3       1 RES1    0.0000
     37 H14       -3.3777    7.4710    8.7939 H         1 RES1    0.0000
     38 H15       -3.9428    6.2695    7.9597 H         1 RES1    0.0000
     39 H16       -4.0370    7.7303    7.3958 H         1 RES1    0.0000
     40 O5        -2.2313    6.9604    7.2807 O.3       1 RES1    0.0000
     41 C19       -0.2314    7.8325    6.5213 C.ar      1 RES1    0.0000
     42 H17       -0.0022    6.9725    6.2511 H         1 RES1    0.0000
     43 C20        2.3633    7.4058    5.5261 C.3       1 RES1    0.0000
     44 H18        2.3958    6.9523    6.3720 H         1 RES1    0.0000
     45 H19        3.2480    7.4623    5.1585 H         1 RES1    0.0000
     46 H20        1.7968    6.9178    4.9235 H         1 RES1    0.0000
     47 O6         1.8430    8.7133    5.7083 O.3       1 RES1    0.0000
     48 C21        0.6530    8.8663    6.3290 C.ar      1 RES1    0.0000
     49 C22        4.5560   13.1008    6.4618 C.3       1 RES1    0.0000
     50 H21        5.0907   12.3949    6.0606 H         1 RES1    0.0000
     51 H22        5.1406   13.5964    7.0618 H         1 RES1    0.0000
     52 C23        4.0973   14.0286    5.3733 C.3       1 RES1    0.0000
     53 H23        3.6231   13.5272    4.7053 H         1 RES1    0.0000
     54 H24        4.8582   14.4550    4.9730 H         1 RES1    0.0000
     55 H25        3.5154   14.6970    5.7459 H         1 RES1    0.0000
     56 C24        4.6823   13.0432    6.4030 Du        2 SUP2    0.0000
     57 H26        5.3494   12.3488    6.2998 Du        2 SUP2    0.0000
     58 H27        4.3386   13.2535    5.5185 Du        2 SUP2    0.0000
     59 C25        5.3134   14.2158    6.9376 Du        2 SUP2    0.0000
     60 H28        5.8993   14.5933    6.2763 Du        2 SUP2    0.0000
     61 H29        5.8218   13.9796    7.7164 Du        2 SUP2    0.0000
     62 H30        4.6447   14.8612    7.1768 Du        2 SUP2    0.0000
@<TRIPOS>BOND
     1    1    2 1
     2    3    1 1
     3    4    3 1
     4    5    4 1
     5    6    1 2
     6    7    3 1
     7    8    7 2
     8    9   10 1
     9   11    9 1
    10   12    7 1
    11   13    9 1
    12   14   13 1
    13   15   13 1
    14   16   13 1
    15   17    3 1
    16   18   17 2
    17   19    6 1
    18   20   19 ar
    19   21   20 1
    20   22   20 ar
    21   23   22 1
    22   24   22 ar
    23   25   24 1
    24   26   24 ar
    25   27   26 1
    26   28   19 ar
    27   29   28 1
    28   30   17 1
    29   31   30 ar
    30   32   31 1
    31   33   31 ar
    32   34   33 1
    33   35   33 ar
    34   36   37 1
    35   38   36 1
    36   39   36 1
    37   40   35 1
    38   41   35 ar
    39   42   41 1
    40   43   44 1
    41   45   43 1
    42   46   43 1
    43   47   43 1
    44   48   30 ar
    45   49    4 1
    46   50   49 1
    47   51   49 1
    48   52   49 1
    49   53   52 1
    50   54   52 1
    51   55   52 1
    52    4    6 1
    53    9   12 1
    54   26   28 ar
    55   36   40 1
    56   41   48 ar
    57   47   48 1
@<TRIPOS>SUBSTRUCTURE
     1 RES1 1
     2 SUP2 56

@<TRIPOS>CRYSIN
   8.8078   28.8120    8.5581  90.0000 101.3100  90.0000  14 1

