# MOL2 file generated by ConQuest
# Please check atom types

@<TRIPOS>MOLECULE
LAYSOV
    20    21     1
SMALL
NO_CHARGES
****
Generated from CSD

@<TRIPOS>ATOM
      1 C1         1.2840   11.1852    3.6957 C.2       1 RES1    0.0000
      2 C2         0.3605   11.9081    2.8936 C.2       1 RES1    0.0000
      3 C3        -0.5732   11.4545    1.8640 C.2       1 RES1    0.0000
      4 C4        -0.3012   10.8690    0.6177 C.2       1 RES1    0.0000
      5 C5        -1.9536   11.5315    1.8334 C.2       1 RES1    0.0000
      6 O1         1.4550   13.2210    4.1942 O.3       1 RES1    0.0000
      7 O2         0.9224    9.0688    2.9391 O.2       1 RES1    0.0000
      8 O3         2.2942    9.3511    4.6105 O.2       1 RES1    0.0000
      9 O4         1.9751   10.8008    0.7742 O.2       1 RES1    0.0000
     10 O5         1.0468   10.0891   -1.0652 O.2       1 RES1    0.0000
     11 O6        -2.4549   12.5890    3.7866 O.2       1 RES1    0.0000
     12 O7        -4.0830   11.9602    2.4757 O.2       1 RES1    0.0000
     13 N1         1.9345   11.9778    4.4881 N.2       1 RES1    0.0000
     14 N2         0.4741   13.1700    3.2139 N.2       1 RES1    0.0000
     15 N3         1.5260    9.7541    3.7492 N.pl3     1 RES1    0.0000
     16 N4         1.0013   10.5620    0.0690 N.pl3     1 RES1    0.0000
     17 N5        -1.3786   10.6083   -0.1118 N.2       1 RES1    0.0000
     18 N6        -2.3825   11.0179    0.6602 N.pl3     1 RES1    0.0000
     19 N7        -2.9001   12.0632    2.7758 N.pl3     1 RES1    0.0000
     20 H1        -3.2022   10.9767    0.3798 H         1 RES1    0.0000
@<TRIPOS>BOND
     1    1    2 1
     2    2    3 1
     3    3    4 1
     4    4   16 1
     5    5    3 2
     6    6   13 1
     7    7   15 2
     8    8   15 2
     9    9   16 2
    10   10   16 2
    11   11   19 2
    12   12   19 2
    13   13    1 2
    14   14    2 2
    15   15    1 1
    16   17    4 2
    17   18    5 1
    18   19    5 1
    19   20   18 1
    20    6   14 1
    21   17   18 1
@<TRIPOS>SUBSTRUCTURE
     1 RES1 1

@<TRIPOS>CRYSIN
   8.4109   17.9445    6.3832  90.0000 109.1890  90.0000  14 1

