# MOL2 file generated by ConQuest
# Please check atom types

@<TRIPOS>MOLECULE
LAZQOT
   111   115     1
SMALL
NO_CHARGES
****
Generated from CSD

@<TRIPOS>ATOM
      1 O1         0.9153   13.4923    8.0134 O.3       1 RES1    0.0000
      2 H1         1.7449   13.3616    8.0061 H         1 RES1    0.0000
      3 O2         3.9245    9.0175    9.0231 O.3       1 RES1    0.0000
      4 H2         4.2995    9.7644    8.9392 H         1 RES1    0.0000
      5 O3         8.6717   18.2462    6.2369 O.2       1 RES1    0.0000
      6 O4         9.2908   16.9417    4.6804 O.2       1 RES1    0.0000
      7 N1         4.1987   11.5927    9.0753 N.2       1 RES1    0.0000
      8 N2         3.3657   13.7145    7.2989 N.2       1 RES1    0.0000
      9 N3         6.3164   14.3205   10.9064 N.ar      1 RES1    0.0000
     10 N4         8.6035   17.1997    5.6561 N.pl3     1 RES1    0.0000
     11 C1         4.9556   12.8383    8.9052 C.3       1 RES1    0.0000
     12 H3         4.5827   13.5368    9.5140 H         1 RES1    0.0000
     13 C2         6.3985   12.5876    9.2612 C.ar      1 RES1    0.0000
     14 C3         7.1431   11.6214    8.6039 C.ar      1 RES1    0.0000
     15 H4         6.7356   11.1200    7.9077 H         1 RES1    0.0000
     16 C4         8.4732   11.3658    8.9332 C.ar      1 RES1    0.0000
     17 H5         8.9643   10.7112    8.4520 H         1 RES1    0.0000
     18 C5         9.0638   12.0522    9.9368 C.ar      1 RES1    0.0000
     19 H6         9.9625   11.8502   10.1701 H         1 RES1    0.0000
     20 C6         8.3882   13.0500   10.6367 C.ar      1 RES1    0.0000
     21 C7         8.9827   13.7972   11.6622 C.ar      1 RES1    0.0000
     22 H7         9.8786   13.6268   11.9271 H         1 RES1    0.0000
     23 C8         8.2533   14.7683   12.2697 C.ar      1 RES1    0.0000
     24 H8         8.6335   15.2843   12.9696 H         1 RES1    0.0000
     25 C9         6.9418   14.9995   11.8554 C.ar      1 RES1    0.0000
     26 H9         6.4611   15.6956   12.2880 H         1 RES1    0.0000
     27 C10        7.0209   13.3421   10.2819 C.ar      1 RES1    0.0000
     28 C11        4.7901   13.3007    7.4277 C.3       1 RES1    0.0000
     29 H10        4.9126   12.4927    6.8518 H         1 RES1    0.0000
     30 C12        5.8075   14.3278    6.9733 C.ar      1 RES1    0.0000
     31 C13        6.0176   15.4936    7.7193 C.ar      1 RES1    0.0000
     32 H11        5.5325   15.6396    8.5225 H         1 RES1    0.0000
     33 C14        6.9397   16.4355    7.2795 C.ar      1 RES1    0.0000
     34 H12        7.0798   17.2386    7.7679 H         1 RES1    0.0000
     35 C15        7.6344   16.1945    6.1470 C.ar      1 RES1    0.0000
     36 C16        7.4778   15.0433    5.3827 C.ar      1 RES1    0.0000
     37 H13        7.9868   14.8997    4.5930 H         1 RES1    0.0000
     38 C17        6.5396   14.1087    5.8262 C.ar      1 RES1    0.0000
     39 H14        6.4055   13.3105    5.3293 H         1 RES1    0.0000
     40 C18        3.0537   11.6433    9.6075 C.2       1 RES1    0.0000
     41 H15        2.7222   12.4903    9.8821 H         1 RES1    0.0000
     42 C19        2.2267   10.4848    9.8190 C.ar      1 RES1    0.0000
     43 C20        0.9237   10.6771   10.3512 C.ar      1 RES1    0.0000
     44 H16        0.6173   11.5581   10.5286 H         1 RES1    0.0000
     45 C21        0.0893    9.5989   10.6160 C.ar      1 RES1    0.0000
     46 C22        0.5775    8.3431   10.2831 C.ar      1 RES1    0.0000
     47 H17        0.0071    7.6008   10.4423 H         1 RES1    0.0000
     48 C23        1.8305    8.0729    9.7363 C.ar      1 RES1    0.0000
     49 C24        2.6712    9.1925    9.5176 C.ar      1 RES1    0.0000
     50 C25       -1.3192    9.7717   11.2296 C.3       1 RES1    0.0000
     51 C26       -1.3256    9.1024   12.5638 C.3       1 RES1    0.0000
     52 H18       -1.1114    8.1508   12.4532 H         1 RES1    0.0000
     53 H19       -2.2140    9.1900   12.9696 H         1 RES1    0.0000
     54 H20       -0.6576    9.5210   13.1446 H         1 RES1    0.0000
     55 C27       -2.3710    9.2655   10.2467 C.3       1 RES1    0.0000
     56 H21       -2.2114    8.3163   10.0559 H         1 RES1    0.0000
     57 H22       -2.3163    9.7790    9.4143 H         1 RES1    0.0000
     58 H23       -3.2636    9.3726   10.6391 H         1 RES1    0.0000
     59 C28       -1.6549   11.2490   11.4593 C.3       1 RES1    0.0000
     60 H24       -1.0147   11.6360   12.0923 H         1 RES1    0.0000
     61 H25       -2.5621   11.3245   11.8262 H         1 RES1    0.0000
     62 H26       -1.6074   11.7309   10.6087 H         1 RES1    0.0000
     63 C29        2.3220    6.6710    9.4447 C.3       1 RES1    0.0000
     64 C30        1.2070    5.6099    9.6987 C.3       1 RES1    0.0000
     65 H27        0.8913    5.6805   10.6233 H         1 RES1    0.0000
     66 H28        1.5696    4.7118    9.5456 H         1 RES1    0.0000
     67 H29        0.4591    5.7681    9.0851 H         1 RES1    0.0000
     68 C31        3.5107    6.3230   10.3669 C.3       1 RES1    0.0000
     69 H30        3.2343    6.4106   11.3025 H         1 RES1    0.0000
     70 H31        4.2537    6.9363   10.1859 H         1 RES1    0.0000
     71 H32        3.7990    5.4030   10.1944 H         1 RES1    0.0000
     72 C32        2.7925    6.5202    7.9708 C.3       1 RES1    0.0000
     73 H33        3.4922    7.1797    7.7837 H         1 RES1    0.0000
     74 H34        2.0339    6.6686    7.3694 H         1 RES1    0.0000
     75 H35        3.1473    5.6172    7.8323 H         1 RES1    0.0000
     76 C33        3.0166   14.6393    6.4642 C.2       1 RES1    0.0000
     77 H36        3.6802   15.0798    5.9453 H         1 RES1    0.0000
     78 C34        1.5967   15.0190    6.3111 C.ar      1 RES1    0.0000
     79 C35        0.5973   14.4324    7.0887 C.ar      1 RES1    0.0000
     80 C36       -0.7535   14.8097    6.9198 C.ar      1 RES1    0.0000
     81 C37       -0.9978   15.7637    5.9417 C.ar      1 RES1    0.0000
     82 H37       -1.9030   16.0241    5.8104 H         1 RES1    0.0000
     83 C38       -0.0400   16.3770    5.1361 C.ar      1 RES1    0.0000
     84 C39        1.2682   15.9755    5.3426 C.ar      1 RES1    0.0000
     85 H38        1.9603   16.3600    4.8153 H         1 RES1    0.0000
     86 C40       -1.8708   14.1598    7.7254 C.3       1 RES1    0.0000
     87 C41       -1.6681   14.4835    9.2284 C.3       1 RES1    0.0000
     88 H39       -0.7949   14.1477    9.5200 H         1 RES1    0.0000
     89 H40       -2.3751   14.0576    9.7546 H         1 RES1    0.0000
     90 H41       -1.7029   15.4546    9.3597 H         1 RES1    0.0000
     91 C42       -1.8812   12.6363    7.5043 C.3       1 RES1    0.0000
     92 H42       -2.0092   12.4465    6.5516 H         1 RES1    0.0000
     93 H43       -2.6142   12.2371    8.0182 H         1 RES1    0.0000
     94 H44       -1.0281   12.2591    7.8019 H         1 RES1    0.0000
     95 C43       -3.2517   14.6855    7.3220 C.3       1 RES1    0.0000
     96 H45       -3.4133   14.4884    6.3767 H         1 RES1    0.0000
     97 H46       -3.2866   15.6542    7.4642 H         1 RES1    0.0000
     98 H47       -3.9401   14.2523    7.8688 H         1 RES1    0.0000
     99 C44       -0.4390   17.4041    4.0936 C.3       1 RES1    0.0000
    100 C45        0.7224   17.9249    3.2953 C.3       1 RES1    0.0000
    101 H48        1.1993   17.1729    2.8882 H         1 RES1    0.0000
    102 H49        1.3302   18.4166    3.8858 H         1 RES1    0.0000
    103 H50        0.3929   18.5212    2.5930 H         1 RES1    0.0000
    104 C46       -1.1987   18.5869    4.7315 C.3       1 RES1    0.0000
    105 H51       -0.6107   19.0494    5.3645 H         1 RES1    0.0000
    106 H52       -1.9879   18.2486    5.2053 H         1 RES1    0.0000
    107 H53       -1.4793   19.2100    4.0304 H         1 RES1    0.0000
    108 C47       -1.4207   16.7518    3.1166 C.3       1 RES1    0.0000
    109 H54       -0.9844   15.9974    2.6695 H         1 RES1    0.0000
    110 H55       -1.7027   17.4114    2.4471 H         1 RES1    0.0000
    111 H56       -2.2055   16.4306    3.6087 H         1 RES1    0.0000
@<TRIPOS>BOND
     1    1    2 1
     2    3    4 1
     3    5   10 2
     4    6   10 2
     5    7   11 1
     6    8   28 1
     7    9   25 ar
     8   10   35 1
     9   11   12 1
    10   13   11 1
    11   14   13 ar
    12   15   14 1
    13   16   14 ar
    14   17   16 1
    15   18   16 ar
    16   19   18 1
    17   20   18 ar
    18   21   20 ar
    19   22   21 1
    20   23   21 ar
    21   24   23 1
    22   25   23 ar
    23   26   25 1
    24   27    9 ar
    25   28   11 1
    26   29   28 1
    27   30   28 1
    28   31   30 ar
    29   32   31 1
    30   33   31 ar
    31   34   33 1
    32   35   33 ar
    33   36   35 ar
    34   37   36 1
    35   38   30 ar
    36   39   38 1
    37   40    7 2
    38   41   40 1
    39   42   40 1
    40   43   42 ar
    41   44   43 1
    42   45   43 ar
    43   46   45 ar
    44   47   46 1
    45   48   46 ar
    46   49    3 1
    47   50   45 1
    48   51   50 1
    49   52   51 1
    50   53   51 1
    51   54   51 1
    52   55   50 1
    53   56   55 1
    54   57   55 1
    55   58   55 1
    56   59   50 1
    57   60   59 1
    58   61   59 1
    59   62   59 1
    60   63   48 1
    61   64   63 1
    62   65   64 1
    63   66   64 1
    64   67   64 1
    65   68   63 1
    66   69   68 1
    67   70   68 1
    68   71   68 1
    69   72   63 1
    70   73   72 1
    71   74   72 1
    72   75   72 1
    73   76    8 2
    74   77   76 1
    75   78   76 1
    76   79    1 1
    77   80   79 ar
    78   81   80 ar
    79   82   81 1
    80   83   81 ar
    81   84   78 ar
    82   85   84 1
    83   86   80 1
    84   87   86 1
    85   88   87 1
    86   89   87 1
    87   90   87 1
    88   91   86 1
    89   92   91 1
    90   93   91 1
    91   94   91 1
    92   95   86 1
    93   96   95 1
    94   97   95 1
    95   98   95 1
    96   99   83 1
    97  100   99 1
    98  101  100 1
    99  102  100 1
   100  103  100 1
   101  104   99 1
   102  105  104 1
   103  106  104 1
   104  107  104 1
   105  108   99 1
   106  109  108 1
   107  110  108 1
   108  111  108 1
   109   13   27 ar
   110   20   27 ar
   111   36   38 ar
   112   42   49 ar
   113   48   49 ar
   114   78   79 ar
   115   83   84 ar
@<TRIPOS>SUBSTRUCTURE
     1 RES1 1

@<TRIPOS>CRYSIN
  14.1133   24.3380   13.7730  90.0000 118.0900  90.0000  14 1

