# MOL2 file generated by ConQuest
# Please check atom types

@<TRIPOS>MOLECULE
LCARVX
    39    39     2
SMALL
NO_CHARGES
****
Generated from CSD

@<TRIPOS>ATOM
      1 C1         5.1084   -2.8697   -1.1778 C.2       1 RES1    0.0000
      2 C2         0.1990   -2.8615   -2.9894 C.3       1 RES1    0.0000
      3 C3         3.9512   -4.0203    3.0335 C.2       2 RES2    0.0000
      4 C4         3.2911   -2.9992    2.2267 C.2       2 RES2    0.0000
      5 C5         1.9499   -3.3166    1.6095 C.3       2 RES2    0.0000
      6 C6         1.9132   -4.8057    1.1820 C.3       2 RES2    0.0000
      7 C7         2.1963   -5.6845    2.4121 C.3       2 RES2    0.0000
      8 C8         3.4351   -5.2328    3.1217 C.2       2 RES2    0.0000
      9 C9         5.2145   -3.6294    3.7921 C.3       2 RES2    0.0000
     10 C10        0.6110   -5.1978    0.5207 C.2       2 RES2    0.0000
     11 C11        0.6163   -6.1011   -0.4525 C.2       2 RES2    0.0000
     12 C12        4.3680   -3.9678   -1.7850 C.2       1 RES1    0.0000
     13 C13       -0.6067   -4.6482    1.0364 C.3       2 RES2    0.0000
     14 C14        3.1388   -3.6644   -2.5926 C.3       1 RES1    0.0000
     15 C15        2.5507   -2.2768   -2.3273 C.3       1 RES1    0.0000
     16 C16        3.6513   -1.2452   -2.3573 C.3       1 RES1    0.0000
     17 C17        4.7713   -1.6373   -1.4323 C.2       1 RES1    0.0000
     18 C18        6.2890   -3.2408   -0.2886 C.3       1 RES1    0.0000
     19 C19        1.3969   -2.0131   -3.2614 C.2       1 RES1    0.0000
     20 C20        1.4124   -1.1250   -4.2346 C.2       1 RES1    0.0000
     21 H1         4.5215   -6.8386   -2.3123 H         1 RES1    0.0000
     22 H2         0.5121   -3.8394   -3.4768 H         1 RES1    0.0000
     23 H3        -0.3644   -2.6724   -3.6265 H         1 RES1    0.0000
     24 H4        -0.2710   -2.4857   -1.8715 H         1 RES1    0.0000
     25 H5         2.4269   -4.4696   -2.4205 H         1 RES1    0.0000
     26 H6         3.3627   -3.6994   -3.4935 H         1 RES1    0.0000
     27 H7         2.1158   -2.4040   -1.3475 H         1 RES1    0.0000
     28 H8         3.3793   -0.2801   -2.1127 H         1 RES1    0.0000
     29 H9         4.0485   -1.3187   -3.3604 H         1 RES1    0.0000
     30 H10        5.2067   -0.7586   -0.8567 H         1 RES1    0.0000
     31 H11        7.0045   -3.6060   -0.8817 H         1 RES1    0.0000
     32 H12        6.5487   -2.4507    0.2412 H         1 RES1    0.0000
     33 H13        5.8433   -3.8278    0.6321 H         1 RES1    0.0000
     34 H14        2.0607   -0.3384   -4.3668 H         1 RES1    0.0000
     35 H15        0.5782   -1.1203   -4.9491 H         1 RES1    0.0000
     36 N1         4.8582   -5.1430   -1.6735 N.2       1 RES1    0.0000
     37 N2         3.8548   -1.8415    2.1410 N.2       2 RES2    0.0000
     38 O1         4.0681   -6.1268   -2.3090 O.3       1 RES1    0.0000
     39 O2         3.0919   -0.9091    1.4107 O.3       2 RES2    0.0000
@<TRIPOS>BOND
     1    1   12 1
     2    2   19 1
     3    3    4 1
     4    4    5 1
     5    5    6 1
     6    6    7 1
     7    7    8 1
     8    8    3 2
     9    9    3 1
    10   10    6 1
    11   11   10 2
    12   12   14 1
    13   13   10 1
    14   14   15 1
    15   15   16 1
    16   16   17 1
    17   17    1 2
    18   18    1 1
    19   19   15 1
    20   20   19 2
    21   21   38 1
    22   22    2 1
    23   23    2 1
    24   24    2 1
    25   25   14 1
    26   26   14 1
    27   27   15 1
    28   28   16 1
    29   29   16 1
    30   30   17 1
    31   31   18 1
    32   32   18 1
    33   33   18 1
    34   34   20 1
    35   35   20 1
    36   36   12 2
    37   37    4 2
    38   38   36 1
    39   39   37 1
@<TRIPOS>SUBSTRUCTURE
     1 RES1 1
     2 RES2 3

@<TRIPOS>CRYSIN
  10.2400   11.6700    8.5400  90.0000 103.1000  90.0000   4 1

