# MOL2 file generated by ConQuest
# Please check atom types

@<TRIPOS>MOLECULE
LEBGEE01
    54    54     2
SMALL
NO_CHARGES
****
Generated from CSD

@<TRIPOS>ATOM
      1 O1         0.4991    3.7522    3.9795 O.2       1 RES1    0.0000
      2 O2         0.0015    5.8021    4.4840 O.2       1 RES1    0.0000
      3 O3        -3.5960    8.1025    2.5859 O.2       1 RES1    0.0000
      4 O4        -4.8852    7.1540    1.1228 O.2       1 RES1    0.0000
      5 N1        -0.9382    2.4331    2.2733 N.pl3     1 RES1    0.0000
      6 H1        -0.1965    2.4119    2.7470 H         1 RES1    0.0000
      7 N2        -1.3798    1.2881    1.6296 N.2       1 RES1    0.0000
      8 N3        -0.2080    4.7589    3.8640 N.pl3     1 RES1    0.0000
      9 N4        -3.9147    7.1395    1.8832 N.pl3     1 RES1    0.0000
     10 C1        -1.3257    4.7309    2.9284 C.ar      1 RES1    0.0000
     11 C2        -2.0655    5.8815    2.8315 C.ar      1 RES1    0.0000
     12 H2        -1.8406    6.6430    3.3554 H         1 RES1    0.0000
     13 C3        -3.1339    5.9240    1.9732 C.ar      1 RES1    0.0000
     14 C4        -3.4764    4.8215    1.1975 C.ar      1 RES1    0.0000
     15 H3        -4.2176    4.8662    0.6048 H         1 RES1    0.0000
     16 C5        -2.7422    3.6776    1.2919 C.ar      1 RES1    0.0000
     17 H4        -2.9751    2.9307    0.7505 H         1 RES1    0.0000
     18 C6        -1.6380    3.5736    2.1775 C.ar      1 RES1    0.0000
     19 C7        -0.7008    0.2236    1.8788 C.2       1 RES1    0.0000
     20 C8        -1.1390   -1.0175    1.1917 C.3       1 RES1    0.0000
     21 H5        -1.9189   -0.8230    0.6303 H         1 RES1    0.0000
     22 H6        -1.3771   -1.6940    1.8617 H         1 RES1    0.0000
     23 H7        -0.4099   -1.3552    0.6303 H         1 RES1    0.0000
     24 C9         0.4834    0.1677    2.7940 C.3       1 RES1    0.0000
     25 H8         0.8335   -0.7469    2.8198 H         1 RES1    0.0000
     26 H9         0.2122    0.4394    3.6942 H         1 RES1    0.0000
     27 H10        1.1787    0.7749    2.4664 H         1 RES1    0.0000
     28 O5         3.1918    2.1513    5.1107 O.2       2 RES2    0.0000
     29 O6         2.9767    4.1853    5.8284 O.2       2 RES2    0.0000
     30 O7        -0.7106    5.5371    8.4453 O.2       2 RES2    0.0000
     31 O8        -2.0615    4.0533    9.2748 O.2       2 RES2    0.0000
     32 N5         1.8796    0.2236    6.2998 N.pl3     2 RES2    0.0000
     33 H11        2.5457    0.3958    5.7526 H         2 RES2    0.0000
     34 N6         1.5367   -1.0880    6.5752 N.2       2 RES2    0.0000
     35 N7         2.6338    3.0067    5.8251 N.pl3     2 RES2    0.0000
     36 N8        -1.0572    4.3765    8.6282 N.pl3     2 RES2    0.0000
     37 C10        1.5221    2.6031    6.6659 C.ar      2 RES2    0.0000
     38 C11        0.8032    3.6228    7.2518 C.ar      2 RES2    0.0000
     39 H12        1.0469    4.5297    7.1079 H         2 RES2    0.0000
     40 C12       -0.2651    3.3075    8.0420 C.ar      2 RES2    0.0000
     41 C13       -0.6284    1.9870    8.2773 C.ar      2 RES2    0.0000
     42 H13       -1.3734    1.7868    8.8311 H         2 RES2    0.0000
     43 C14        0.0934    0.9806    7.7046 C.ar      2 RES2    0.0000
     44 H14       -0.1548    0.0794    7.8729 H         2 RES2    0.0000
     45 C15        1.1991    1.2400    6.8678 C.ar      2 RES2    0.0000
     46 C16        2.3018   -1.9859    6.0750 C.2       2 RES2    0.0000
     47 C17        3.5112   -1.7085    5.2411 C.3       2 RES2    0.0000
     48 H15        3.9281   -2.5561    4.9802 H         2 RES2    0.0000
     49 H16        4.1502   -1.1763    5.7599 H         2 RES2    0.0000
     50 H17        3.2478   -1.2121    4.4374 H         2 RES2    0.0000
     51 C18        1.9438   -3.4048    6.3570 C.3       2 RES2    0.0000
     52 H18        1.1356   -3.4339    6.9111 H         2 RES2    0.0000
     53 H19        2.6816   -3.8386    6.8346 H         2 RES2    0.0000
     54 H20        1.7787   -3.8733    5.5121 H         2 RES2    0.0000
@<TRIPOS>BOND
     1    1    8 2
     2    2    8 2
     3    3    9 2
     4    4    9 2
     5    5    6 1
     6    7    5 1
     7    8   10 1
     8    9   13 1
     9   10   11 ar
    10   11   12 1
    11   13   11 ar
    12   14   13 ar
    13   15   14 1
    14   16   14 ar
    15   17   16 1
    16   18    5 1
    17   19    7 2
    18   20   19 1
    19   21   20 1
    20   22   20 1
    21   23   20 1
    22   24   19 1
    23   25   24 1
    24   26   24 1
    25   27   24 1
    26   28   35 2
    27   29   35 2
    28   30   36 2
    29   31   36 2
    30   32   33 1
    31   34   32 1
    32   35   37 1
    33   36   40 1
    34   37   38 ar
    35   38   39 1
    36   40   38 ar
    37   41   40 ar
    38   42   41 1
    39   43   41 ar
    40   44   43 1
    41   45   32 1
    42   46   34 2
    43   47   46 1
    44   48   47 1
    45   49   47 1
    46   50   47 1
    47   51   46 1
    48   52   51 1
    49   53   51 1
    50   54   51 1
    51   10   18 ar
    52   16   18 ar
    53   37   45 ar
    54   43   45 ar
@<TRIPOS>SUBSTRUCTURE
     1 RES1 1
     2 RES2 28

@<TRIPOS>CRYSIN
   5.2708   11.1816   36.4901  90.0000  93.2370  90.0000 231 1

