# MOL2 file generated by ConQuest
# Please check atom types

@<TRIPOS>MOLECULE
LEBGEE03
    54    54     2
SMALL
NO_CHARGES
****
Generated from CSD

@<TRIPOS>ATOM
      1 O1        -2.2622   12.7207    1.1085 O.2       1 RES1    0.0000
      2 O2        -0.9951   13.6793    2.5617 O.2       1 RES1    0.0000
      3 O3         2.5850   11.4033    4.5337 O.2       1 RES1    0.0000
      4 O4         3.0885    9.3688    4.0673 O.2       1 RES1    0.0000
      5 N1        -1.3128   12.7184    1.8718 N.pl3     1 RES1    0.0000
      6 N2         2.3806   10.3666    3.9214 N.pl3     1 RES1    0.0000
      7 N3         1.6742    8.0244    2.3580 N.pl3     1 RES1    0.0000
      8 H1         2.2476    7.9889    2.9762 H         1 RES1    0.0000
      9 N4         1.2561    6.8849    1.6978 N.2       1 RES1    0.0000
     10 C1        -0.1214    9.2532    1.3519 C.ar      1 RES1    0.0000
     11 H2        -0.3446    8.5126    0.8350 H         1 RES1    0.0000
     12 C2        -0.8554   10.3974    1.2254 C.ar      1 RES1    0.0000
     13 H3        -1.5717   10.4337    0.6346 H         1 RES1    0.0000
     14 C3        -0.5207   11.5069    1.9895 C.ar      1 RES1    0.0000
     15 C4         0.5291   11.4760    2.8593 C.ar      1 RES1    0.0000
     16 H4         0.7404   12.2285    3.3622 H         1 RES1    0.0000
     17 C5         1.2796   10.3212    2.9885 C.ar      1 RES1    0.0000
     18 C6         0.9655    9.1666    2.2440 C.ar      1 RES1    0.0000
     19 C7         1.9426    5.8284    1.9375 C.2       1 RES1    0.0000
     20 C8         3.1113    5.7623    2.8623 C.3       1 RES1    0.0000
     21 H5         3.8409    6.2647    2.4938 H         1 RES1    0.0000
     22 H6         3.3776    4.8471    2.9762 H         1 RES1    0.0000
     23 H7         2.8669    6.1327    3.7147 H         1 RES1    0.0000
     24 C9         1.5209    4.5853    1.2309 C.3       1 RES1    0.0000
     25 H8         0.7851    4.7822    0.6457 H         1 RES1    0.0000
     26 H9         1.2507    3.9262    1.8741 H         1 RES1    0.0000
     27 H10        2.2563    4.2451    0.7162 H         1 RES1    0.0000
     28 O5         0.5993    9.6740    9.4144 O.2       2 RES2    0.0000
     29 O6         1.9448   11.1386    8.5631 O.2       2 RES2    0.0000
     30 O7         5.6031    9.7510    5.9209 O.2       2 RES2    0.0000
     31 O8         5.8046    7.7294    5.2381 O.2       2 RES2    0.0000
     32 N5         5.2497    8.5808    5.9302 N.pl3     2 RES2    0.0000
     33 N6         4.4920    5.8060    6.4330 N.pl3     2 RES2    0.0000
     34 H11        5.2012    6.0644    5.9116 H         2 RES2    0.0000
     35 N7         4.1345    4.5002    6.7169 N.2       2 RES2    0.0000
     36 N8         1.5896    9.9817    8.7602 N.pl3     2 RES2    0.0000
     37 C10        2.7117    6.5747    7.8447 C.ar      2 RES2    0.0000
     38 H12        2.4676    5.6941    8.0195 H         2 RES2    0.0000
     39 C11        2.0051    7.5828    8.4047 C.ar      2 RES2    0.0000
     40 H13        1.2739    7.3937    8.9472 H         2 RES2    0.0000
     41 C12        2.3744    8.9076    8.1668 C.ar      2 RES2    0.0000
     42 C13        3.4333    9.2164    7.3667 C.ar      2 RES2    0.0000
     43 H14        3.6701   10.1025    7.2179 H         2 RES2    0.0000
     44 C14        4.1466    8.1903    6.7841 C.ar      2 RES2    0.0000
     45 C15        3.8154    6.8342    6.9989 C.ar      2 RES2    0.0000
     46 C16        4.8967    3.5917    6.2189 C.2       2 RES2    0.0000
     47 C17        6.1061    3.8490    5.3969 C.3       2 RES2    0.0000
     48 H15        5.8538    4.3022    4.5905 H         2 RES2    0.0000
     49 H16        6.5266    3.0143    5.1768 H         2 RES2    0.0000
     50 H17        6.7197    4.3962    5.8931 H         2 RES2    0.0000
     51 C18        4.5145    2.1740    6.5143 C.3       2 RES2    0.0000
     52 H18        3.7496    2.1628    7.0954 H         2 RES2    0.0000
     53 H19        5.2481    1.7276    6.9433 H         2 RES2    0.0000
     54 H20        4.3012    1.7220    5.6964 H         2 RES2    0.0000
@<TRIPOS>BOND
     1    1    5 2
     2    2    5 2
     3    3    6 2
     4    4    6 2
     5    5   14 1
     6    6   17 1
     7    7    8 1
     8    9    7 1
     9   10   11 1
    10   12   10 ar
    11   13   12 1
    12   14   12 ar
    13   15   14 ar
    14   16   15 1
    15   17   15 ar
    16   18    7 1
    17   19    9 2
    18   20   19 1
    19   21   20 1
    20   22   20 1
    21   23   20 1
    22   24   19 1
    23   25   24 1
    24   26   24 1
    25   27   24 1
    26   28   36 2
    27   29   36 2
    28   30   32 2
    29   31   32 2
    30   32   44 1
    31   33   34 1
    32   35   33 1
    33   36   41 1
    34   37   38 1
    35   39   37 ar
    36   40   39 1
    37   41   39 ar
    38   42   41 ar
    39   43   42 1
    40   44   42 ar
    41   45   33 1
    42   46   35 2
    43   47   46 1
    44   48   47 1
    45   49   47 1
    46   50   47 1
    47   51   46 1
    48   52   51 1
    49   53   51 1
    50   54   51 1
    51   10   18 ar
    52   17   18 ar
    53   37   45 ar
    54   44   45 ar
@<TRIPOS>SUBSTRUCTURE
     1 RES1 1
     2 RES2 28

@<TRIPOS>CRYSIN
   5.3299   11.1890   37.1720  90.0000  93.3100  90.0000 231 1

