# MOL2 file generated by ConQuest
# Please check atom types

@<TRIPOS>MOLECULE
LEBGAA01
    70    69     1
SMALL
NO_CHARGES
****
Generated from CSD

@<TRIPOS>ATOM
      1 C1        15.4556    2.8832    2.6348 C.3       1 RES1    0.0000
      2 C2        15.5604    4.0853    3.5611 C.3       1 RES1    0.0000
      3 H1        14.6600    4.4792    3.6828 H         1 RES1    0.0000
      4 H2        16.1362    4.7698    3.1365 H         1 RES1    0.0000
      5 C3        16.1350    3.7320    4.9270 C.3       1 RES1    0.0000
      6 H3        15.7431    2.8764    5.2347 H         1 RES1    0.0000
      7 H4        17.1148    3.6082    4.8473 H         1 RES1    0.0000
      8 C4        15.8496    4.8045    5.9441 C.2       1 RES1    0.0000
      9 C5        16.3520    5.4050    8.2822 C.3       1 RES1    0.0000
     10 C6        16.8248    6.8072    7.9585 C.3       1 RES1    0.0000
     11 H5        17.7108    6.7651    7.5397 H         1 RES1    0.0000
     12 H6        16.8786    7.3329    8.7848 H         1 RES1    0.0000
     13 H7        16.1927    7.2311    7.3417 H         1 RES1    0.0000
     14 C7        17.2777    4.7246    9.2617 C.3       1 RES1    0.0000
     15 H8        16.9726    3.8062    9.4138 H         1 RES1    0.0000
     16 H9        17.2738    5.2155   10.1103 H         1 RES1    0.0000
     17 H10       18.1875    4.7110    8.8958 H         1 RES1    0.0000
     18 C8        14.9180    5.3795    8.7663 C.3       1 RES1    0.0000
     19 H11       14.3484    5.8512    8.1231 H         1 RES1    0.0000
     20 H12       14.8607    5.8206    9.6402 H         1 RES1    0.0000
     21 H13       14.6182    4.4509    8.8479 H         1 RES1    0.0000
     22 C9        14.5019    1.7984    3.1513 C.3       1 RES1    0.0000
     23 H14       14.3171    1.1696    2.4095 H         1 RES1    0.0000
     24 H15       14.9674    1.2895    3.8613 H         1 RES1    0.0000
     25 C10       13.1689    2.2843    3.7089 C.3       1 RES1    0.0000
     26 H16       13.3364    2.8696    4.4903 H         1 RES1    0.0000
     27 H17       12.7028    2.8210    3.0189 H         1 RES1    0.0000
     28 C11       12.2857    1.1385    4.1264 C.2       1 RES1    0.0000
     29 C12       10.0437    0.6875    5.0478 C.3       1 RES1    0.0000
     30 C13        9.6343   -0.2941    3.9701 C.3       1 RES1    0.0000
     31 H18        9.4032    0.1957    3.1539 H         1 RES1    0.0000
     32 H19        8.8554   -0.8065    4.2727 H         1 RES1    0.0000
     33 H20       10.3776   -0.9060    3.7851 H         1 RES1    0.0000
     34 C14       10.5376   -0.0113    6.2997 C.3       1 RES1    0.0000
     35 H21       11.2726   -0.6164    6.0684 H         1 RES1    0.0000
     36 H22        9.8047   -0.5260    6.6974 H         1 RES1    0.0000
     37 H23       10.8544    0.6560    6.9434 H         1 RES1    0.0000
     38 C15        8.9185    1.6514    5.3536 C.3       1 RES1    0.0000
     39 H24        9.2150    2.2961    6.0292 H         1 RES1    0.0000
     40 H25        8.1465    1.1537    5.6940 H         1 RES1    0.0000
     41 H26        8.6651    2.1276    4.5360 H         1 RES1    0.0000
     42 C16       16.8068    2.2529    2.2815 C.3       1 RES1    0.0000
     43 H27       17.2047    1.8810    3.1082 H         1 RES1    0.0000
     44 H28       16.6485    1.4976    1.6607 H         1 RES1    0.0000
     45 C17       17.8126    3.1997    1.6429 C.3       1 RES1    0.0000
     46 H29       17.4055    3.6184    0.8445 H         1 RES1    0.0000
     47 H30       18.0349    3.9204    2.2833 H         1 RES1    0.0000
     48 C18       19.0749    2.4865    1.2407 C.2       1 RES1    0.0000
     49 C19       21.2218    2.8619    0.0999 C.3       1 RES1    0.0000
     50 C20       21.0208    1.8408   -1.0008 C.3       1 RES1    0.0000
     51 H31       20.4960    1.0881   -0.6552 H         1 RES1    0.0000
     52 H32       21.8928    1.5179   -1.3103 H         1 RES1    0.0000
     53 H33       20.5420    2.2565   -1.7478 H         1 RES1    0.0000
     54 C21       21.8422    4.1327   -0.4381 C.3       1 RES1    0.0000
     55 H34       21.2801    4.4927   -1.1558 H         1 RES1    0.0000
     56 H35       22.7354    3.9362   -0.7901 H         1 RES1    0.0000
     57 H36       21.9137    4.7925    0.2830 H         1 RES1    0.0000
     58 C22       22.0534    2.3176    1.2433 C.3       1 RES1    0.0000
     59 H37       22.0747    2.9714    1.9720 H         1 RES1    0.0000
     60 H38       22.9675    2.1480    0.9316 H         1 RES1    0.0000
     61 H39       21.6565    1.4817    1.5650 H         1 RES1    0.0000
     62 N1        14.8614    3.3775    1.2992 N.pl3     1 RES1    0.0000
     63 O1        14.7595    2.5769    0.3892 O.2       1 RES1    0.0000
     64 O2        14.5071    4.5292    1.1930 O.2       1 RES1    0.0000
     65 O3        15.1426    5.7635    5.7519 O.2       1 RES1    0.0000
     66 O4        16.4825    4.5312    7.0864 O.3       1 RES1    0.0000
     67 O5        12.6202   -0.0226    4.1064 O.2       1 RES1    0.0000
     68 O6        11.0999    1.5919    4.5339 O.3       1 RES1    0.0000
     69 O7        19.3024    1.3283    1.4812 O.2       1 RES1    0.0000
     70 O8        19.8967    3.3214    0.5872 O.3       1 RES1    0.0000
@<TRIPOS>BOND
     1    1    2 1
     2    2    3 1
     3    4    2 1
     4    5    2 1
     5    6    5 1
     6    7    5 1
     7    8    5 1
     8    9   10 1
     9   10   11 1
    10   12   10 1
    11   13   10 1
    12   14    9 1
    13   15   14 1
    14   16   14 1
    15   17   14 1
    16   18    9 1
    17   19   18 1
    18   20   18 1
    19   21   18 1
    20   22    1 1
    21   23   22 1
    22   24   22 1
    23   25   22 1
    24   26   25 1
    25   27   25 1
    26   28   25 1
    27   29   30 1
    28   30   31 1
    29   32   30 1
    30   33   30 1
    31   34   29 1
    32   35   34 1
    33   36   34 1
    34   37   34 1
    35   38   29 1
    36   39   38 1
    37   40   38 1
    38   41   38 1
    39   42    1 1
    40   43   42 1
    41   44   42 1
    42   45   42 1
    43   46   45 1
    44   47   45 1
    45   48   45 1
    46   49   50 1
    47   50   51 1
    48   52   50 1
    49   53   50 1
    50   54   49 1
    51   55   54 1
    52   56   54 1
    53   57   54 1
    54   58   49 1
    55   59   58 1
    56   60   58 1
    57   61   58 1
    58   62    1 1
    59   63   62 2
    60   64   62 2
    61   65    8 2
    62   66    8 1
    63   67   28 2
    64   68   28 1
    65   69   48 2
    66   70   48 1
    67    9   66 1
    68   29   68 1
    69   49   70 1
@<TRIPOS>SUBSTRUCTURE
     1 RES1 1

@<TRIPOS>CRYSIN
  20.9100   11.3110   21.7660  90.0000  90.0000  90.0000  61 1

