# MOL2 file generated by ConQuest
# Please check atom types

@<TRIPOS>MOLECULE
LEBGEE04
    27    27     1
SMALL
NO_CHARGES
****
Generated from CSD

@<TRIPOS>ATOM
      1 O1         1.5744    1.1432    1.3336 O.2       1 RES1    0.0000
      2 O2         2.3779    1.6692    3.2621 O.2       1 RES1    0.0000
      3 O3         6.5772    3.7658    3.7703 O.2       1 RES1    0.0000
      4 O4         7.8465    4.1154    2.0539 O.2       1 RES1    0.0000
      5 N1         2.9987    1.4338   -0.8310 N.3       1 RES1    0.0000
      6 N2         3.2904    1.3252   -2.1812 N.2       1 RES1    0.0000
      7 N3         2.4819    1.5962    2.0484 N.pl3     1 RES1    0.0000
      8 N4         6.8122    3.6849    2.5787 N.pl3     1 RES1    0.0000
      9 C1         3.7031    2.0477    1.4157 C.ar      1 RES1    0.0000
     10 C2         4.6520    2.6193    2.2494 C.ar      1 RES1    0.0000
     11 C3         5.8253    3.0702    1.7035 C.ar      1 RES1    0.0000
     12 C4         6.0816    2.9335    0.3551 C.ar      1 RES1    0.0000
     13 C5         5.1558    2.3743   -0.4759 C.ar      1 RES1    0.0000
     14 C6         3.9134    1.9369    0.0258 C.ar      1 RES1    0.0000
     15 C7         2.3368    0.8937   -2.9310 C.2       1 RES1    0.0000
     16 C8         0.9743    0.5442   -2.4376 C.3       1 RES1    0.0000
     17 C9         2.6376    0.7837   -4.3688 C.3       1 RES1    0.0000
     18 H1         2.2618    1.1938   -0.4611 H         1 RES1    0.0000
     19 H2         4.4462    2.7352    3.1542 H         1 RES1    0.0000
     20 H3         6.8690    3.1920   -0.0184 H         1 RES1    0.0000
     21 H4         5.3277    2.3020   -1.4480 H         1 RES1    0.0000
     22 H5         0.5441    0.2124   -3.1081 H         1 RES1    0.0000
     23 H6         0.4851    1.3622   -1.9829 H         1 RES1    0.0000
     24 H7         1.0179   -0.0927   -1.6785 H         1 RES1    0.0000
     25 H8         2.2164    1.4266   -4.9342 H         1 RES1    0.0000
     26 H9         2.4345   -0.0724   -4.6391 H         1 RES1    0.0000
     27 H10        3.5885    1.0385   -4.6114 H         1 RES1    0.0000
@<TRIPOS>BOND
     1    1    7 2
     2    2    7 2
     3    3    8 2
     4    4    8 2
     5    5    6 1
     6    6   15 2
     7    7    9 1
     8    8   11 1
     9    9   10 ar
    10   10   11 ar
    11   11   12 ar
    12   12   13 ar
    13   13   14 ar
    14   14    5 1
    15   15   16 1
    16   16   22 1
    17   17   15 1
    18   18    5 1
    19   19   10 1
    20   20   12 1
    21   21   13 1
    22   23   16 1
    23   24   16 1
    24   25   17 1
    25   26   17 1
    26   27   17 1
    27    9   14 ar
@<TRIPOS>SUBSTRUCTURE
     1 RES1 1

@<TRIPOS>CRYSIN
   7.1147    8.2027   10.0680  66.7160  89.0470  77.8900   2 1

