# MOL2 file generated by ConQuest
# Please check atom types

@<TRIPOS>MOLECULE
LEBGEE05
    27    27     1
SMALL
NO_CHARGES
****
Generated from CSD

@<TRIPOS>ATOM
      1 O1         5.7013    4.3577    1.3249 O.2       1 RES1    0.0000
      2 O2         6.5081    4.8730    3.2611 O.2       1 RES1    0.0000
      3 O3         0.2143    1.9126    2.5480 O.2       1 RES1    0.0000
      4 O4         1.4934    2.2405    0.8272 O.2       1 RES1    0.0000
      5 N1         5.0927    4.5941    5.4259 N.3       1 RES1    0.0000
      6 N2         4.7884    4.6978    6.7734 N.2       1 RES1    0.0000
      7 N3         5.6001    4.4268    2.5429 N.pl3     1 RES1    0.0000
      8 N4         1.2522    2.3317    2.0254 N.pl3     1 RES1    0.0000
      9 C1         4.1661    4.0933    4.5762 C.ar      1 RES1    0.0000
     10 C2         4.3796    3.9692    3.1766 C.ar      1 RES1    0.0000
     11 C3         3.4228    3.4012    2.3415 C.ar      1 RES1    0.0000
     12 H1         3.5820    3.3237    1.4081 H         1 RES1    0.0000
     13 C4         2.2464    2.9557    2.8878 C.ar      1 RES1    0.0000
     14 C5         1.9793    3.0864    4.2548 C.ar      1 RES1    0.0000
     15 H2         1.1510    2.7877    4.6107 H         1 RES1    0.0000
     16 C6         2.9191    3.6467    5.0758 C.ar      1 RES1    0.0000
     17 H3         2.7306    3.7391    6.0023 H         1 RES1    0.0000
     18 C7         5.7491    5.1233    7.5227 C.2       1 RES1    0.0000
     19 C8         7.1212    5.4873    7.0410 C.3       1 RES1    0.0000
     20 H4         7.6387    5.8650    7.7821 H         1 RES1    0.0000
     21 H5         7.0504    6.1484    6.3211 H         1 RES1    0.0000
     22 H6         7.5723    4.6847    6.7035 H         1 RES1    0.0000
     23 C9         5.4534    5.2367    8.9817 C.3       1 RES1    0.0000
     24 H7         5.6866    6.1357    9.2936 H         1 RES1    0.0000
     25 H8         5.9797    4.5729    9.4742 H         1 RES1    0.0000
     26 H9         4.4986    5.0752    9.1350 H         1 RES1    0.0000
     27 H10        5.8636    4.8529    5.0569 H         1 RES1    0.0000
@<TRIPOS>BOND
     1    1    7 2
     2    2    7 2
     3    3    8 2
     4    4    8 2
     5    5    6 1
     6    6   18 2
     7    7   10 1
     8    8   13 1
     9    9    5 1
    10   10    9 ar
    11   11   10 ar
    12   12   11 1
    13   13   11 ar
    14   14   13 ar
    15   15   14 1
    16   16    9 ar
    17   17   16 1
    18   18   19 1
    19   19   20 1
    20   21   19 1
    21   22   19 1
    22   23   18 1
    23   24   23 1
    24   25   23 1
    25   26   23 1
    26   27    5 1
    27   14   16 ar
@<TRIPOS>SUBSTRUCTURE
     1 RES1 1

@<TRIPOS>CRYSIN
   7.0983    8.2062   10.0596  66.6540  88.8490  77.4830   2 1

