# MOL2 file generated by ConQuest
# Please check atom types

@<TRIPOS>MOLECULE
LEBGAA
    70    69     1
SMALL
NO_CHARGES
****
Generated from CSD

@<TRIPOS>ATOM
      1 O1         8.6871   10.4583   16.6911 O.2       1 RES1    0.0000
      2 O2         6.7695    9.6639   16.7642 O.2       1 RES1    0.0000
      3 O3         5.6247    5.0824   16.1459 O.2       1 RES1    0.0000
      4 O4         6.9220    3.7554   14.8904 O.3       1 RES1    0.0000
      5 O5        11.4272    6.8446   18.6715 O.2       1 RES1    0.0000
      6 O6         9.8816    6.4101   20.2153 O.3       1 RES1    0.0000
      7 O7         9.9971    9.4489   12.0514 O.2       1 RES1    0.0000
      8 O8         8.0795   10.4308   11.4999 O.3       1 RES1    0.0000
      9 N1         7.8981    9.5575   16.4989 N.pl3     1 RES1    0.0000
     10 C1         8.4572    8.2454   15.8785 C.3       1 RES1    0.0000
     11 C2         7.2858    7.2856   15.7699 C.3       1 RES1    0.0000
     12 C3         7.6555    5.9269   15.2121 C.3       1 RES1    0.0000
     13 C4         6.6228    4.8962   15.4816 C.2       1 RES1    0.0000
     14 C5         6.0844    2.5468   15.0220 C.3       1 RES1    0.0000
     15 C6         4.6959    2.8194   14.5269 C.3       1 RES1    0.0000
     16 C7         6.8157    1.5826   14.1154 C.3       1 RES1    0.0000
     17 C8         6.1029    2.0769   16.4467 C.3       1 RES1    0.0000
     18 C9         9.5616    7.7489   16.8123 C.3       1 RES1    0.0000
     19 C10        9.1215    7.2014   18.1618 C.3       1 RES1    0.0000
     20 C11       10.2836    6.8024   19.0245 C.2       1 RES1    0.0000
     21 C12       10.7849    5.9247   21.2556 C.3       1 RES1    0.0000
     22 C13       11.7981    6.9842   21.6065 C.3       1 RES1    0.0000
     23 C14       11.4966    4.6524   20.7542 C.3       1 RES1    0.0000
     24 C15        9.8712    5.6321   22.4024 C.3       1 RES1    0.0000
     25 C16        9.0649    8.6466   14.5394 C.3       1 RES1    0.0000
     26 C17        8.1211    9.3182   13.5513 C.3       1 RES1    0.0000
     27 C18        8.8234    9.7038   12.2875 C.2       1 RES1    0.0000
     28 C19        8.5323   10.9140   10.1713 C.3       1 RES1    0.0000
     29 C20        8.9863    9.7881    9.3253 C.3       1 RES1    0.0000
     30 C21        7.3321   11.5435    9.5843 C.3       1 RES1    0.0000
     31 C22        9.6297   11.9070   10.3656 C.3       1 RES1    0.0000
     32 H1         6.6320    7.6735   15.1996 H         1 RES1    0.0000
     33 H2         6.9162    7.1637   16.6368 H         1 RES1    0.0000
     34 H3         8.4722    5.6454   15.6069 H         1 RES1    0.0000
     35 H4         7.7699    6.0023   14.2700 H         1 RES1    0.0000
     36 H5         4.1668    2.0347   14.6146 H         1 RES1    0.0000
     37 H6         4.3101    3.5220   15.0345 H         1 RES1    0.0000
     38 H7         4.7317    3.0743   13.6098 H         1 RES1    0.0000
     39 H8         6.3652    0.7447   14.1133 H         1 RES1    0.0000
     40 H9         6.8376    1.9328   13.2317 H         1 RES1    0.0000
     41 H10        7.7167    1.4629   14.4308 H         1 RES1    0.0000
     42 H11        5.5634    1.2967   16.5282 H         1 RES1    0.0000
     43 H12        6.9947    1.8707   16.6995 H         1 RES1    0.0000
     44 H13        5.7610    2.7595   17.0086 H         1 RES1    0.0000
     45 H14       10.1496    8.4759   16.9731 H         1 RES1    0.0000
     46 H15       10.0294    7.0573   16.3590 H         1 RES1    0.0000
     47 H16        8.5716    6.4389   18.0176 H         1 RES1    0.0000
     48 H17        8.6213    7.8708   18.6130 H         1 RES1    0.0000
     49 H18       12.3768    6.6539   22.2834 H         1 RES1    0.0000
     50 H19       12.3052    7.2036   20.8336 H         1 RES1    0.0000
     51 H20       11.3487    7.7578   21.9220 H         1 RES1    0.0000
     52 H21       12.0845    4.3310   21.4269 H         1 RES1    0.0000
     53 H22       10.8485    3.9853   20.5558 H         1 RES1    0.0000
     54 H23       11.9921    4.8541   19.9688 H         1 RES1    0.0000
     55 H24       10.3783    5.3063   23.1357 H         1 RES1    0.0000
     56 H25        9.4183    6.4279   22.6573 H         1 RES1    0.0000
     57 H26        9.2347    4.9760   22.1413 H         1 RES1    0.0000
     58 H27        9.4045    7.8597   14.1279 H         1 RES1    0.0000
     59 H28        9.7788    9.2472   14.7128 H         1 RES1    0.0000
     60 H29        7.7583   10.0984   13.9524 H         1 RES1    0.0000
     61 H30        7.4164    8.7153   13.3404 H         1 RES1    0.0000
     62 H31        9.2693   10.1205    8.4813 H         1 RES1    0.0000
     63 H32        9.7095    9.3448    9.7515 H         1 RES1    0.0000
     64 H33        8.2689    9.1763    9.2000 H         1 RES1    0.0000
     65 H34        7.5423   11.8804    8.7195 H         1 RES1    0.0000
     66 H35        6.6389   10.8963    9.5112 H         1 RES1    0.0000
     67 H36        7.0433   12.2550   10.1400 H         1 RES1    0.0000
     68 H37        9.9255   12.2218    9.5196 H         1 RES1    0.0000
     69 H38        9.3063   12.6363   10.8795 H         1 RES1    0.0000
     70 H39       10.3529   11.4926   10.8210 H         1 RES1    0.0000
@<TRIPOS>BOND
     1    1    9 2
     2    2    9 2
     3    3   13 2
     4    4   13 1
     5    5   20 2
     6    6   20 1
     7    7   27 2
     8    8   27 1
     9    9   10 1
    10   10   11 1
    11   11   12 1
    12   12   13 1
    13   14    4 1
    14   15   14 1
    15   16   14 1
    16   17   14 1
    17   18   10 1
    18   19   18 1
    19   20   19 1
    20   21    6 1
    21   22   21 1
    22   23   21 1
    23   24   21 1
    24   25   10 1
    25   26   25 1
    26   27   26 1
    27   28    8 1
    28   29   28 1
    29   30   28 1
    30   31   28 1
    31   32   11 1
    32   33   11 1
    33   34   12 1
    34   35   12 1
    35   36   15 1
    36   37   15 1
    37   38   15 1
    38   39   16 1
    39   40   16 1
    40   41   16 1
    41   42   17 1
    42   43   17 1
    43   44   17 1
    44   45   18 1
    45   46   18 1
    46   47   19 1
    47   48   19 1
    48   49   22 1
    49   50   22 1
    50   51   22 1
    51   52   23 1
    52   53   23 1
    53   54   23 1
    54   55   24 1
    55   56   24 1
    56   57   24 1
    57   58   25 1
    58   59   25 1
    59   60   26 1
    60   61   26 1
    61   62   29 1
    62   63   29 1
    63   64   29 1
    64   65   30 1
    65   66   30 1
    66   67   30 1
    67   68   31 1
    68   69   31 1
    69   70   31 1
@<TRIPOS>SUBSTRUCTURE
     1 RES1 1

@<TRIPOS>CRYSIN
  11.5520   22.1650   20.8900  90.0000  90.0000  90.0000  61 1

