# MOL2 file generated by ConQuest
# Please check atom types

@<TRIPOS>MOLECULE
LEBGAA02
    70    69     1
SMALL
NO_CHARGES
****
Generated from CSD

@<TRIPOS>ATOM
      1 O1        14.8569    6.7614   17.9165 O.3       1 RES1    0.0000
      2 O2        11.4524    7.9714   11.4322 O.3       1 RES1    0.0000
      3 O3        16.2012    5.5287   16.5815 O.2       1 RES1    0.0000
      4 O4        12.0434    9.9698   12.3241 O.2       1 RES1    0.0000
      5 O5        18.7259   11.3215   14.9492 O.2       1 RES1    0.0000
      6 O6        20.2426    9.7000   15.3802 O.3       1 RES1    0.0000
      7 O7        16.5744    8.7324   11.2229 O.2       1 RES1    0.0000
      8 O8        16.8674    6.7816   12.0357 O.2       1 RES1    0.0000
      9 N1        16.4930    7.9272   12.1371 N.pl3     1 RES1    0.0000
     10 C1        16.4272    5.9058   19.5947 C.3       1 RES1    0.0000
     11 H1        16.9981    5.4355   18.9506 H         1 RES1    0.0000
     12 H2        16.4823    5.4603   20.4663 H         1 RES1    0.0000
     13 H3        16.7308    6.8335   19.6824 H         1 RES1    0.0000
     14 C2        14.9884    5.8862   19.1048 C.3       1 RES1    0.0000
     15 C3        15.4906    6.4886   16.7767 C.2       1 RES1    0.0000
     16 C4        15.2066    7.5664   15.7598 C.3       1 RES1    0.0000
     17 H4        15.5969    8.4223   16.0712 H         1 RES1    0.0000
     18 H5        14.2270    7.6888   15.6760 H         1 RES1    0.0000
     19 C5        15.7901    7.2128   14.3955 C.3       1 RES1    0.0000
     20 H6        16.6911    6.8222   14.5208 H         1 RES1    0.0000
     21 H7        15.2189    6.5266   13.9670 H         1 RES1    0.0000
     22 C6        15.8941    8.4199   13.4730 C.3       1 RES1    0.0000
     23 C7        14.5407    9.0501   13.1238 C.3       1 RES1    0.0000
     24 H8        14.1414    9.4175   13.9518 H         1 RES1    0.0000
     25 H9        14.6948    9.8068   12.5056 H         1 RES1    0.0000
     26 C8        13.5402    8.0948   12.4830 C.3       1 RES1    0.0000
     27 H10       13.9493    7.6798   11.6826 H         1 RES1    0.0000
     28 H11       13.3208    7.3729   13.1223 H         1 RES1    0.0000
     29 C9        12.2716    8.8140   12.0817 C.2       1 RES1    0.0000
     30 C10       10.1289    8.4322   10.9473 C.3       1 RES1    0.0000
     31 C11        9.5112    7.1552   10.4066 C.3       1 RES1    0.0000
     32 H12       10.0777    6.7963    9.6914 H         1 RES1    0.0000
     33 H13        8.6181    7.3492   10.0497 H         1 RES1    0.0000
     34 H14        9.4388    6.4961   11.1289 H         1 RES1    0.0000
     35 C12       14.5140    4.4819   18.7799 C.3       1 RES1    0.0000
     36 H15       13.6277    4.5248   18.3643 H         1 RES1    0.0000
     37 H16       14.4609    3.9550   19.6042 H         1 RES1    0.0000
     38 H17       15.1459    4.0588   18.1623 H         1 RES1    0.0000
     39 C13       14.0602    6.5637   20.0924 C.3       1 RES1    0.0000
     40 H18       14.3690    7.4801   20.2557 H         1 RES1    0.0000
     41 H19       14.0600    6.0651   20.9353 H         1 RES1    0.0000
     42 H20       13.1516    6.5842   19.7258 H         1 RES1    0.0000
     43 C14       10.3254    9.4575    9.8438 C.3       1 RES1    0.0000
     44 H21       10.8337   10.2187   10.1930 H         1 RES1    0.0000
     45 H22        9.4513    9.7673    9.5263 H         1 RES1    0.0000
     46 H23       10.8170    9.0486    9.1007 H         1 RES1    0.0000
     47 C15        9.2951    8.9745   12.0928 C.3       1 RES1    0.0000
     48 H24        9.2968    8.3309   12.8313 H         1 RES1    0.0000
     49 H25        8.3759    9.1185   11.7868 H         1 RES1    0.0000
     50 H26        9.6747    9.8249   12.3992 H         1 RES1    0.0000
     51 C16       16.8442    9.5050   13.9926 C.3       1 RES1    0.0000
     52 H27       17.0336   10.1341   13.2526 H         1 RES1    0.0000
     53 H28       16.3779   10.0145   14.7010 H         1 RES1    0.0000
     54 C17       18.1729    9.0104   14.5531 C.3       1 RES1    0.0000
     55 H29       18.0025    8.4268   15.3351 H         1 RES1    0.0000
     56 H30       18.6395    8.4720   13.8650 H         1 RES1    0.0000
     57 C18       19.0592   10.1618   14.9731 C.2       1 RES1    0.0000
     58 C19       21.2992   10.6047   15.8973 C.3       1 RES1    0.0000
     59 C20       20.8077   11.3061   17.1487 C.3       1 RES1    0.0000
     60 H31       20.0824   11.9237   16.9137 H         1 RES1    0.0000
     61 H32       21.5463   11.8075   17.5543 H         1 RES1    0.0000
     62 H33       20.4750   10.6407   17.7867 H         1 RES1    0.0000
     63 C21       21.7167   11.5810   14.8146 C.3       1 RES1    0.0000
     64 H34       21.9555   11.0864   14.0039 H         1 RES1    0.0000
     65 H35       22.4901   12.0986   15.1223 H         1 RES1    0.0000
     66 H36       20.9741   12.1889   14.6185 H         1 RES1    0.0000
     67 C22       22.4271    9.6386   16.2117 C.3       1 RES1    0.0000
     68 H37       22.1330    9.0068   16.9007 H         1 RES1    0.0000
     69 H38       23.2043   10.1386   16.5381 H         1 RES1    0.0000
     70 H39       22.6718    9.1467   15.4002 H         1 RES1    0.0000
@<TRIPOS>BOND
     1    1   14 1
     2    2   29 1
     3    3   15 2
     4    4   29 2
     5    5   57 2
     6    6   57 1
     7    7    9 2
     8    8    9 2
     9    9   22 1
    10   10   11 1
    11   12   10 1
    12   13   10 1
    13   14   10 1
    14   15    1 1
    15   16   15 1
    16   17   16 1
    17   18   16 1
    18   19   16 1
    19   20   19 1
    20   21   19 1
    21   22   19 1
    22   23   22 1
    23   24   23 1
    24   25   23 1
    25   26   23 1
    26   27   26 1
    27   28   26 1
    28   29   26 1
    29   30    2 1
    30   31   30 1
    31   32   31 1
    32   33   31 1
    33   34   31 1
    34   35   14 1
    35   36   35 1
    36   37   35 1
    37   38   35 1
    38   39   14 1
    39   40   39 1
    40   41   39 1
    41   42   39 1
    42   43   30 1
    43   44   43 1
    44   45   43 1
    45   46   43 1
    46   47   30 1
    47   48   47 1
    48   49   47 1
    49   50   47 1
    50   51   22 1
    51   52   51 1
    52   53   51 1
    53   54   51 1
    54   55   54 1
    55   56   54 1
    56   57   54 1
    57   58    6 1
    58   59   58 1
    59   60   59 1
    60   61   59 1
    61   62   59 1
    62   63   58 1
    63   64   63 1
    64   65   63 1
    65   66   63 1
    66   67   58 1
    67   68   67 1
    68   69   67 1
    69   70   67 1
@<TRIPOS>SUBSTRUCTURE
     1 RES1 1

@<TRIPOS>CRYSIN
  20.8822   11.2839   21.7149  90.0000  90.0000  90.0000  61 1

