# MOL2 file generated by ConQuest
# Please check atom types

@<TRIPOS>MOLECULE
LEBGEE
    27    27     1
SMALL
NO_CHARGES
****
Generated from CSD

@<TRIPOS>ATOM
      1 O1         1.5586    1.1573    1.2888 O.2       1 RES1    0.0000
      2 O2         2.3490    1.6725    3.2154 O.2       1 RES1    0.0000
      3 O3         6.5413    3.7841    3.7486 O.2       1 RES1    0.0000
      4 O4         7.8047    4.1659    2.0528 O.2       1 RES1    0.0000
      5 N1         2.9844    1.4387   -0.8688 N.3       1 RES1    0.0000
      6 N2         3.2981    1.3374   -2.2085 N.2       1 RES1    0.0000
      7 N3         2.4575    1.5995    2.0129 N.pl3     1 RES1    0.0000
      8 N4         6.7833    3.7189    2.5636 N.pl3     1 RES1    0.0000
      9 C1         3.6830    2.0658    1.3824 C.ar      1 RES1    0.0000
     10 C2         4.6209    2.6446    2.2159 C.ar      1 RES1    0.0000
     11 C3         5.7979    3.0994    1.6856 C.ar      1 RES1    0.0000
     12 C4         6.0650    2.9782    0.3319 C.ar      1 RES1    0.0000
     13 C5         5.1493    2.4107   -0.4997 C.ar      1 RES1    0.0000
     14 C6         3.8954    1.9536   -0.0083 C.ar      1 RES1    0.0000
     15 C7         2.3458    0.9155   -2.9679 C.2       1 RES1    0.0000
     16 C8         0.9755    0.5467   -2.5108 C.3       1 RES1    0.0000
     17 C9         2.6471    0.8082   -4.4087 C.3       1 RES1    0.0000
     18 H1         2.1492    1.2498   -0.4914 H         1 RES1    0.0000
     19 H2         4.4873    2.7266    3.0689 H         1 RES1    0.0000
     20 H3         6.8782    3.1983   -0.0185 H         1 RES1    0.0000
     21 H4         5.2682    2.4107   -1.4649 H         1 RES1    0.0000
     22 H5         0.5965    0.2684   -3.1987 H         1 RES1    0.0000
     23 H6         0.5049    1.1990   -2.1510 H         1 RES1    0.0000
     24 H7         1.0647   -0.1199   -1.7431 H         1 RES1    0.0000
     25 H8         2.0520    1.4792   -5.0253 H         1 RES1    0.0000
     26 H9         2.4514   -0.0105   -4.7286 H         1 RES1    0.0000
     27 H10        3.5314    0.9985   -4.6173 H         1 RES1    0.0000
@<TRIPOS>BOND
     1    1    7 2
     2    2    7 2
     3    3    8 2
     4    4    8 2
     5    5    6 1
     6    6   15 2
     7    7    9 1
     8    8   11 1
     9    9   10 ar
    10   10   11 ar
    11   11   12 ar
    12   12   13 ar
    13   13   14 ar
    14   14    5 1
    15   15   16 1
    16   16   22 1
    17   17   15 1
    18   18    5 1
    19   19   10 1
    20   20   12 1
    21   21   13 1
    22   23   16 1
    23   24   16 1
    24   25   17 1
    25   26   17 1
    26   27   17 1
    27    9   14 ar
@<TRIPOS>SUBSTRUCTURE
     1 RES1 1

@<TRIPOS>CRYSIN
   7.2032    8.2781   10.1210  66.7090  89.6070  79.4510   2 1

