# MOL2 file generated by ConQuest
# Please check atom types

@<TRIPOS>MOLECULE
LEBJEH
    54    58     1
SMALL
NO_CHARGES
****
Generated from CSD

@<TRIPOS>ATOM
      1 O1         3.0569    2.8409    2.1917 O.3       1 RES1    0.0000
      2 O2         1.5274    0.1928    0.4898 O.2       1 RES1    0.0000
      3 O3         1.3836    1.0457   -1.4717 O.2       1 RES1    0.0000
      4 O4         4.2572    4.7891   -1.4956 O.3       1 RES1    0.0000
      5 O5         5.0220    7.7572    1.6628 O.2       1 RES1    0.0000
      6 O6         3.0486    6.9182    1.8008 O.2       1 RES1    0.0000
      7 N1         1.7108    2.7852    2.6403 N.2       1 RES1    0.0000
      8 N2         1.4878    1.1351   -0.2661 N.pl3     1 RES1    0.0000
      9 N3         5.3324    5.6539   -1.8388 N.2       1 RES1    0.0000
     10 N4         4.1343    7.0355    1.2512 N.pl3     1 RES1    0.0000
     11 C1         0.9231    2.5764    1.6628 C.2       1 RES1    0.0000
     12 C2         1.6274    2.5049    0.3302 C.3       1 RES1    0.0000
     13 C3         1.5274    3.7275   -0.6071 C.3       1 RES1    0.0000
     14 C4         2.6485    4.3637    0.2476 C.3       1 RES1    0.0000
     15 C5         3.0361    2.9243    0.7679 C.3       1 RES1    0.0000
     16 C6         4.2280    2.2723    0.1662 C.2       1 RES1    0.0000
     17 C7         5.1449    1.6202    0.8222 C.2       1 RES1    0.0000
     18 C8         6.3473    0.9900    0.2661 C.ar      1 RES1    0.0000
     19 C9         7.2662    0.3757    1.1067 C.ar      1 RES1    0.0000
     20 C10        8.4186   -0.1968    0.6343 C.ar      1 RES1    0.0000
     21 C11        8.6499   -0.2008   -0.7060 C.ar      1 RES1    0.0000
     22 C12        7.7663    0.3877   -1.5716 C.ar      1 RES1    0.0000
     23 C13        6.6202    0.9781   -1.0959 C.ar      1 RES1    0.0000
     24 C14       -0.5397    2.4214    1.8594 C.3       1 RES1    0.0000
     25 C15        0.1896    4.4034   -0.7766 C.ar      1 RES1    0.0000
     26 C16       -0.7502    3.8329   -1.6378 C.ar      1 RES1    0.0000
     27 C17       -2.0213    4.3855   -1.7302 C.ar      1 RES1    0.0000
     28 C18       -2.3776    5.4630   -1.0068 C.ar      1 RES1    0.0000
     29 C19       -1.4607    6.0535   -0.1836 C.ar      1 RES1    0.0000
     30 C20       -0.1750    5.5227   -0.0760 C.ar      1 RES1    0.0000
     31 C21        3.7029    5.2046   -0.3508 C.2       1 RES1    0.0000
     32 C22        5.3908    6.5445   -0.8982 C.2       1 RES1    0.0000
     33 C23        4.3718    6.2900    0.0608 C.2       1 RES1    0.0000
     34 C24        6.4035    7.6200   -0.9569 C.3       1 RES1    0.0000
     35 H1         1.8754    3.4989   -1.4228 H         1 RES1    0.0000
     36 H2         2.2505    4.8905    0.9884 H         1 RES1    0.0000
     37 H3         4.2926    2.2663   -0.7603 H         1 RES1    0.0000
     38 H4         5.0220    1.5308    1.8355 H         1 RES1    0.0000
     39 H5         7.0641    0.3777    2.2156 H         1 RES1    0.0000
     40 H6         9.1479   -0.6958    1.2816 H         1 RES1    0.0000
     41 H7         9.3979   -0.6362   -0.9666 H         1 RES1    0.0000
     42 H8         7.8559    0.3777   -2.4546 H         1 RES1    0.0000
     43 H9         6.0013    1.3320   -1.6074 H         1 RES1    0.0000
     44 H10       -0.5001    3.0416   -2.1288 H         1 RES1    0.0000
     45 H11       -2.6464    3.9959   -2.3351 H         1 RES1    0.0000
     46 H12       -3.2716    5.8447   -1.1404 H         1 RES1    0.0000
     47 H13       -1.6879    6.8586    0.3693 H         1 RES1    0.0000
     48 H14        0.4793    5.9839    0.5431 H         1 RES1    0.0000
     49 H15       -0.8752    1.6898    1.4554 H         1 RES1    0.0000
     50 H16       -0.9377    3.1609    1.4011 H         1 RES1    0.0000
     51 H17       -0.7293    2.3657    2.7044 H         1 RES1    0.0000
     52 H18        6.8349    7.6140   -1.7378 H         1 RES1    0.0000
     53 H19        6.0222    8.4689   -1.0209 H         1 RES1    0.0000
     54 H20        6.8557    7.6538   -0.1846 H         1 RES1    0.0000
@<TRIPOS>BOND
     1    1    7 1
     2    2    8 2
     3    3    8 2
     4    4    9 1
     5    5   10 2
     6    6   10 2
     7    7   11 2
     8    8   12 1
     9    9   32 2
    10   10   33 1
    11   11   12 1
    12   12   13 1
    13   13   14 1
    14   14   15 1
    15   15    1 1
    16   16   15 1
    17   17   16 2
    18   18   17 1
    19   19   18 ar
    20   20   19 ar
    21   21   20 ar
    22   22   21 ar
    23   23   18 ar
    24   24   11 1
    25   25   13 1
    26   26   25 ar
    27   27   26 ar
    28   28   27 ar
    29   29   28 ar
    30   30   25 ar
    31   31    4 1
    32   32   33 1
    33   33   31 2
    34   34   32 1
    35   35   13 1
    36   36   14 1
    37   37   16 1
    38   38   17 1
    39   39   19 1
    40   40   20 1
    41   41   21 1
    42   42   22 1
    43   43   23 1
    44   44   26 1
    45   45   27 1
    46   46   28 1
    47   47   29 1
    48   48   30 1
    49   49   24 1
    50   50   24 1
    51   51   24 1
    52   52   34 1
    53   53   34 1
    54   54   34 1
    55   12   15 1
    56   14   31 1
    57   22   23 ar
    58   29   30 ar
@<TRIPOS>SUBSTRUCTURE
     1 RES1 1

@<TRIPOS>CRYSIN
  20.8380   19.8800   10.8610  90.0000  90.0000  90.0000  61 1

