# MOL2 file generated by ConQuest
# Please check atom types

@<TRIPOS>MOLECULE
LEBLIO
    58    58     2
SMALL
NO_CHARGES
****
Generated from CSD

@<TRIPOS>ATOM
      1 O1         3.4240    4.9681    1.7258 O.2       1 RES1    0.0000
      2 O2        -1.0260    4.8562    3.5130 O.2       1 RES1    0.0000
      3 O3        -1.5947    3.0701    4.7471 O.3       1 RES1    0.0000
      4 H1        -2.5757    3.7227    4.9324 H         1 RES1    0.0000
      5 N1         3.4780    3.6866    1.6055 N.3       1 RES1    0.0000
      6 C1         2.5127    2.9384    2.3325 C.ar      1 RES1    0.0000
      7 C2         1.3460    3.5984    2.7108 C.ar      1 RES1    0.0000
      8 H2         1.2026    4.4983    2.4416 H         1 RES1    0.0000
      9 C3         0.3962    2.9489    3.4753 C.ar      1 RES1    0.0000
     10 C4         0.5819    1.6208    3.8594 C.ar      1 RES1    0.0000
     11 H3        -0.0760    1.1721    4.3785 H         1 RES1    0.0000
     12 C5         1.7385    0.9658    3.4740 C.ar      1 RES1    0.0000
     13 H4         1.8697    0.0603    3.7297 H         1 RES1    0.0000
     14 C6         2.7097    1.6096    2.7202 C.ar      1 RES1    0.0000
     15 H5         3.5022    1.1504    2.4700 H         1 RES1    0.0000
     16 C7         4.5510    3.1142    0.7076 C.3       1 RES1    0.0000
     17 C8        -0.8022    3.6997    3.9029 C.2       1 RES1    0.0000
     18 C9         5.0174    4.2348   -0.2153 C.3       1 RES1    0.0000
     19 H6         5.3979    4.9619    0.3206 H         1 RES1    0.0000
     20 H7         4.2546    4.5728   -0.7304 H         1 RES1    0.0000
     21 H8         5.6999    3.8905   -0.8290 H         1 RES1    0.0000
     22 C10        3.9507    1.9887   -0.1366 C.3       1 RES1    0.0000
     23 H9         3.6449    1.2672    0.4515 H         1 RES1    0.0000
     24 H10        4.6307    1.6432   -0.7512 H         1 RES1    0.0000
     25 H11        3.1928    2.3349   -0.6507 H         1 RES1    0.0000
     26 C11        5.7275    2.6456    1.5613 C.3       1 RES1    0.0000
     27 H12        6.0705    3.3989    2.0868 H         1 RES1    0.0000
     28 H13        6.4374    2.3038    0.9789 H         1 RES1    0.0000
     29 H14        5.4294    1.9347    2.1665 H         1 RES1    0.0000
     30 O4        -7.6221    4.4069    7.9460 O.2       2 RES2    0.0000
     31 O5        -3.6581    4.4896    5.4608 O.2       2 RES2    0.0000
     32 O6        -3.0975    6.2943    4.2609 O.3       2 RES2    0.0000
     33 H15       -2.2422    5.7300    4.0218 H         2 RES2    0.0000
     34 N2        -7.9728    5.6269    7.7056 N.3       2 RES2    0.0000
     35 C12       -7.0973    6.3770    6.8830 C.ar      2 RES2    0.0000
     36 C13       -5.9416    5.7443    6.4272 C.ar      2 RES2    0.0000
     37 H16       -5.7648    4.8482    6.6891 H         2 RES2    0.0000
     38 C14       -5.0428    6.4081    5.5939 C.ar      2 RES2    0.0000
     39 C15       -5.2885    7.7250    5.2077 C.ar      2 RES2    0.0000
     40 H17       -4.6826    8.1805    4.6346 H         2 RES2    0.0000
     41 C16       -6.4209    8.3558    5.6696 C.ar      2 RES2    0.0000
     42 H18       -6.5894    9.2545    5.4124 H         2 RES2    0.0000
     43 C17       -7.3224    7.7113    6.5021 C.ar      2 RES2    0.0000
     44 H19       -8.0922    8.1712    6.8143 H         2 RES2    0.0000
     45 C18       -9.2626    6.1154    8.3206 C.3       2 RES2    0.0000
     46 C19       -3.8695    5.6480    5.0998 C.2       2 RES2    0.0000
     47 C20       -9.8766    4.9513    9.0757 C.3       2 RES2    0.0000
     48 H20       -9.2633    4.6623    9.7833 H         2 RES2    0.0000
     49 H21      -10.0342    4.2080    8.4572 H         2 RES2    0.0000
     50 H22      -10.7272    5.2316    9.4741 H         2 RES2    0.0000
     51 C21      -10.2404    6.5398    7.2243 C.3       2 RES2    0.0000
     52 H23       -9.8637    7.2924    6.7233 H         2 RES2    0.0000
     53 H24      -11.0904    6.8108    7.6301 H         2 RES2    0.0000
     54 H25      -10.3955    5.7872    6.6152 H         2 RES2    0.0000
     55 C22       -8.9483    7.2508    9.3037 C.3       2 RES2    0.0000
     56 H26       -8.5499    8.0028    8.8177 H         2 RES2    0.0000
     57 H27       -8.3183    6.9307    9.9825 H         2 RES2    0.0000
     58 H28       -9.7766    7.5441    9.7397 H         2 RES2    0.0000
@<TRIPOS>BOND
     1    1    5 1
     2    2   17 2
     3    3    4 1
     4    5    6 1
     5    6    7 ar
     6    7    8 1
     7    9    7 ar
     8   10    9 ar
     9   11   10 1
    10   12   10 ar
    11   13   12 1
    12   14    6 ar
    13   15   14 1
    14   16    5 1
    15   17    3 1
    16   18   16 1
    17   19   18 1
    18   20   18 1
    19   21   18 1
    20   22   16 1
    21   23   22 1
    22   24   22 1
    23   25   22 1
    24   26   16 1
    25   27   26 1
    26   28   26 1
    27   29   26 1
    28   30   34 1
    29   31   46 2
    30   32   33 1
    31   34   35 1
    32   35   36 ar
    33   36   37 1
    34   38   36 ar
    35   39   38 ar
    36   40   39 1
    37   41   39 ar
    38   42   41 1
    39   43   35 ar
    40   44   43 1
    41   45   34 1
    42   46   32 1
    43   47   45 1
    44   48   47 1
    45   49   47 1
    46   50   47 1
    47   51   45 1
    48   52   51 1
    49   53   51 1
    50   54   51 1
    51   55   45 1
    52   56   55 1
    53   57   55 1
    54   58   55 1
    55    9   17 1
    56   12   14 ar
    57   38   46 1
    58   41   43 ar
@<TRIPOS>SUBSTRUCTURE
     1 RES1 1
     2 RES2 30

@<TRIPOS>CRYSIN
  18.5303    6.2148   18.9709  90.0000  90.0000  90.0000  29 1

