# MOL2 file generated by ConQuest
# Please check atom types

@<TRIPOS>MOLECULE
LEBLUA
    65    69     1
SMALL
NO_CHARGES
****
Generated from CSD

@<TRIPOS>ATOM
      1 O1         1.8699   10.7247    8.7560 O.3       1 RES1    0.0000
      2 H1         2.3497   11.3244    8.3862 H         1 RES1    0.0000
      3 O2        -0.1617   13.1945   19.5485 O.3       1 RES1    0.0000
      4 H2        -0.6866   13.6767   19.9074 H         1 RES1    0.0000
      5 O3        -3.8259   14.4253   18.2902 O.3       1 RES1    0.0000
      6 H3        -4.1883   14.7950   18.9965 H         1 RES1    0.0000
      7 N1        -2.6938   13.7932   18.8622 N.2       1 RES1    0.0000
      8 C1         2.3398   10.9915   12.5061 C.3       1 RES1    0.0000
      9 H4         3.1325   11.1187   13.0508 H         1 RES1    0.0000
     10 H5         1.9660   10.1251   12.7288 H         1 RES1    0.0000
     11 C2         2.7548   10.9863   11.0200 C.3       1 RES1    0.0000
     12 H6         3.1988   11.8218   10.8013 H         1 RES1    0.0000
     13 H7         3.3774   10.2613   10.8565 H         1 RES1    0.0000
     14 C3         1.5372   10.8166   10.1497 C.3       1 RES1    0.0000
     15 H8         1.1085    9.9734   10.4057 H         1 RES1    0.0000
     16 C4         0.5401   11.9311   10.4068 C.3       1 RES1    0.0000
     17 H9         0.9254   12.7743   10.1227 H         1 RES1    0.0000
     18 H10       -0.2563   11.7743    9.8766 H         1 RES1    0.0000
     19 C5         0.1518   12.0263   11.8687 C.2       1 RES1    0.0000
     20 C6        -1.1199   12.0468   12.2361 C.2       1 RES1    0.0000
     21 H11       -1.7585   11.9671   11.5649 H         1 RES1    0.0000
     22 C7        -1.6105   12.1882   13.6269 C.3       1 RES1    0.0000
     23 H12       -1.9835   11.3411   13.9179 H         1 RES1    0.0000
     24 H13       -2.3215   12.8476   13.6465 H         1 RES1    0.0000
     25 C8        -0.5150   12.6100   14.6020 C.3       1 RES1    0.0000
     26 H14       -0.3334   13.5648   14.4814 H         1 RES1    0.0000
     27 C9         0.7736   11.8180   14.3096 C.3       1 RES1    0.0000
     28 H15        0.5233   10.8706   14.3342 H         1 RES1    0.0000
     29 C10        1.3046   12.0896   12.8711 C.3       1 RES1    0.0000
     30 C11        1.8348   12.0069   15.4061 C.3       1 RES1    0.0000
     31 H16        2.5496   11.3681   15.2566 H         1 RES1    0.0000
     32 H17        2.2139   12.8951   15.3187 H         1 RES1    0.0000
     33 C12        1.3198   11.8347   16.8397 C.3       1 RES1    0.0000
     34 H18        1.0787   10.9066   16.9885 H         1 RES1    0.0000
     35 H19        2.0224   12.0673   17.4670 H         1 RES1    0.0000
     36 C13        0.1015   12.7239   17.0861 C.3       1 RES1    0.0000
     37 C14       -0.9582   12.3745   16.0280 C.3       1 RES1    0.0000
     38 H20       -1.1199   11.4118   16.1099 H         1 RES1    0.0000
     39 C15       -2.2368   13.0674   16.5117 C.3       1 RES1    0.0000
     40 H21       -2.3284   13.9479   16.1168 H         1 RES1    0.0000
     41 H22       -3.0218   12.5404   16.2985 H         1 RES1    0.0000
     42 C16       -2.0339   13.1599   17.9990 C.2       1 RES1    0.0000
     43 C17       -0.7095   12.5108   18.3916 C.3       1 RES1    0.0000
     44 C18        0.5096   14.2052   17.0023 C.3       1 RES1    0.0000
     45 H23        1.1871   14.3875   17.6579 H         1 RES1    0.0000
     46 H24       -0.2563   14.7577   17.1702 H         1 RES1    0.0000
     47 H25        0.8537   14.3939   16.1260 H         1 RES1    0.0000
     48 C19        1.9904   13.4706   12.7676 C.3       1 RES1    0.0000
     49 H26        2.2116   13.6497   11.8501 H         1 RES1    0.0000
     50 H27        2.7922   13.4697   13.2969 H         1 RES1    0.0000
     51 H28        1.3938   14.1497   13.0922 H         1 RES1    0.0000
     52 C20       -0.8667   11.0318   18.7684 C.3       1 RES1    0.0000
     53 H29       -1.0223   10.5261   17.9546 H         1 RES1    0.0000
     54 H30       -0.0282   10.7228   19.1460 H         1 RES1    0.0000
     55 C21       -1.9774   10.7065   19.7493 C.ar      1 RES1    0.0000
     56 C22       -3.1927   10.2531   19.2491 C.ar      1 RES1    0.0000
     57 H31       -3.3072   10.1457   18.3318 H         1 RES1    0.0000
     58 C23       -4.2371    9.9615   20.1187 C.ar      1 RES1    0.0000
     59 H32       -5.0496    9.6585   19.7832 H         1 RES1    0.0000
     60 C24       -4.0663   10.1229   21.4889 C.ar      1 RES1    0.0000
     61 H33       -4.7651    9.9271   22.0718 H         1 RES1    0.0000
     62 C25       -2.8510   10.5761   21.9890 C.ar      1 RES1    0.0000
     63 H34       -2.7365   10.6842   22.9067 H         1 RES1    0.0000
     64 C26       -1.8065   10.8679   21.1193 C.ar      1 RES1    0.0000
     65 H35       -0.9941   11.1714   21.4530 H         1 RES1    0.0000
@<TRIPOS>BOND
     1    1    2 1
     2    3    4 1
     3    5    6 1
     4    7    5 1
     5    8    9 1
     6   10    8 1
     7   11    8 1
     8   12   11 1
     9   13   11 1
    10   14    1 1
    11   15   14 1
    12   16   14 1
    13   17   16 1
    14   18   16 1
    15   19   16 1
    16   20   19 2
    17   21   20 1
    18   22   20 1
    19   23   22 1
    20   24   22 1
    21   25   22 1
    22   26   25 1
    23   27   25 1
    24   28   27 1
    25   29    8 1
    26   30   27 1
    27   31   30 1
    28   32   30 1
    29   33   30 1
    30   34   33 1
    31   35   33 1
    32   36   33 1
    33   37   25 1
    34   38   37 1
    35   39   37 1
    36   40   39 1
    37   41   39 1
    38   42    7 2
    39   43    3 1
    40   44   36 1
    41   45   44 1
    42   46   44 1
    43   47   44 1
    44   48   29 1
    45   49   48 1
    46   50   48 1
    47   51   48 1
    48   52   43 1
    49   53   52 1
    50   54   52 1
    51   55   52 1
    52   56   55 ar
    53   57   56 1
    54   58   56 ar
    55   59   58 1
    56   60   58 ar
    57   61   60 1
    58   62   60 ar
    59   63   62 1
    60   64   55 ar
    61   65   64 1
    62   11   14 1
    63   19   29 1
    64   27   29 1
    65   36   37 1
    66   36   43 1
    67   39   42 1
    68   42   43 1
    69   62   64 ar
@<TRIPOS>SUBSTRUCTURE
     1 RES1 1

@<TRIPOS>CRYSIN
   7.6290   12.8540   23.0010  90.0000  90.0000  90.0000  19 1

