# MOL2 file generated by ConQuest
# Please check atom types

@<TRIPOS>MOLECULE
LEBMAI
    57    58     1
SMALL
NO_CHARGES
****
Generated from CSD

@<TRIPOS>ATOM
      1 O1        12.1796    3.9708   11.8523 O.2       1 RES1    0.0000
      2 O2         8.2185    5.7654   11.9028 O.2       1 RES1    0.0000
      3 O3         7.1242    4.3869   16.2792 O.2       1 RES1    0.0000
      4 O4         7.7090    2.3242   16.9415 O.3       1 RES1    0.0000
      5 O5        11.2549    2.1083    8.1416 O.2       1 RES1    0.0000
      6 O6        10.4433    3.9817    7.2119 O.3       1 RES1    0.0000
      7 N1        12.6210    6.0406   10.9430 N.am      1 RES1    0.0000
      8 N2         9.3432    5.1488   11.9756 N.pl3     1 RES1    0.0000
      9 C1        11.8128    5.0762   11.4891 C.2       1 RES1    0.0000
     10 C2        10.4420    5.6888   11.4985 C.2       1 RES1    0.0000
     11 C3        10.5353    7.0011   10.9102 C.ar      1 RES1    0.0000
     12 C4         9.6138    8.0115   10.6444 C.ar      1 RES1    0.0000
     13 H1         8.6924    7.8988   10.8473 H         1 RES1    0.0000
     14 C5        10.0840    9.1964   10.0701 C.ar      1 RES1    0.0000
     15 H2         9.4734    9.8982    9.8785 H         1 RES1    0.0000
     16 C6        11.4277    9.3624    9.7764 C.ar      1 RES1    0.0000
     17 H3        11.7205   10.1812    9.3934 H         1 RES1    0.0000
     18 C7        12.3630    8.3573   10.0289 C.ar      1 RES1    0.0000
     19 H4        13.2828    8.4728    9.8214 H         1 RES1    0.0000
     20 C8        11.8958    7.1903   10.5924 C.ar      1 RES1    0.0000
     21 C9        14.0612    5.9142   10.8233 C.3       1 RES1    0.0000
     22 H5        14.3623    5.1445   11.3684 H         1 RES1    0.0000
     23 H6        14.4867    6.7294   11.1897 H         1 RES1    0.0000
     24 C10       14.5216    5.7186    9.4100 C.2       1 RES1    0.0000
     25 H7        15.4597    5.6812    9.2656 H         1 RES1    0.0000
     26 C11       13.7707    5.5959    8.3739 C.2       1 RES1    0.0000
     27 H8        12.8254    5.6263    8.4655 H         1 RES1    0.0000
     28 H9        14.1604    5.4753    7.5165 H         1 RES1    0.0000
     29 C12        9.2858    3.7866   12.5971 C.3       1 RES1    0.0000
     30 H10       10.2111    3.4676   12.8037 H         1 RES1    0.0000
     31 C13        8.4892    3.8998   13.8654 C.2       1 RES1    0.0000
     32 H11        7.8678    4.6158   13.9276 H         1 RES1    0.0000
     33 C14        8.5821    3.0831   14.9043 C.2       1 RES1    0.0000
     34 H12        9.1775    2.3433   14.8903 H         1 RES1    0.0000
     35 C15        7.7303    3.3538   16.0920 C.2       1 RES1    0.0000
     36 C16        6.8451    2.4926   18.1041 C.3       1 RES1    0.0000
     37 H13        5.9210    2.7041   17.8167 H         1 RES1    0.0000
     38 H14        7.1757    3.2328   18.6727 H         1 RES1    0.0000
     39 C17        6.8680    1.1999   18.8683 C.3       1 RES1    0.0000
     40 H15        6.5518    0.4739   18.2918 H         1 RES1    0.0000
     41 H16        6.2839    1.2730   19.6515 H         1 RES1    0.0000
     42 H17        7.7845    1.0100   19.1602 H         1 RES1    0.0000
     43 C18        8.6293    2.8566   11.5507 C.3       1 RES1    0.0000
     44 H18        8.4168    1.9856   11.9700 H         1 RES1    0.0000
     45 H19        7.7821    3.2597   11.2344 H         1 RES1    0.0000
     46 C19        9.5491    2.6415   10.3839 C.2       1 RES1    0.0000
     47 H20       10.2242    1.9803   10.4764 H         1 RES1    0.0000
     48 C20        9.4944    3.3005    9.2365 C.2       1 RES1    0.0000
     49 H21        8.8118    3.9470    9.0982 H         1 RES1    0.0000
     50 C21       10.4880    3.0411    8.1641 C.2       1 RES1    0.0000
     51 C22       11.3681    3.7952    6.1009 C.3       1 RES1    0.0000
     52 H22       11.0637    3.0472    5.5279 H         1 RES1    0.0000
     53 H23       12.2716    3.5799    6.4434 H         1 RES1    0.0000
     54 C23       11.4073    5.0647    5.3095 C.3       1 RES1    0.0000
     55 H24       10.5119    5.2619    4.9647 H         1 RES1    0.0000
     56 H25       12.0309    4.9633    4.5602 H         1 RES1    0.0000
     57 H26       11.7048    5.7997    5.8851 H         1 RES1    0.0000
@<TRIPOS>BOND
     1    1    9 2
     2    2    8 1
     3    3   35 2
     4    4   35 1
     5    5   50 2
     6    6   50 1
     7    7    9 1
     8    8   10 2
     9    9   10 1
    10   10   11 1
    11   11   12 ar
    12   12   13 1
    13   14   12 ar
    14   15   14 1
    15   16   14 ar
    16   17   16 1
    17   18   16 ar
    18   19   18 1
    19   20    7 1
    20   21    7 1
    21   22   21 1
    22   23   21 1
    23   24   21 1
    24   25   24 1
    25   26   24 2
    26   27   26 1
    27   28   26 1
    28   29    8 1
    29   30   29 1
    30   31   29 1
    31   32   31 1
    32   33   31 2
    33   34   33 1
    34   35   33 1
    35   36    4 1
    36   37   36 1
    37   38   36 1
    38   39   36 1
    39   40   39 1
    40   41   39 1
    41   42   39 1
    42   43   29 1
    43   44   43 1
    44   45   43 1
    45   46   43 1
    46   47   46 1
    47   48   46 2
    48   49   48 1
    49   50   48 1
    50   51    6 1
    51   52   51 1
    52   53   51 1
    53   54   51 1
    54   55   54 1
    55   56   54 1
    56   57   54 1
    57   11   20 ar
    58   18   20 ar
@<TRIPOS>SUBSTRUCTURE
     1 RES1 1

@<TRIPOS>CRYSIN
   8.6162   10.1946   12.9090  79.1190  77.8630  87.4780   2 1

