# MOL2 file generated by ConQuest
# Please check atom types

@<TRIPOS>MOLECULE
LEBSAN
    49    53     1
SMALL
NO_CHARGES
****
Generated from CSD

@<TRIPOS>ATOM
      1 O1         2.1580    2.4809    5.3382 O.2       1 RES1    0.0000
      2 N1         1.1550    2.4617    4.5429 N.pl3     1 RES1    0.0000
      3 C1         0.1272    3.5375    4.7286 C.3       1 RES1    0.0000
      4 C2        -1.0678    3.2737    3.8453 C.2       1 RES1    0.0000
      5 C3        -1.1957    2.2647    2.9891 C.2       1 RES1    0.0000
      6 C4        -0.0949    1.3133    2.8067 C.ar      1 RES1    0.0000
      7 C5        -0.1509    0.2496    1.9136 C.ar      1 RES1    0.0000
      8 C6         0.9258   -0.6084    1.7386 C.ar      1 RES1    0.0000
      9 C7         2.0993   -0.3933    2.4452 C.ar      1 RES1    0.0000
     10 C8         2.1823    0.6368    3.3507 C.ar      1 RES1    0.0000
     11 C9         1.0827    1.4778    3.5585 C.ar      1 RES1    0.0000
     12 C10       -0.3871    3.4643    6.1763 C.ar      1 RES1    0.0000
     13 C11       -0.7622    4.5993    6.8583 C.ar      1 RES1    0.0000
     14 C12       -1.3278    4.5107    8.1236 C.ar      1 RES1    0.0000
     15 C13       -1.5140    3.2984    8.7144 C.ar      1 RES1    0.0000
     16 C14       -1.1623    2.1653    8.0455 C.ar      1 RES1    0.0000
     17 C15       -0.6044    2.2413    6.7786 C.ar      1 RES1    0.0000
     18 C16        0.7914    4.8824    4.3983 C.ar      1 RES1    0.0000
     19 C17        1.7614    5.4217    5.2363 C.ar      1 RES1    0.0000
     20 C18        2.3562    6.6333    4.9282 C.ar      1 RES1    0.0000
     21 C19        1.9882    7.3243    3.8026 C.ar      1 RES1    0.0000
     22 C20        1.0333    6.8109    2.9735 C.ar      1 RES1    0.0000
     23 C21        0.4426    5.5874    3.2619 C.ar      1 RES1    0.0000
     24 C22       -2.4264    2.1098    2.1593 C.ar      1 RES1    0.0000
     25 C23       -2.5472    2.8155    0.9720 C.ar      1 RES1    0.0000
     26 C24       -3.6772    2.6750    0.1865 C.ar      1 RES1    0.0000
     27 C25       -4.6786    1.8271    0.5719 C.ar      1 RES1    0.0000
     28 C26       -4.5651    1.1129    1.7411 C.ar      1 RES1    0.0000
     29 C27       -3.4433    1.2552    2.5413 C.ar      1 RES1    0.0000
     30 H1        -1.8013    3.8892    3.9061 H         1 RES1    0.0000
     31 H2        -0.9535    0.1052    1.4067 H         1 RES1    0.0000
     32 H3         0.8568   -1.3499    1.1314 H         1 RES1    0.0000
     33 H4         2.8682   -0.9659    2.2998 H         1 RES1    0.0000
     34 H5         2.9949    0.7807    3.8412 H         1 RES1    0.0000
     35 H6        -0.6333    5.4604    6.4532 H         1 RES1    0.0000
     36 H7        -1.5868    5.3108    8.5870 H         1 RES1    0.0000
     37 H8        -1.8907    3.2414    9.5968 H         1 RES1    0.0000
     38 H9        -1.3015    1.3074    8.4547 H         1 RES1    0.0000
     39 H10       -0.3698    1.4355    6.3152 H         1 RES1    0.0000
     40 H11        2.0217    4.9499    6.0325 H         1 RES1    0.0000
     41 H12        3.0315    6.9957    5.5050 H         1 RES1    0.0000
     42 H13        2.3999    8.1671    3.5963 H         1 RES1    0.0000
     43 H14        0.7700    7.2949    2.1872 H         1 RES1    0.0000
     44 H15       -0.2169    5.2269    2.6646 H         1 RES1    0.0000
     45 H16       -1.8412    3.4062    0.6935 H         1 RES1    0.0000
     46 H17       -3.7576    3.1727   -0.6318 H         1 RES1    0.0000
     47 H18       -5.4612    1.7331    0.0255 H         1 RES1    0.0000
     48 H19       -5.2668    0.5114    2.0015 H         1 RES1    0.0000
     49 H20       -3.3735    0.7597    3.3622 H         1 RES1    0.0000
@<TRIPOS>BOND
     1    1    2 1
     2    2    3 1
     3    3    4 1
     4    4    5 2
     5    5    6 1
     6    6    7 ar
     7    7    8 ar
     8    8    9 ar
     9    9   10 ar
    10   10   11 ar
    11   11    2 1
    12   12    3 1
    13   13   12 ar
    14   14   13 ar
    15   15   14 ar
    16   16   15 ar
    17   17   12 ar
    18   18    3 1
    19   19   18 ar
    20   20   19 ar
    21   21   20 ar
    22   22   21 ar
    23   23   18 ar
    24   24    5 1
    25   25   24 ar
    26   26   25 ar
    27   27   26 ar
    28   28   27 ar
    29   29   24 ar
    30   30    4 1
    31   31    7 1
    32   32    8 1
    33   33    9 1
    34   34   10 1
    35   35   13 1
    36   36   14 1
    37   37   15 1
    38   38   16 1
    39   39   17 1
    40   40   19 1
    41   41   20 1
    42   42   21 1
    43   43   22 1
    44   44   23 1
    45   45   25 1
    46   46   26 1
    47   47   27 1
    48   48   28 1
    49   49   29 1
    50    6   11 ar
    51   16   17 ar
    52   22   23 ar
    53   28   29 ar
@<TRIPOS>SUBSTRUCTURE
     1 RES1 1

@<TRIPOS>CRYSIN
  10.6200   11.4160    8.8860  91.6500 112.3000  90.5100   2 1

