# MOL2 file generated by ConQuest
# Please check atom types

@<TRIPOS>MOLECULE
LEBSER
    49    53     1
SMALL
NO_CHARGES
****
Generated from CSD

@<TRIPOS>ATOM
      1 O1        21.2633    4.6677    1.7670 O.2       1 RES1    0.0000
      2 N1        20.8622    4.5644    2.9845 N.pl3     1 RES1    0.0000
      3 C1        19.3882    4.3830    3.2084 C.3       1 RES1    0.0000
      4 C2        19.1526    3.8780    4.6173 C.2       1 RES1    0.0000
      5 C3        20.0623    3.8951    5.5812 C.2       1 RES1    0.0000
      6 C4        21.3973    4.3972    5.3399 C.ar      1 RES1    0.0000
      7 C5        22.3369    4.5220    6.3568 C.ar      1 RES1    0.0000
      8 C6        23.6297    4.9844    6.1169 C.ar      1 RES1    0.0000
      9 C7        23.9728    5.3078    4.7973 C.ar      1 RES1    0.0000
     10 C8        23.0721    5.1745    3.7636 C.ar      1 RES1    0.0000
     11 C9        21.7743    4.7319    4.0259 C.ar      1 RES1    0.0000
     12 C10       18.6894    5.7433    2.9852 C.ar      1 RES1    0.0000
     13 C11       18.9644    6.5334    1.8776 C.ar      1 RES1    0.0000
     14 C12       18.2893    7.7263    1.6726 C.ar      1 RES1    0.0000
     15 C13       17.3215    8.1391    2.5514 C.ar      1 RES1    0.0000
     16 C14       17.0367    7.3674    3.6436 C.ar      1 RES1    0.0000
     17 C15       17.7170    6.1802    3.8682 C.ar      1 RES1    0.0000
     18 C16       18.8833    3.2965    2.2487 C.ar      1 RES1    0.0000
     19 C17       17.7088    3.4369    1.5317 C.ar      1 RES1    0.0000
     20 C18       17.2058    2.3745    0.7826 C.ar      1 RES1    0.0000
     21 C19       17.8810    1.1745    0.7435 C.ar      1 RES1    0.0000
     22 C20       19.0520    1.0298    1.4466 C.ar      1 RES1    0.0000
     23 C21       19.5509    2.0766    2.1999 C.ar      1 RES1    0.0000
     24 C22       24.5969    5.1589    7.2301 C.ar      1 RES1    0.0000
     25 C23       24.5740    4.3291    8.3530 C.ar      1 RES1    0.0000
     26 C24       25.4449    4.5305    9.4034 C.ar      1 RES1    0.0000
     27 C25       26.3643    5.5504    9.3644 C.ar      1 RES1    0.0000
     28 C26       26.4257    6.3660    8.2568 C.ar      1 RES1    0.0000
     29 C27       25.5431    6.1788    7.1938 C.ar      1 RES1    0.0000
     30 H1        18.2873    3.5234    4.8266 H         1 RES1    0.0000
     31 H2        19.8307    3.5688    6.4559 H         1 RES1    0.0000
     32 H3        22.0889    4.2823    7.2538 H         1 RES1    0.0000
     33 H4        24.8570    5.6312    4.6103 H         1 RES1    0.0000
     34 H5        23.3356    5.3873    2.8639 H         1 RES1    0.0000
     35 H6        19.6295    6.2483    1.2471 H         1 RES1    0.0000
     36 H7        18.5024    8.2696    0.9067 H         1 RES1    0.0000
     37 H8        16.8495    8.9618    2.4021 H         1 RES1    0.0000
     38 H9        16.3556    7.6525    4.2588 H         1 RES1    0.0000
     39 H10       17.5106    5.6568    4.6452 H         1 RES1    0.0000
     40 H11       17.2358    4.2738    1.5512 H         1 RES1    0.0000
     41 H12       16.3855    2.4795    0.2929 H         1 RES1    0.0000
     42 H13       17.5385    0.4426    0.2260 H         1 RES1    0.0000
     43 H14       19.5280    0.1943    1.4159 H         1 RES1    0.0000
     44 H15       20.3644    1.9589    2.6951 H         1 RES1    0.0000
     45 H16       23.9410    3.6057    8.3949 H         1 RES1    0.0000
     46 H17       25.4067    3.9532   10.1707 H         1 RES1    0.0000
     47 H18       26.9620    5.6937   10.1051 H         1 RES1    0.0000
     48 H19       27.0795    7.0696    8.2163 H         1 RES1    0.0000
     49 H20       25.5899    6.7575    6.4294 H         1 RES1    0.0000
@<TRIPOS>BOND
     1    1    2 1
     2    2    3 1
     3    3    4 1
     4    4    5 2
     5    5    6 1
     6    6    7 ar
     7    7    8 ar
     8    8    9 ar
     9    9   10 ar
    10   10   11 ar
    11   11    2 1
    12   12    3 1
    13   13   12 ar
    14   14   13 ar
    15   15   14 ar
    16   16   15 ar
    17   17   12 ar
    18   18    3 1
    19   19   18 ar
    20   20   19 ar
    21   21   20 ar
    22   22   21 ar
    23   23   18 ar
    24   24    8 1
    25   25   24 ar
    26   26   25 ar
    27   27   26 ar
    28   28   27 ar
    29   29   24 ar
    30   30    4 1
    31   31    5 1
    32   32    7 1
    33   33    9 1
    34   34   10 1
    35   35   13 1
    36   36   14 1
    37   37   15 1
    38   38   16 1
    39   39   17 1
    40   40   19 1
    41   41   20 1
    42   42   21 1
    43   43   22 1
    44   44   23 1
    45   45   25 1
    46   46   26 1
    47   47   27 1
    48   48   28 1
    49   49   29 1
    50    6   11 ar
    51   16   17 ar
    52   22   23 ar
    53   28   29 ar
@<TRIPOS>SUBSTRUCTURE
     1 RES1 1

@<TRIPOS>CRYSIN
  19.9143   14.1845   13.9496  90.0000  90.0000  90.0000  61 1

