# MOL2 file generated by ConQuest
# Please check atom types

@<TRIPOS>MOLECULE
LECLEL02
   110   116     2
SMALL
NO_CHARGES
****
Generated from CSD

@<TRIPOS>ATOM
      1 N1        -7.3864   12.5692   14.2005 N.pl3     1 RES1    0.0000
      2 H1        -7.5511   12.7115   15.0535 H         1 RES1    0.0000
      3 N2        -8.6225    9.2016   13.6472 N.am      1 RES1    0.0000
      4 H2        -8.3076    9.0422   12.8412 H         1 RES1    0.0000
      5 N3        -9.4490    8.2833   14.2723 N.am      1 RES1    0.0000
      6 H3       -10.2897    8.1939   14.0295 H         1 RES1    0.0000
      7 N4        -9.8794    6.9257   16.0358 N.am      1 RES1    0.0000
      8 H4       -10.7127    7.1432   15.8522 H         1 RES1    0.0000
      9 N5        -9.5818    2.9686   19.9887 N.pl3     1 RES1    0.0000
     10 O1        -8.6526   10.5141   15.4683 O.2       1 RES1    0.0000
     11 O2        -7.7108    7.3631   15.4445 O.2       1 RES1    0.0000
     12 O3       -10.3220    3.0458   20.9730 O.2       1 RES1    0.0000
     13 O4        -8.8536    2.0059   19.7593 O.2       1 RES1    0.0000
     14 C1        -6.5923   14.8904   13.7764 C.3       1 RES1    0.0000
     15 H5        -7.3383   15.4835   13.5480 H         1 RES1    0.0000
     16 H6        -5.7790   15.1999   13.3242 H         1 RES1    0.0000
     17 H7        -6.4507   14.9020   14.7460 H         1 RES1    0.0000
     18 C2        -6.9080   13.5008   13.3358 C.2       1 RES1    0.0000
     19 C3        -6.7502   12.8918   12.0926 C.2       1 RES1    0.0000
     20 C4        -7.1667   11.5342   12.2293 C.2       1 RES1    0.0000
     21 C5        -7.5773   11.3746   13.5522 C.2       1 RES1    0.0000
     22 C6        -8.3049   10.3552   14.2963 C.2       1 RES1    0.0000
     23 C7        -8.9229    7.5207   15.2767 C.2       1 RES1    0.0000
     24 C8        -9.6926    6.0017   17.0819 C.ar      1 RES1    0.0000
     25 C9        -8.5821    5.1745   17.1746 C.ar      1 RES1    0.0000
     26 H8        -7.8530    5.2879   16.5752 H         1 RES1    0.0000
     27 C10       -8.5386    4.1861   18.1399 C.ar      1 RES1    0.0000
     28 H9        -7.7997    3.5907   18.1853 H         1 RES1    0.0000
     29 C11       -9.5807    4.0761   19.0355 C.ar      1 RES1    0.0000
     30 C12      -10.6554    4.9424   19.0197 C.ar      1 RES1    0.0000
     31 H10      -11.3398    4.8827   19.6764 H         1 RES1    0.0000
     32 C13      -10.7088    5.8966   18.0258 C.ar      1 RES1    0.0000
     33 H11      -11.4490    6.4901   17.9857 H         1 RES1    0.0000
     34 C14       -6.1000   13.5388   10.9365 C.ar      1 RES1    0.0000
     35 C15       -6.4983   14.7970   10.4927 C.ar      1 RES1    0.0000
     36 H12       -7.2539   15.2141   10.8912 H         1 RES1    0.0000
     37 C16       -5.8144   15.4499    9.4839 C.ar      1 RES1    0.0000
     38 H13       -6.0996   16.3077    9.1925 H         1 RES1    0.0000
     39 C17       -4.7219   14.8516    8.9043 C.ar      1 RES1    0.0000
     40 H14       -4.2382   15.3044    8.2232 H         1 RES1    0.0000
     41 C18       -4.3265   13.5941    9.3125 C.ar      1 RES1    0.0000
     42 H15       -3.5716   13.1811    8.9091 H         1 RES1    0.0000
     43 C19       -5.0211   12.9388   10.3005 C.ar      1 RES1    0.0000
     44 H16       -4.7591   12.0613   10.5515 H         1 RES1    0.0000
     45 C20       -7.2207   10.5478   11.1268 C.ar      1 RES1    0.0000
     46 C21       -7.9331   10.8311    9.9614 C.ar      1 RES1    0.0000
     47 H17       -8.3889   11.6612    9.8817 H         1 RES1    0.0000
     48 C22       -7.9878    9.9246    8.9218 C.ar      1 RES1    0.0000
     49 H18       -8.4799   10.1340    8.1362 H         1 RES1    0.0000
     50 C23       -7.3275    8.7131    9.0202 C.ar      1 RES1    0.0000
     51 H19       -7.3805    8.0826    8.3117 H         1 RES1    0.0000
     52 C24       -6.5913    8.4210   10.1481 C.ar      1 RES1    0.0000
     53 H20       -6.1223    7.5970   10.2085 H         1 RES1    0.0000
     54 C25       -6.5349    9.3279   11.1951 C.ar      1 RES1    0.0000
     55 H21       -6.0251    9.1189   11.9684 H         1 RES1    0.0000
     56 N6        -1.1911    8.5528    1.8643 N.pl3     2 RES2    0.0000
     57 H22       -1.0103    8.7065    1.0160 H         2 RES2    0.0000
     58 N7         0.2284    5.2698    2.5143 N.am      2 RES2    0.0000
     59 H23       -0.0331    5.1560    3.3476 H         2 RES2    0.0000
     60 N8         1.0637    4.3377    1.9034 N.am      2 RES2    0.0000
     61 H24        1.9057    4.2539    2.1464 H         2 RES2    0.0000
     62 N9         1.5017    2.9545    0.1620 N.am      2 RES2    0.0000
     63 H25        2.3342    3.1665    0.3558 H         2 RES2    0.0000
     64 N10        1.2053   -0.9391   -3.8501 N.pl3     2 RES2    0.0000
     65 O5         0.1585    6.5006    0.6278 O.2       2 RES2    0.0000
     66 O6        -0.6705    3.3926    0.7487 O.2       2 RES2    0.0000
     67 O7         2.0039   -0.8817   -4.7864 O.2       2 RES2    0.0000
     68 O8         0.4000   -1.8594   -3.6966 O.2       2 RES2    0.0000
     69 C26       -2.0639   10.8449    2.2675 C.3       2 RES2    0.0000
     70 H26       -1.3463   11.4592    2.5296 H         2 RES2    0.0000
     71 H27       -2.9045   11.1281    2.6826 H         2 RES2    0.0000
     72 H28       -2.1613   10.8533    1.2930 H         2 RES2    0.0000
     73 C27       -1.7251    9.4593    2.7223 C.2       2 RES2    0.0000
     74 C28       -1.8933    8.8462    3.9457 C.2       2 RES2    0.0000
     75 C29       -1.4177    7.5020    3.8311 C.2       2 RES2    0.0000
     76 C30       -0.9728    7.3592    2.5154 C.2       2 RES2    0.0000
     77 C31       -0.1792    6.3602    1.8068 C.2       2 RES2    0.0000
     78 C32        0.5359    3.5612    0.9186 C.2       2 RES2    0.0000
     79 C33        1.3269    2.0390   -0.8808 C.ar      2 RES2    0.0000
     80 C34        2.3690    1.9062   -1.7942 C.ar      2 RES2    0.0000
     81 H29        3.1302    2.4706   -1.7229 H         2 RES2    0.0000
     82 C35        2.3111    0.9688   -2.7993 C.ar      2 RES2    0.0000
     83 H30        3.0129    0.8958   -3.4345 H         2 RES2    0.0000
     84 C36        1.2183    0.1407   -2.8648 C.ar      2 RES2    0.0000
     85 C37        0.1587    0.2696   -2.0018 C.ar      2 RES2    0.0000
     86 H31       -0.5959   -0.3009   -2.0820 H         2 RES2    0.0000
     87 C38        0.1989    1.2373   -1.0160 C.ar      2 RES2    0.0000
     88 H32       -0.5418    1.3547   -0.4331 H         2 RES2    0.0000
     89 C39       -2.5926    9.4468    5.0989 C.ar      2 RES2    0.0000
     90 C40       -2.2961   10.7400    5.5253 C.ar      2 RES2    0.0000
     91 H33       -1.5788   11.2174    5.1236 H         2 RES2    0.0000
     92 C41       -3.0451   11.3389    6.5357 C.ar      2 RES2    0.0000
     93 H34       -2.8423   12.2228    6.8159 H         2 RES2    0.0000
     94 C42       -4.0837   10.6475    7.1347 C.ar      2 RES2    0.0000
     95 H35       -4.5982   11.0642    7.8158 H         2 RES2    0.0000
     96 C43       -4.3720    9.3644    6.7466 C.ar      2 RES2    0.0000
     97 H36       -5.0808    8.8881    7.1637 H         2 RES2    0.0000
     98 C44       -3.6238    8.7598    5.7398 C.ar      2 RES2    0.0000
     99 H37       -3.8179    7.8660    5.4859 H         2 RES2    0.0000
    100 C45       -1.4081    6.4698    4.8917 C.ar      2 RES2    0.0000
    101 C46       -0.7180    6.6712    6.0844 C.ar      2 RES2    0.0000
    102 H38       -0.2517    7.4852    6.2346 H         2 RES2    0.0000
    103 C47       -0.7137    5.6836    7.0460 C.ar      2 RES2    0.0000
    104 H39       -0.2445    5.8212    7.8609 H         2 RES2    0.0000
    105 C48       -1.3878    4.4963    6.8355 C.ar      2 RES2    0.0000
    106 H40       -1.3714    3.8186    7.5018 H         2 RES2    0.0000
    107 C49       -2.0759    4.2896    5.6788 C.ar      2 RES2    0.0000
    108 H41       -2.5434    3.4738    5.5406 H         2 RES2    0.0000
    109 C50       -2.0905    5.2745    4.7056 C.ar      2 RES2    0.0000
    110 H42       -2.5731    5.1302    3.8998 H         2 RES2    0.0000
@<TRIPOS>BOND
     1    1    2 1
     2    3    4 1
     3    5    3 1
     4    6    5 1
     5    7    8 1
     6    9   12 2
     7   10   22 2
     8   11   23 2
     9   13    9 2
    10   14   15 1
    11   16   14 1
    12   17   14 1
    13   18    1 1
    14   19   18 2
    15   20   19 1
    16   21    1 1
    17   22    3 1
    18   23    5 1
    19   24    7 1
    20   25   24 ar
    21   26   25 1
    22   27   25 ar
    23   28   27 1
    24   29    9 1
    25   30   29 ar
    26   31   30 1
    27   32   24 ar
    28   33   32 1
    29   34   19 1
    30   35   34 ar
    31   36   35 1
    32   37   35 ar
    33   38   37 1
    34   39   37 ar
    35   40   39 1
    36   41   39 ar
    37   42   41 1
    38   43   34 ar
    39   44   43 1
    40   45   20 1
    41   46   45 ar
    42   47   46 1
    43   48   46 ar
    44   49   48 1
    45   50   48 ar
    46   51   50 1
    47   52   50 ar
    48   53   52 1
    49   54   45 ar
    50   55   54 1
    51   56   57 1
    52   58   59 1
    53   60   58 1
    54   61   60 1
    55   62   63 1
    56   64   67 2
    57   65   77 2
    58   66   78 2
    59   68   64 2
    60   69   70 1
    61   71   69 1
    62   72   69 1
    63   73   56 1
    64   74   73 2
    65   75   74 1
    66   76   56 1
    67   77   58 1
    68   78   60 1
    69   79   62 1
    70   80   79 ar
    71   81   80 1
    72   82   80 ar
    73   83   82 1
    74   84   64 1
    75   85   84 ar
    76   86   85 1
    77   87   79 ar
    78   88   87 1
    79   89   74 1
    80   90   89 ar
    81   91   90 1
    82   92   90 ar
    83   93   92 1
    84   94   92 ar
    85   95   94 1
    86   96   94 ar
    87   97   96 1
    88   98   89 ar
    89   99   98 1
    90  100   75 1
    91  101  100 ar
    92  102  101 1
    93  103  101 ar
    94  104  103 1
    95  105  103 ar
    96  106  105 1
    97  107  105 ar
    98  108  107 1
    99  109  100 ar
   100  110  109 1
   101    7   23 1
   102   14   18 1
   103   20   21 2
   104   21   22 1
   105   27   29 ar
   106   30   32 ar
   107   41   43 ar
   108   52   54 ar
   109   62   78 1
   110   69   73 1
   111   75   76 2
   112   76   77 1
   113   82   84 ar
   114   85   87 ar
   115   96   98 ar
   116  107  109 ar
@<TRIPOS>SUBSTRUCTURE
     1 RES1 1
     2 RES2 56

@<TRIPOS>CRYSIN
   8.7020   16.2244   17.0333 103.7180 102.6830  91.0500   2 1

