# MOL2 file generated by ConQuest
# Please check atom types

@<TRIPOS>MOLECULE
LECLEL
    55    58     1
SMALL
NO_CHARGES
****
Generated from CSD

@<TRIPOS>ATOM
      1 C1        -1.9994    4.5712   11.4212 C.3       1 RES1    0.0000
      2 H1        -2.1149    5.5389   11.5289 H         1 RES1    0.0000
      3 H2        -1.5251    4.2101   12.1996 H         1 RES1    0.0000
      4 H3        -2.8780    4.1439   11.3457 H         1 RES1    0.0000
      5 C2        -1.2059    4.2998   10.1848 C.2       1 RES1    0.0000
      6 C3         0.1430    4.0082   10.0081 C.2       1 RES1    0.0000
      7 C4         0.3354    3.7424    8.6252 C.2       1 RES1    0.0000
      8 C5        -0.9012    3.8975    8.0109 C.2       1 RES1    0.0000
      9 C6        -1.3841    3.7537    6.6460 C.2       1 RES1    0.0000
     10 C7        -1.1912    3.7456    3.4531 C.2       1 RES1    0.0000
     11 C8        -2.1595    3.6172    1.1636 C.ar      1 RES1    0.0000
     12 C9        -1.4055    4.6188    0.5647 C.ar      1 RES1    0.0000
     13 H4        -0.7673    5.1035    1.0749 H         1 RES1    0.0000
     14 C10       -1.5878    4.9104   -0.7779 C.ar      1 RES1    0.0000
     15 H5        -1.0681    5.5857   -1.1975 H         1 RES1    0.0000
     16 C11       -2.5299    4.2085   -1.4966 C.ar      1 RES1    0.0000
     17 C12       -3.3290    3.2505   -0.9123 C.ar      1 RES1    0.0000
     18 H6        -3.9887    2.7949   -1.4216 H         1 RES1    0.0000
     19 C13       -3.1506    2.9637    0.4277 C.ar      1 RES1    0.0000
     20 H7        -3.7059    2.3191    0.8509 H         1 RES1    0.0000
     21 C14        1.1743    3.9282   11.0703 C.ar      1 RES1    0.0000
     22 C15        1.2652    4.8983   12.0668 C.ar      1 RES1    0.0000
     23 H8         0.6571    5.6285   12.0678 H         1 RES1    0.0000
     24 C16        2.2316    4.8111   13.0559 C.ar      1 RES1    0.0000
     25 H9         2.2756    5.4775   13.7317 H         1 RES1    0.0000
     26 C17        3.1296    3.7658   13.0657 C.ar      1 RES1    0.0000
     27 H10        3.7926    3.7125   13.7438 H         1 RES1    0.0000
     28 C18        3.0590    2.7997   12.0872 C.ar      1 RES1    0.0000
     29 H11        3.6756    2.0776   12.0906 H         1 RES1    0.0000
     30 C19        2.0893    2.8757   11.0950 C.ar      1 RES1    0.0000
     31 H12        2.0487    2.2028   10.4252 H         1 RES1    0.0000
     32 C20        1.6162    3.4556    7.9353 C.ar      1 RES1    0.0000
     33 C21        2.5372    4.4775    7.7424 C.ar      1 RES1    0.0000
     34 H13        2.3618    5.3434    8.0937 H         1 RES1    0.0000
     35 C22        3.7065    4.2432    7.0430 C.ar      1 RES1    0.0000
     36 H14        4.3262    4.9508    6.9158 H         1 RES1    0.0000
     37 C23        3.9800    3.0049    6.5332 C.ar      1 RES1    0.0000
     38 H15        4.7804    2.8579    6.0438 H         1 RES1    0.0000
     39 C24        3.0980    1.9790    6.7296 C.ar      1 RES1    0.0000
     40 H16        3.2954    1.1147    6.3874 H         1 RES1    0.0000
     41 C25        1.9098    2.1939    7.4303 C.ar      1 RES1    0.0000
     42 H17        1.3000    1.4774    7.5623 H         1 RES1    0.0000
     43 N1        -1.8085    4.2368    8.9781 N.pl3     1 RES1    0.0000
     44 H18       -2.6627    4.3918    8.8340 H         1 RES1    0.0000
     45 N2        -0.4746    3.4193    5.6828 N.am      1 RES1    0.0000
     46 H19        0.3894    3.5259    5.8121 H         1 RES1    0.0000
     47 N3        -0.9657    2.9064    4.4954 N.am      1 RES1    0.0000
     48 H20       -1.1301    2.0453    4.4162 H         1 RES1    0.0000
     49 N4        -1.9461    3.1584    2.4756 N.am      1 RES1    0.0000
     50 H21       -2.3456    2.4047    2.6933 H         1 RES1    0.0000
     51 N5        -2.6745    4.4710   -2.9348 N.pl3     1 RES1    0.0000
     52 O1        -2.5696    3.9153    6.3452 O.2       1 RES1    0.0000
     53 O2        -0.7518    4.8952    3.3980 O.2       1 RES1    0.0000
     54 O3        -3.5804    3.8951   -3.5238 O.2       1 RES1    0.0000
     55 O4        -1.8988    5.2529   -3.4649 O.2       1 RES1    0.0000
@<TRIPOS>BOND
     1    1    2 1
     2    3    1 1
     3    4    1 1
     4    5    1 1
     5    6    5 2
     6    7    6 1
     7    8    7 2
     8    9    8 1
     9   10   47 1
    10   11   12 ar
    11   12   13 1
    12   14   12 ar
    13   15   14 1
    14   16   14 ar
    15   17   16 ar
    16   18   17 1
    17   19   11 ar
    18   20   19 1
    19   21    6 1
    20   22   21 ar
    21   23   22 1
    22   24   22 ar
    23   25   24 1
    24   26   24 ar
    25   27   26 1
    26   28   26 ar
    27   29   28 1
    28   30   21 ar
    29   31   30 1
    30   32    7 1
    31   33   32 ar
    32   34   33 1
    33   35   33 ar
    34   36   35 1
    35   37   35 ar
    36   38   37 1
    37   39   37 ar
    38   40   39 1
    39   41   32 ar
    40   42   41 1
    41   43    5 1
    42   44   43 1
    43   45    9 1
    44   46   45 1
    45   47   45 1
    46   48   47 1
    47   49   10 1
    48   50   49 1
    49   51   16 1
    50   52    9 2
    51   53   10 2
    52   54   51 2
    53   55   51 2
    54    8   43 1
    55   11   49 1
    56   17   19 ar
    57   28   30 ar
    58   39   41 ar
@<TRIPOS>SUBSTRUCTURE
     1 RES1 1

@<TRIPOS>CRYSIN
  18.0210    8.0777   16.7769  90.0000 115.5230  90.0000  14 1

