# MOL2 file generated by ConQuest
# Please check atom types

@<TRIPOS>MOLECULE
LECMIS
    46    48     1
SMALL
NO_CHARGES
****
Generated from CSD

@<TRIPOS>ATOM
      1 O1         5.7146    6.0357    4.0440 O.3       1 RES1    0.0000
      2 O2         1.3947    6.4718    5.7378 O.3       1 RES1    0.0000
      3 H1         0.6173    6.3331    5.5168 H         1 RES1    0.0000
      4 N1         7.6941    6.0259    5.0899 N.2       1 RES1    0.0000
      5 N2         1.7818    5.5281    6.7181 N.2       1 RES1    0.0000
      6 C1         7.0610    6.0312    4.0034 C.2       1 RES1    0.0000
      7 C2         5.3350    6.0339    5.4531 C.3       1 RES1    0.0000
      8 H2         4.8861    5.1872    5.6568 H         1 RES1    0.0000
      9 C3         4.0571    3.0259    9.0410 C.3       1 RES1    0.0000
     10 C4         6.7106    6.0679    6.2069 C.3       1 RES1    0.0000
     11 C5         2.8693    5.8784    7.2815 C.2       1 RES1    0.0000
     12 C6         4.6751    4.0956    8.0827 C.3       1 RES1    0.0000
     13 H3         4.6160    3.7529    7.1664 H         1 RES1    0.0000
     14 C7         6.9591    4.8150    7.0544 C.3       1 RES1    0.0000
     15 H4         7.8895    4.8249    7.3291 H         1 RES1    0.0000
     16 H5         6.8396    4.0425    6.4802 H         1 RES1    0.0000
     17 C8         3.4154    4.9812    8.3516 C.3       1 RES1    0.0000
     18 H6         3.5830    5.5214    9.1519 H         1 RES1    0.0000
     19 C9         4.3442    7.1689    5.6454 C.3       1 RES1    0.0000
     20 H7         3.6901    7.1320    4.9301 H         1 RES1    0.0000
     21 H8         4.8190    8.0104    5.5650 H         1 RES1    0.0000
     22 C10        6.1036    4.6014    8.3098 C.3       1 RES1    0.0000
     23 H9         6.5614    3.9678    8.8840 H         1 RES1    0.0000
     24 H10        6.0537    5.4430    8.7893 H         1 RES1    0.0000
     25 C11        7.6465    6.0446    2.6348 C.3       1 RES1    0.0000
     26 H11        7.3676    5.2587    2.1596 H         1 RES1    0.0000
     27 H12        8.6040    6.0592    2.6964 H         1 RES1    0.0000
     28 H13        7.3441    6.8262    2.1655 H         1 RES1    0.0000
     29 C12        6.9980    7.3512    6.9755 C.3       1 RES1    0.0000
     30 H14        7.9183    7.3610    7.2499 H         1 RES1    0.0000
     31 H15        6.4331    7.3940    7.7506 H         1 RES1    0.0000
     32 H16        6.8249    8.1085    6.4113 H         1 RES1    0.0000
     33 C13        2.6929    3.6926    8.7791 C.3       1 RES1    0.0000
     34 H17        2.1855    3.2748    8.0652 H         1 RES1    0.0000
     35 H18        2.1497    3.7957    9.5759 H         1 RES1    0.0000
     36 C14        3.6043    7.1537    6.9817 C.3       1 RES1    0.0000
     37 H19        4.2457    7.3149    7.6910 H         1 RES1    0.0000
     38 H20        2.9683    7.8859    6.9900 H         1 RES1    0.0000
     39 C15        4.2145    1.5925    8.5987 C.3       1 RES1    0.0000
     40 H21        3.9878    1.5182    7.6691 H         1 RES1    0.0000
     41 H22        3.6312    1.0325    9.1163 H         1 RES1    0.0000
     42 H23        5.1239    1.3156    8.7301 H         1 RES1    0.0000
     43 C16        4.4916    3.1957   10.4966 C.3       1 RES1    0.0000
     44 H24        5.4182    2.9593   10.5833 H         1 RES1    0.0000
     45 H25        3.9618    2.6254   11.0577 H         1 RES1    0.0000
     46 H26        4.3689    4.1102   10.7622 H         1 RES1    0.0000
@<TRIPOS>BOND
     1    1    6 1
     2    2    3 1
     3    4    6 2
     4    5    2 1
     5    6   25 1
     6    7    1 1
     7    8    7 1
     8    9   12 1
     9   10    4 1
    10   11    5 2
    11   12   13 1
    12   14   10 1
    13   15   14 1
    14   16   14 1
    15   17   11 1
    16   18   17 1
    17   19    7 1
    18   20   19 1
    19   21   19 1
    20   22   12 1
    21   23   22 1
    22   24   22 1
    23   25   26 1
    24   27   25 1
    25   28   25 1
    26   29   10 1
    27   30   29 1
    28   31   29 1
    29   32   29 1
    30   33    9 1
    31   34   33 1
    32   35   33 1
    33   36   11 1
    34   37   36 1
    35   38   36 1
    36   39    9 1
    37   40   39 1
    38   41   39 1
    39   42   39 1
    40   43    9 1
    41   44   43 1
    42   45   43 1
    43   46   43 1
    44    7   10 1
    45   12   17 1
    46   14   22 1
    47   17   33 1
    48   19   36 1
@<TRIPOS>SUBSTRUCTURE
     1 RES1 1

@<TRIPOS>CRYSIN
   8.9540    8.9365   10.4047  90.0000  99.9700  90.0000   4 1

