# MOL2 file generated by ConQuest
# Please check atom types

@<TRIPOS>MOLECULE
LEDBOO
    64    66     2
SMALL
NO_CHARGES
****
Generated from CSD

@<TRIPOS>ATOM
      1 N1        10.7016   10.8015   11.0924 N.pl3     1 RES1    0.0000
      2 O1        11.1556   11.9745   10.9277 O.2       1 RES1    0.0000
      3 C1        10.8072    9.6205   10.2045 C.3       1 RES1    0.0000
      4 H1        11.7337    9.3216   10.0928 H         1 RES1    0.0000
      5 C2        10.0681    8.8473   11.3395 C.3       1 RES1    0.0000
      6 H2         9.1718    8.5613   11.0659 H         1 RES1    0.0000
      7 C3        10.0477   10.1777   12.0320 C.2       1 RES1    0.0000
      8 C4        10.1047    9.7794    8.9061 C.2       1 RES1    0.0000
      9 O2         9.5178   10.7624    8.5654 O.2       1 RES1    0.0000
     10 C5         9.4611    8.6690    6.9417 C.3       1 RES1    0.0000
     11 H3         8.5447    8.9084    7.0980 H         1 RES1    0.0000
     12 H4         9.5007    7.7941    6.5466 H         1 RES1    0.0000
     13 H5         9.8605    9.3076    6.3455 H         1 RES1    0.0000
     14 O3        10.1758    8.6650    8.1884 O.3       1 RES1    0.0000
     15 C6        10.8470    7.7254   11.9957 C.3       1 RES1    0.0000
     16 H6        11.7262    8.0512   12.2470 H         1 RES1    0.0000
     17 H7        10.3892    7.4506   12.8069 H         1 RES1    0.0000
     18 C7        10.9994    6.5423   11.0924 C.3       1 RES1    0.0000
     19 H8        10.1321    6.1965   10.8676 H         1 RES1    0.0000
     20 H9        11.5098    5.8624   11.5378 H         1 RES1    0.0000
     21 H10       11.4543    6.8099   10.2896 H         1 RES1    0.0000
     22 C8         9.5629   10.6903   13.2983 C.ar      1 RES1    0.0000
     23 C9         8.9697    9.8324   14.2030 C.ar      1 RES1    0.0000
     24 H11        8.8515    8.9384   13.9727 H         1 RES1    0.0000
     25 C10        8.5481   10.2719   15.4386 C.ar      1 RES1    0.0000
     26 H12        8.1593    9.6857   16.0460 H         1 RES1    0.0000
     27 C11        8.7188   11.6075   15.7500 C.ar      1 RES1    0.0000
     28 H13        8.4556   11.9172   16.5863 H         1 RES1    0.0000
     29 C12        9.2608   12.4750   14.8648 C.ar      1 RES1    0.0000
     30 H14        9.3347   13.3755   15.0840 H         1 RES1    0.0000
     31 C13        9.7069   12.0246   13.6306 C.ar      1 RES1    0.0000
     32 H15       10.1003   12.6167   13.0303 H         1 RES1    0.0000
     33 N2         6.6005    9.9859    9.5511 N.pl3     2 RES2    0.0000
     34 O4         7.0019    8.7741    9.7005 O.2       2 RES2    0.0000
     35 C14        6.8046   11.1466   10.4432 C.3       2 RES2    0.0000
     36 H16        7.7468   11.4057   10.5130 H         2 RES2    0.0000
     37 C15        6.0418   11.9567    9.3626 C.3       2 RES2    0.0000
     38 H17        5.1638   12.2534    9.6823 H         2 RES2    0.0000
     39 C16        5.9562   10.6471    8.6254 C.2       2 RES2    0.0000
     40 C17        6.1405   11.0308   11.7723 C.2       2 RES2    0.0000
     41 O5         5.5257   10.0897   12.1703 O.2       2 RES2    0.0000
     42 C18        5.6414   12.2270   13.7270 C.3       2 RES2    0.0000
     43 H18        4.6946   12.1280   13.5985 H         2 RES2    0.0000
     44 H19        5.8213   13.0759   14.1360 H         2 RES2    0.0000
     45 H20        5.9614   11.5229   14.2966 H         2 RES2    0.0000
     46 O6         6.3091   12.1557   12.4551 O.3       2 RES2    0.0000
     47 C19        6.8181   13.0847    8.7246 C.3       2 RES2    0.0000
     48 H21        6.3480   13.3880    7.9329 H         2 RES2    0.0000
     49 H22        7.6873   12.7556    8.4467 H         2 RES2    0.0000
     50 C20        7.0089   14.2541    9.6642 C.3       2 RES2    0.0000
     51 H23        6.1510   14.5907    9.9350 H         2 RES2    0.0000
     52 H24        7.4977   14.9480    9.2160 H         2 RES2    0.0000
     53 H25        7.4979   13.9663   10.4390 H         2 RES2    0.0000
     54 C21        5.4206   10.2113    7.3759 C.ar      2 RES2    0.0000
     55 C22        5.4981    8.8804    6.9528 C.ar      2 RES2    0.0000
     56 H26        5.8974    8.2396    7.4959 H         2 RES2    0.0000
     57 C23        4.9805    8.5252    5.7270 C.ar      2 RES2    0.0000
     58 H27        5.0230    7.6404    5.4450 H         2 RES2    0.0000
     59 C24        4.4069    9.4629    4.9284 C.ar      2 RES2    0.0000
     60 H28        4.0739    9.2122    4.0977 H         2 RES2    0.0000
     61 C25        4.3109   10.7750    5.3249 C.ar      2 RES2    0.0000
     62 H29        3.9085   11.4088    4.7748 H         2 RES2    0.0000
     63 C26        4.8201   11.1296    6.5424 C.ar      2 RES2    0.0000
     64 H30        4.7586   12.0162    6.8174 H         2 RES2    0.0000
@<TRIPOS>BOND
     1    1    2 1
     2    3    1 1
     3    4    3 1
     4    5    3 1
     5    6    5 1
     6    7    1 2
     7    8    3 1
     8    9    8 2
     9   10   11 1
    10   12   10 1
    11   13   10 1
    12   14    8 1
    13   15    5 1
    14   16   15 1
    15   17   15 1
    16   18   15 1
    17   19   18 1
    18   20   18 1
    19   21   18 1
    20   22    7 1
    21   23   22 ar
    22   24   23 1
    23   25   23 ar
    24   26   25 1
    25   27   25 ar
    26   28   27 1
    27   29   27 ar
    28   30   29 1
    29   31   22 ar
    30   32   31 1
    31   33   34 1
    32   35   33 1
    33   36   35 1
    34   37   35 1
    35   38   37 1
    36   39   33 2
    37   40   35 1
    38   41   40 2
    39   42   43 1
    40   44   42 1
    41   45   42 1
    42   46   40 1
    43   47   37 1
    44   48   47 1
    45   49   47 1
    46   50   47 1
    47   51   50 1
    48   52   50 1
    49   53   50 1
    50   54   39 1
    51   55   54 ar
    52   56   55 1
    53   57   55 ar
    54   58   57 1
    55   59   57 ar
    56   60   59 1
    57   61   59 ar
    58   62   61 1
    59   63   54 ar
    60   64   63 1
    61    5    7 1
    62   10   14 1
    63   29   31 ar
    64   37   39 1
    65   42   46 1
    66   61   63 ar
@<TRIPOS>SUBSTRUCTURE
     1 RES1 1
     2 RES2 33

@<TRIPOS>CRYSIN
   8.0568   11.3550   14.4480  76.7280  80.7650  78.2620   2 1

