# MOL2 file generated by ConQuest
# Please check atom types

@<TRIPOS>MOLECULE
LEDBUU
   100   104     2
SMALL
NO_CHARGES
****
Generated from CSD

@<TRIPOS>ATOM
      1 O1         8.4224    0.7874   15.1981 O.3       1 RES1    0.0000
      2 H1         7.8568    0.4289   14.6421 H         1 RES1    0.0000
      3 O2         5.6562    2.6555   12.7202 O.3       1 RES1    0.0000
      4 O3         6.5656    0.6984   13.3559 O.2       1 RES1    0.0000
      5 O4         7.7958    6.8459   16.0164 O.2       1 RES1    0.0000
      6 O5         8.4055    7.0482   13.9498 O.2       1 RES1    0.0000
      7 O6        13.2114    6.7603   20.2760 O.2       1 RES1    0.0000
      8 O7        14.1681    7.2786   18.4192 O.2       1 RES1    0.0000
      9 N1         8.2205    6.3865   14.9678 N.pl3     1 RES1    0.0000
     10 N2        13.2620    6.7640   19.0510 N.pl3     1 RES1    0.0000
     11 C1         8.8688    4.3168   16.2275 C.3       1 RES1    0.0000
     12 H2         8.0712    4.3615   16.8290 H         1 RES1    0.0000
     13 C2         8.4817    4.9035   14.8762 C.3       1 RES1    0.0000
     14 H3         9.2444    4.7603   14.2451 H         1 RES1    0.0000
     15 C3         7.2150    4.2411   14.2615 C.3       1 RES1    0.0000
     16 H4         7.1891    4.5057   13.2975 H         1 RES1    0.0000
     17 C4         7.3764    2.7374   14.2991 C.2       1 RES1    0.0000
     18 C5         8.2699    2.1123   15.1119 C.2       1 RES1    0.0000
     19 C6         9.2250    2.8377   16.0066 C.3       1 RES1    0.0000
     20 H5        10.1320    2.7839   15.6156 H         1 RES1    0.0000
     21 H6         9.2493    2.3815   16.8843 H         1 RES1    0.0000
     22 C7        10.0343    5.0057   16.9259 C.ar      1 RES1    0.0000
     23 C8        10.1231    4.8880   18.3140 C.ar      1 RES1    0.0000
     24 H7         9.4458    4.4199   18.7881 H         1 RES1    0.0000
     25 C9        11.1829    5.4428   19.0113 C.ar      1 RES1    0.0000
     26 H8        11.2357    5.3606   19.9566 H         1 RES1    0.0000
     27 C10       12.1604    6.1180   18.3091 C.ar      1 RES1    0.0000
     28 C11       12.1201    6.2412   16.9336 C.ar      1 RES1    0.0000
     29 H9        12.8088    6.6974   16.4648 H         1 RES1    0.0000
     30 C12       11.0488    5.6809   16.2558 C.ar      1 RES1    0.0000
     31 H10       11.0059    5.7594   15.3101 H         1 RES1    0.0000
     32 C13        5.9057    4.7210   14.8858 C.ar      1 RES1    0.0000
     33 C14        5.4105    4.1900   16.0734 C.ar      1 RES1    0.0000
     34 H11        5.8789    3.4901   16.5132 H         1 RES1    0.0000
     35 C15        4.2304    4.6854   16.6160 C.ar      1 RES1    0.0000
     36 H12        3.9098    4.3350   17.4383 H         1 RES1    0.0000
     37 C16        3.5191    5.6809   15.9748 C.ar      1 RES1    0.0000
     38 H13        2.7079    6.0057   16.3475 H         1 RES1    0.0000
     39 C17        3.9973    6.1983   14.7885 C.ar      1 RES1    0.0000
     40 H14        3.5103    6.8790   14.3401 H         1 RES1    0.0000
     41 C18        5.1849    5.7274   14.2496 C.ar      1 RES1    0.0000
     42 H15        5.5105    6.0961   13.4373 H         1 RES1    0.0000
     43 C19        6.5147    1.9225   13.4397 C.2       1 RES1    0.0000
     44 C20        4.7150    1.9298   11.8794 C.3       1 RES1    0.0000
     45 H16        4.2425    1.2400   12.4086 H         1 RES1    0.0000
     46 H17        5.1914    1.4855   11.1330 H         1 RES1    0.0000
     47 C21        3.7380    2.9417   11.3476 C.3       1 RES1    0.0000
     48 H18        3.2517    3.3505   12.0945 H         1 RES1    0.0000
     49 H19        3.1025    2.4983   10.7481 H         1 RES1    0.0000
     50 H20        4.2231    3.6361   10.8534 H         1 RES1    0.0000
     51 O8         7.7342    4.9484   10.2115 O.3       2 RES2    0.0000
     52 H21        7.1060    5.2466    9.7936 H         2 RES2    0.0000
     53 O9         4.9884    2.9166    7.8392 O.3       2 RES2    0.0000
     54 O10        5.6247    4.9145    8.6594 O.2       2 RES2    0.0000
     55 O11        9.1500   -0.9642    9.0961 O.2       2 RES2    0.0000
     56 O12        7.1331   -1.3112    9.7992 O.2       2 RES2    0.0000
     57 O13       13.0960   -0.8020   14.6770 O.2       2 RES2    0.0000
     58 O14       14.5039   -0.6214   13.0500 O.2       2 RES2    0.0000
     59 N3         8.1048   -0.5934    9.6102 N.pl3     2 RES2    0.0000
     60 N4        13.3779   -0.5101   13.5238 N.pl3     2 RES2    0.0000
     61 C22        7.9518    0.8586    9.9685 C.3       2 RES2    0.0000
     62 H22        7.4819    0.9179   10.8500 H         2 RES2    0.0000
     63 C23        9.2847    1.5895   10.0831 C.3       2 RES2    0.0000
     64 H23        9.6744    1.6753    9.1671 H         2 RES2    0.0000
     65 C24        8.9716    2.9956   10.6057 C.3       2 RES2    0.0000
     66 H24        8.7817    2.9408   11.5766 H         2 RES2    0.0000
     67 H25        9.7722    3.5659   10.4875 H         2 RES2    0.0000
     68 C25        7.8091    3.6471    9.9220 C.2       2 RES2    0.0000
     69 C26        6.9294    2.9764    9.1286 C.2       2 RES2    0.0000
     70 C27        7.0338    1.4864    8.8799 C.3       2 RES2    0.0000
     71 H26        6.1190    1.1086    9.0255 H         2 RES2    0.0000
     72 C28       10.3301    0.9599   10.9879 C.ar      2 RES2    0.0000
     73 C29       11.6630    1.0073   10.5938 C.ar      2 RES2    0.0000
     74 H27       11.8895    1.3678    9.7453 H         2 RES2    0.0000
     75 C30       12.6643    0.5329   11.4292 C.ar      2 RES2    0.0000
     76 H28       13.5754    0.5612   11.1589 H         2 RES2    0.0000
     77 C31       12.3111    0.0201   12.6563 C.ar      2 RES2    0.0000
     78 C32       11.0031   -0.0228   13.0923 C.ar      2 RES2    0.0000
     79 H29       10.7869   -0.3604   13.9534 H         2 RES2    0.0000
     80 C33       10.0079    0.4416   12.2367 C.ar      2 RES2    0.0000
     81 H30        9.0989    0.4042   12.5087 H         2 RES2    0.0000
     82 C34        7.4407    1.1059    7.4553 C.ar      2 RES2    0.0000
     83 C35        8.4594    1.7565    6.7718 C.ar      2 RES2    0.0000
     84 H31        8.8998    2.4965    7.1735 H         2 RES2    0.0000
     85 C36        8.8400    1.3322    5.5025 C.ar      2 RES2    0.0000
     86 H32        9.5562    1.7647    5.0522 H         2 RES2    0.0000
     87 C37        8.1745    0.2765    4.8935 C.ar      2 RES2    0.0000
     88 H33        8.4289   -0.0064    4.0234 H         2 RES2    0.0000
     89 C38        7.1426   -0.3613    5.5532 C.ar      2 RES2    0.0000
     90 H34        6.6811   -1.0794    5.1350 H         2 RES2    0.0000
     91 C39        6.7830    0.0502    6.8297 C.ar      2 RES2    0.0000
     92 H35        6.0774   -0.3951    7.2822 H         2 RES2    0.0000
     93 C40        5.8128    3.7064    8.5345 C.2       2 RES2    0.0000
     94 C41        3.8483    3.5540    7.1944 C.3       2 RES2    0.0000
     95 H36        4.1402    4.3624    6.7040 H         2 RES2    0.0000
     96 H37        3.1783    3.8223    7.8708 H         2 RES2    0.0000
     97 C42        3.2558    2.5585    6.2452 C.3       2 RES2    0.0000
     98 H38        3.9385    2.2738    5.6028 H         2 RES2    0.0000
     99 H39        2.5073    2.9700    5.7650 H         2 RES2    0.0000
    100 H40        2.9342    1.7802    6.7471 H         2 RES2    0.0000
@<TRIPOS>BOND
     1    1    2 1
     2    3   43 1
     3    4   43 2
     4    5    9 2
     5    6    9 2
     6    7   10 2
     7    8   10 2
     8    9   13 1
     9   10   27 1
    10   11   12 1
    11   13   11 1
    12   14   13 1
    13   15   13 1
    14   16   15 1
    15   17   15 1
    16   18    1 1
    17   19   11 1
    18   20   19 1
    19   21   19 1
    20   22   11 1
    21   23   22 ar
    22   24   23 1
    23   25   23 ar
    24   26   25 1
    25   27   25 ar
    26   28   27 ar
    27   29   28 1
    28   30   22 ar
    29   31   30 1
    30   32   15 1
    31   33   32 ar
    32   34   33 1
    33   35   33 ar
    34   36   35 1
    35   37   35 ar
    36   38   37 1
    37   39   37 ar
    38   40   39 1
    39   41   32 ar
    40   42   41 1
    41   43   17 1
    42   44    3 1
    43   45   44 1
    44   46   44 1
    45   47   44 1
    46   48   47 1
    47   49   47 1
    48   50   47 1
    49   51   52 1
    50   53   93 1
    51   54   93 2
    52   55   59 2
    53   56   59 2
    54   57   60 2
    55   58   60 2
    56   59   61 1
    57   60   77 1
    58   61   62 1
    59   63   61 1
    60   64   63 1
    61   65   63 1
    62   66   65 1
    63   67   65 1
    64   68   51 1
    65   69   68 2
    66   70   61 1
    67   71   70 1
    68   72   63 1
    69   73   72 ar
    70   74   73 1
    71   75   73 ar
    72   76   75 1
    73   77   75 ar
    74   78   77 ar
    75   79   78 1
    76   80   72 ar
    77   81   80 1
    78   82   70 1
    79   83   82 ar
    80   84   83 1
    81   85   83 ar
    82   86   85 1
    83   87   85 ar
    84   88   87 1
    85   89   87 ar
    86   90   89 1
    87   91   82 ar
    88   92   91 1
    89   93   69 1
    90   94   53 1
    91   95   94 1
    92   96   94 1
    93   97   94 1
    94   98   97 1
    95   99   97 1
    96  100   97 1
    97   17   18 2
    98   18   19 1
    99   28   30 ar
   100   39   41 ar
   101   65   68 1
   102   69   70 1
   103   78   80 ar
   104   89   91 ar
@<TRIPOS>SUBSTRUCTURE
     1 RES1 1
     2 RES2 51

@<TRIPOS>CRYSIN
  12.5737    9.1245   18.0027  90.0000 106.5090  90.0000   4 1

