# MOL2 file generated by ConQuest
# Please check atom types

@<TRIPOS>MOLECULE
LEDHOS
    50    43     2
SMALL
NO_CHARGES
****
Generated from CSD

@<TRIPOS>ATOM
      1 C1        12.5642   -0.4793   -2.4475 C.ar      1 RES1    0.0000
      2 C2        11.0403    1.2280   -0.9360 C.ar      1 RES1    0.0000
      3 C3         6.2915    6.1785    2.8727 C.ar      1 RES1    0.0000
      4 H1         6.6001    7.0155    3.1995 H         1 RES1    0.0000
      5 C4         6.6449    4.2454    1.4583 C.ar      1 RES1    0.0000
      6 C5        10.6910   -0.1271   -1.0168 C.ar      1 RES1    0.0000
      7 H2         9.9296   -0.4524   -0.5509 H         1 RES1    0.0000
      8 C6         7.0632    5.4747    1.9488 C.ar      1 RES1    0.0000
      9 H3         7.8882    5.8414    1.6509 H         1 RES1    0.0000
     10 C7         4.6675    4.4429    2.8301 C.ar      1 RES1    0.0000
     11 H4         3.8449    4.0741    3.1275 H         1 RES1    0.0000
     12 C8         4.2000    6.4602    4.2697 C.3       1 RES1    0.0000
     13 H5         4.7699    6.9119    4.9431 H         1 RES1    0.0000
     14 H6         3.5982    5.8373    4.7481 H         1 RES1    0.0000
     15 C9         5.0794    5.6726    3.3212 C.ar      1 RES1    0.0000
     16 C10        2.4460    8.2746    4.4649 C.3       1 RES1    0.0000
     17 H7         1.9378    8.9320    3.9454 H         1 RES1    0.0000
     18 H8         2.9807    8.7366    5.1438 H         1 RES1    0.0000
     19 H9         1.8246    7.6544    4.9015 H         1 RES1    0.0000
     20 N1        13.4038   -1.3903   -3.2464 N.pl3     1 RES1    0.0000
     21 O1        14.2681   -0.9248   -3.9390 O.2       1 RES1    0.0000
     22 C11        3.3652    7.5010    3.5410 C.3       1 RES1    0.0000
     23 H10        3.9714    8.1371    3.0840 H         1 RES1    0.0000
     24 H11        2.8199    7.0501    2.8474 H         1 RES1    0.0000
     25 C12       12.9112    0.8474   -2.3769 C.ar      1 RES1    0.0000
     26 H12       13.6713    1.1699   -2.8455 H         1 RES1    0.0000
     27 C13       12.1495    1.6983   -1.6253 C.ar      1 RES1    0.0000
     28 H13       12.3821    2.6182   -1.5751 H         1 RES1    0.0000
     29 C14        7.4796    3.3986    0.5167 C.3       1 RES1    0.0000
     30 H14        6.8898    2.8192   -0.0284 H         1 RES1    0.0000
     31 H15        7.9924    3.9829   -0.0966 H         1 RES1    0.0000
     32 C15       11.4726   -1.0007   -1.7891 C.ar      1 RES1    0.0000
     33 H16       11.2557   -1.9227   -1.8553 H         1 RES1    0.0000
     34 C16        5.4366    3.7419    1.9119 C.ar      1 RES1    0.0000
     35 H17        5.1298    2.9028    1.5884 H         1 RES1    0.0000
     36 O2        13.1878   -2.5858   -3.1601 O.2       1 RES1    0.0000
     37 C17       10.2631    2.2018   -0.1274 C.2       1 RES1    0.0000
     38 C18        8.4295    2.5464    1.3298 C.3       1 RES1    0.0000
     39 H18        9.0404    3.1355    1.8402 H         1 RES1    0.0000
     40 H19        7.9107    2.0091    1.9803 H         1 RES1    0.0000
     41 O3         9.2152    1.6539    0.4888 O.3       1 RES1    0.0000
     42 O4        10.5454    3.3772   -0.0471 O.2       1 RES1    0.0000
     43 C19       10.8979    0.8357   -0.8671 Du        2 SUP2    0.0000
     44 O5         9.0603    0.9047    0.7270 Du        2 SUP2    0.0000
     45 O6        10.1124    2.8523    0.2669 Du        2 SUP2    0.0000
     46 C20        9.8794    1.5429    0.1268 Du        2 SUP2    0.0000
     47 C21        9.1342    3.5243    1.1757 Du        2 SUP2    0.0000
     48 C22        7.8380    3.8441    0.4752 Du        2 SUP2    0.0000
     49 C23       10.8195   -0.4006   -1.1378 Du        2 SUP2    0.0000
     50 C24       11.9195    1.5056   -1.3139 Du        2 SUP2    0.0000
@<TRIPOS>BOND
     1    1   20 1
     2    2    6 ar
     3    3    4 1
     4    5    8 ar
     5    6    7 1
     6    8    3 ar
     7    9    8 1
     8   10   11 1
     9   12   13 1
    10   14   12 1
    11   15    3 ar
    12   16   17 1
    13   18   16 1
    14   19   16 1
    15   20   21 2
    16   22   12 1
    17   23   22 1
    18   24   22 1
    19   25    1 ar
    20   26   25 1
    21   27    2 ar
    22   28   27 1
    23   29    5 1
    24   30   29 1
    25   31   29 1
    26   32    1 ar
    27   33   32 1
    28   34    5 ar
    29   35   34 1
    30   36   20 2
    31   37    2 1
    32   38   29 1
    33   39   38 1
    34   40   38 1
    35   41   37 1
    36   42   37 2
    37    6   32 ar
    38   10   15 ar
    39   10   34 ar
    40   12   15 1
    41   16   22 1
    42   25   27 ar
    43   38   41 1
@<TRIPOS>SUBSTRUCTURE
     1 RES1 1
     2 SUP2 43

@<TRIPOS>CRYSIN
  24.7320    6.9064   18.9740  90.0000  93.8180  90.0000  15 1

