# MOL2 file generated by ConQuest
# Please check atom types

@<TRIPOS>MOLECULE
LEDVEX
    84    88     2
SMALL
NO_CHARGES
****
Generated from CSD

@<TRIPOS>ATOM
      1 O1        -0.5383    4.7680    7.3448 O.3       1 RES1    0.0000
      2 O2        -2.5163    0.6371    8.2262 O.3       1 RES1    0.0000
      3 O3        -0.0546    2.1824    9.3773 O.2       1 RES1    0.0000
      4 O4        -1.7519    3.3869    9.8406 O.2       1 RES1    0.0000
      5 N1        -1.0739    2.7603    9.0627 N.pl3     1 RES1    0.0000
      6 C1         0.6196    6.9168    8.6118 C.ar      1 RES1    0.0000
      7 H1         0.3533    6.1491    9.1042 H         1 RES1    0.0000
      8 C2         1.2252    7.9867    9.2654 C.ar      1 RES1    0.0000
      9 H2         1.3630    7.9525   10.2040 H         1 RES1    0.0000
     10 C3         1.6275    9.1027    8.5467 C.ar      1 RES1    0.0000
     11 H3         2.0403    9.8320    8.9953 H         1 RES1    0.0000
     12 C4         1.4291    9.1563    7.1865 C.ar      1 RES1    0.0000
     13 H4         1.7138    9.9175    6.6957 H         1 RES1    0.0000
     14 C5         0.8134    8.0994    6.5301 C.ar      1 RES1    0.0000
     15 H5         0.6697    8.1436    5.5914 H         1 RES1    0.0000
     16 C6         0.4048    6.9714    7.2443 C.ar      1 RES1    0.0000
     17 C7        -0.2618    5.8700    6.4695 C.3       1 RES1    0.0000
     18 H6        -1.1060    6.2025    6.0734 H         1 RES1    0.0000
     19 H7         0.3302    5.5722    5.7332 H         1 RES1    0.0000
     20 C8        -1.1706    3.7027    6.7890 C.ar      1 RES1    0.0000
     21 C9        -1.5101    3.5693    5.4477 C.ar      1 RES1    0.0000
     22 H8        -1.2980    4.2566    4.8274 H         1 RES1    0.0000
     23 C10       -2.1645    2.4171    5.0250 C.ar      1 RES1    0.0000
     24 H9        -2.3846    2.3255    4.1052 H         1 RES1    0.0000
     25 C11       -2.5060    1.3963    5.8994 C.ar      1 RES1    0.0000
     26 H10       -2.9496    0.6189    5.5825 H         1 RES1    0.0000
     27 C12       -2.1887    1.5287    7.2477 C.ar      1 RES1    0.0000
     28 C13       -1.4927    2.6609    7.6597 C.ar      1 RES1    0.0000
     29 C14       -3.5322   -0.3332    7.8770 C.3       1 RES1    0.0000
     30 H11       -3.1182   -1.1052    7.4150 H         1 RES1    0.0000
     31 H12       -4.1960    0.0760    7.2672 H         1 RES1    0.0000
     32 C15       -4.2059   -0.7892    9.1363 C.ar      1 RES1    0.0000
     33 C16       -4.1659   -2.1236    9.5281 C.ar      1 RES1    0.0000
     34 H13       -3.6569   -2.7489    9.0266 H         1 RES1    0.0000
     35 C17       -4.8689   -2.5439   10.6517 C.ar      1 RES1    0.0000
     36 H14       -4.8436   -3.4568   10.9128 H         1 RES1    0.0000
     37 C18       -5.6059   -1.6347   11.3902 C.ar      1 RES1    0.0000
     38 H15       -6.0876   -1.9245   12.1558 H         1 RES1    0.0000
     39 C19       -5.6399   -0.3029   11.0116 C.ar      1 RES1    0.0000
     40 H16       -6.1395    0.3236   11.5231 H         1 RES1    0.0000
     41 C20       -4.9471    0.1164    9.8900 C.ar      1 RES1    0.0000
     42 H17       -4.9778    1.0305    9.6325 H         1 RES1    0.0000
     43 O5         4.0616    6.8524    2.5722 O.3       2 RES2    0.0000
     44 O6         5.8254    2.6731    1.5525 O.3       2 RES2    0.0000
     45 O7         3.1767    4.7768    0.7296 O.2       2 RES2    0.0000
     46 O8         3.1890    3.5440    2.5059 O.2       2 RES2    0.0000
     47 N2         3.7126    4.3445    1.7385 N.pl3     2 RES2    0.0000
     48 C21        2.0522    8.3275    1.2262 C.ar      2 RES2    0.0000
     49 H18        2.3990    7.6090    0.7118 H         2 RES2    0.0000
     50 C22        0.8147    8.8658    0.9124 C.ar      2 RES2    0.0000
     51 H19        0.3155    8.5082    0.1880 H         2 RES2    0.0000
     52 C23        0.3007    9.9182    1.6452 C.ar      2 RES2    0.0000
     53 H20       -0.5433   10.2916    1.4191 H         2 RES2    0.0000
     54 C24        1.0232   10.4224    2.7087 C.ar      2 RES2    0.0000
     55 H21        0.6719   11.1427    3.2188 H         2 RES2    0.0000
     56 C25        2.2621    9.8815    3.0372 C.ar      2 RES2    0.0000
     57 H22        2.7506   10.2291    3.7739 H         2 RES2    0.0000
     58 C26        2.7875    8.8347    2.2902 C.ar      2 RES2    0.0000
     59 C27        4.1589    8.2938    2.5904 C.3       2 RES2    0.0000
     60 H23        4.8069    8.6027    1.9086 H         2 RES2    0.0000
     61 H24        4.4646    8.6064    3.4784 H         2 RES2    0.0000
     62 C28        5.2131    6.1370    2.4755 C.ar      2 RES2    0.0000
     63 C29        6.4941    6.6047    2.7750 C.ar      2 RES2    0.0000
     64 H25        6.6262    7.4941    3.0815 H         2 RES2    0.0000
     65 C30        7.5710    5.7424    2.6155 C.ar      2 RES2    0.0000
     66 H26        8.4448    6.0661    2.8009 H         2 RES2    0.0000
     67 C31        7.4230    4.4242    2.1966 C.ar      2 RES2    0.0000
     68 H27        8.1823    3.8635    2.0906 H         2 RES2    0.0000
     69 C32        6.1375    3.9368    1.9343 C.ar      2 RES2    0.0000
     70 C33        5.0656    4.8147    2.0674 C.ar      2 RES2    0.0000
     71 C34        6.9138    1.7315    1.3785 C.3       2 RES2    0.0000
     72 H28        7.5687    1.8257    2.1145 H         2 RES2    0.0000
     73 H29        7.3784    1.9001    0.5208 H         2 RES2    0.0000
     74 C35        6.3204    0.3527    1.3854 C.ar      2 RES2    0.0000
     75 C36        5.6271   -0.1275    0.2793 C.ar      2 RES2    0.0000
     76 H30        5.5455    0.4129   -0.4984 H         2 RES2    0.0000
     77 C37        5.0551   -1.3907    0.3062 C.ar      2 RES2    0.0000
     78 H31        4.5790   -1.7102   -0.4507 H         2 RES2    0.0000
     79 C38        5.1753   -2.1849    1.4291 C.ar      2 RES2    0.0000
     80 H32        4.7770   -3.0479    1.4460 H         2 RES2    0.0000
     81 C39        5.8777   -1.7227    2.5311 C.ar      2 RES2    0.0000
     82 H33        5.9719   -2.2731    3.2994 H         2 RES2    0.0000
     83 C40        6.4451   -0.4537    2.5116 C.ar      2 RES2    0.0000
     84 H34        6.9197   -0.1355    3.2710 H         2 RES2    0.0000
@<TRIPOS>BOND
     1    1   17 1
     2    2   27 1
     3    3    5 2
     4    4    5 2
     5    5   28 1
     6    6    7 1
     7    8    6 ar
     8    9    8 1
     9   10    8 ar
    10   11   10 1
    11   12   10 ar
    12   13   12 1
    13   14   12 ar
    14   15   14 1
    15   16    6 ar
    16   17   16 1
    17   18   17 1
    18   19   17 1
    19   20    1 1
    20   21   20 ar
    21   22   21 1
    22   23   21 ar
    23   24   23 1
    24   25   23 ar
    25   26   25 1
    26   27   25 ar
    27   28   20 ar
    28   29    2 1
    29   30   29 1
    30   31   29 1
    31   32   29 1
    32   33   32 ar
    33   34   33 1
    34   35   33 ar
    35   36   35 1
    36   37   35 ar
    37   38   37 1
    38   39   37 ar
    39   40   39 1
    40   41   32 ar
    41   42   41 1
    42   43   59 1
    43   44   69 1
    44   45   47 2
    45   46   47 2
    46   47   70 1
    47   48   49 1
    48   50   48 ar
    49   51   50 1
    50   52   50 ar
    51   53   52 1
    52   54   52 ar
    53   55   54 1
    54   56   54 ar
    55   57   56 1
    56   58   48 ar
    57   59   58 1
    58   60   59 1
    59   61   59 1
    60   62   43 1
    61   63   62 ar
    62   64   63 1
    63   65   63 ar
    64   66   65 1
    65   67   65 ar
    66   68   67 1
    67   69   67 ar
    68   70   62 ar
    69   71   44 1
    70   72   71 1
    71   73   71 1
    72   74   71 1
    73   75   74 ar
    74   76   75 1
    75   77   75 ar
    76   78   77 1
    77   79   77 ar
    78   80   79 1
    79   81   79 ar
    80   82   81 1
    81   83   74 ar
    82   84   83 1
    83   14   16 ar
    84   27   28 ar
    85   39   41 ar
    86   56   58 ar
    87   69   70 ar
    88   81   83 ar
@<TRIPOS>SUBSTRUCTURE
     1 RES1 1
     2 RES2 43

@<TRIPOS>CRYSIN
   7.6150   14.6248   15.2915  94.7060 101.6270  90.5720   2 1

