# MOL2 file generated by ConQuest
# Please check atom types

@<TRIPOS>MOLECULE
LEDWAS
    16    16     1
SMALL
NO_CHARGES
****
Generated from CSD

@<TRIPOS>ATOM
      1 O1         2.2733    4.4441    8.8802 O.co2     1 RES1    0.0000
      2 O2         2.8851    4.8089    6.7957 O.co2     1 RES1    0.0000
      3 O3        -6.0469   -3.3586    7.8360 O.2       1 RES1    0.0000
      4 O4        -5.5207   -3.1467    5.7514 O.2       1 RES1    0.0000
      5 N1        -1.4477    0.8443    8.3941 N.pl3     1 RES1    0.0000
      6 N2        -5.3539   -2.8535    6.9337 N.pl3     1 RES1    0.0000
      7 C1         2.1472    4.2156    7.7179 C.2       1 RES1    0.0000
      8 C2         1.1505    3.2438    7.1078 C.3       1 RES1    0.0000
      9 C3         0.2951    2.5417    8.1400 C.3       1 RES1    0.0000
     10 C4        -0.5760    1.5150    7.4079 C.3       1 RES1    0.0000
     11 C5        -2.3702   -0.0745    7.9860 C.ar      1 RES1    0.0000
     12 C6        -3.1515   -0.6962    8.9822 C.ar      1 RES1    0.0000
     13 C7        -4.1287   -1.6170    8.6462 C.ar      1 RES1    0.0000
     14 C8        -4.3307   -1.9004    7.2998 C.ar      1 RES1    0.0000
     15 C9        -3.5803   -1.3013    6.2896 C.ar      1 RES1    0.0000
     16 C10       -2.6020   -0.3824    6.6357 C.ar      1 RES1    0.0000
@<TRIPOS>BOND
     1    1    7 2
     2    2    7 1
     3    3    6 2
     4    4    6 2
     5    5   10 1
     6    6   14 1
     7    7    8 1
     8    8    9 1
     9    9   10 1
    10   11    5 1
    11   12   11 ar
    12   13   12 ar
    13   14   13 ar
    14   15   14 ar
    15   16   11 ar
    16   15   16 ar
@<TRIPOS>SUBSTRUCTURE
     1 RES1 1

@<TRIPOS>CRYSIN
   5.4140    9.8060   20.0050  90.0000  90.0000  90.0000  19 1

