# MOL2 file generated by ConQuest
# Please check atom types

@<TRIPOS>MOLECULE
LEDYOK
    62    62     2
SMALL
NO_CHARGES
****
Generated from CSD

@<TRIPOS>ATOM
      1 O1         5.9843    4.4099    4.9418 O.3       1 RES1    0.0000
      2 O2         0.4184   15.5219    5.1691 O.3       2 RES2    0.0000
      3 O3         8.0463    4.3420    6.4687 O.2       1 RES1    0.0000
      4 O4         2.4381   15.6636    6.8725 O.2       2 RES2    0.0000
      5 O5         8.9044    6.1688    6.9985 O.2       1 RES1    0.0000
      6 O6         3.5004   13.8462    6.9670 O.2       2 RES2    0.0000
      7 O7         4.0736   10.0574    7.1141 O.2       1 RES1    0.0000
      8 O8        -1.1394    9.7245    7.2966 O.2       2 RES2    0.0000
      9 O9         6.1002   12.5285    5.7494 O.2       1 RES1    0.0000
     10 O10        0.9726    7.5405    5.5241 O.2       2 RES2    0.0000
     11 O11        6.3972   13.8983    7.4963 O.3       1 RES1    0.0000
     12 O12        1.4286    6.0368    7.1249 O.3       2 RES2    0.0000
     13 N1         7.9967    5.5357    6.5356 N.pl3     1 RES1    0.0000
     14 N2         2.4914   14.4756    6.7316 N.pl3     2 RES2    0.0000
     15 N3         6.2887   10.3097    7.4299 N.am      1 RES1    0.0000
     16 N4         1.1075    9.5975    7.4113 N.am      2 RES2    0.0000
     17 C1         5.7655    5.6480    5.4094 C.ar      1 RES1    0.0000
     18 C2         0.2518   14.2785    5.6417 C.ar      2 RES2    0.0000
     19 C3         6.7710    6.2505    6.1870 C.ar      1 RES1    0.0000
     20 C4         1.2851   13.7118    6.4098 C.ar      2 RES2    0.0000
     21 C5         6.6327    7.5297    6.6790 C.ar      1 RES1    0.0000
     22 H1         7.3266    7.9126    7.1663 H         1 RES1    0.0000
     23 C6         1.2203   12.4250    6.8895 C.ar      2 RES2    0.0000
     24 H2         1.9314   12.0734    7.3753 H         2 RES2    0.0000
     25 C7         5.4684    8.2545    6.4571 C.ar      1 RES1    0.0000
     26 C8         0.0964   11.6505    6.6507 C.ar      2 RES2    0.0000
     27 C9         4.4706    7.6522    5.6889 C.ar      1 RES1    0.0000
     28 H3         3.6811    8.1185    5.5319 H         1 RES1    0.0000
     29 C10       -0.9404   12.2100    5.9162 C.ar      2 RES2    0.0000
     30 H4        -1.7095   11.7089    5.7678 H         2 RES2    0.0000
     31 C11        4.6150    6.3963    5.1578 C.ar      1 RES1    0.0000
     32 H5         3.9404    6.0402    4.6253 H         1 RES1    0.0000
     33 C12       -0.8665   13.4814    5.4013 C.ar      2 RES2    0.0000
     34 H6        -1.5676   13.8136    4.8882 H         2 RES2    0.0000
     35 C13        5.2179    9.6086    7.0233 C.2       1 RES1    0.0000
     36 C14       -0.0349   10.2487    7.1512 C.2       2 RES2    0.0000
     37 C15        6.1714   11.6400    7.9659 C.3       1 RES1    0.0000
     38 H7         6.8922   11.7882    8.5986 H         1 RES1    0.0000
     39 H8         5.3350   11.7103    8.4503 H         1 RES1    0.0000
     40 C16        1.1324    8.2168    7.8205 C.3       2 RES2    0.0000
     41 H9         0.3497    8.0364    8.3644 H         2 RES2    0.0000
     42 H10        1.9161    8.0670    8.3728 H         2 RES2    0.0000
     43 C17        6.2158   12.7102    6.9220 C.2       1 RES1    0.0000
     44 C18        1.1574    7.2554    6.6704 C.2       2 RES2    0.0000
     45 C19        6.3610   15.0587    6.6440 C.3       1 RES1    0.0000
     46 H11        6.8748   15.7653    7.0433 H         1 RES1    0.0000
     47 H12        5.4523   15.3480    6.5345 H         1 RES1    0.0000
     48 H13        6.7325   14.8389    5.7863 H         1 RES1    0.0000
     49 C20        1.3429    4.9426    6.1958 C.3       2 RES2    0.0000
     50 H14        1.9402    4.2429    6.4687 H         2 RES2    0.0000
     51 H15        1.5887    5.2486    5.3179 H         2 RES2    0.0000
     52 H16        0.4433    4.6073    6.1772 H         2 RES2    0.0000
     53 C21        4.9521    3.7657    4.2024 C.3       1 RES1    0.0000
     54 H17        4.1896    3.6280    4.7703 H         1 RES1    0.0000
     55 H18        5.2692    2.9185    3.8823 H         1 RES1    0.0000
     56 H19        4.7012    4.3166    3.4576 H         1 RES1    0.0000
     57 C22       -0.5988   16.0811    4.3434 C.3       2 RES2    0.0000
     58 H20       -1.4070   16.1785    4.8528 H         2 RES2    0.0000
     59 H21       -0.7592   15.5010    3.5958 H         2 RES2    0.0000
     60 H22       -0.3158   16.9422    4.0255 H         2 RES2    0.0000
     61 H23        1.8523    9.9255    7.2337 H         2 RES2    0.0000
     62 H24        7.0617   10.0298    7.3315 H         1 RES1    0.0000
@<TRIPOS>BOND
     1    1   17 1
     2    2   18 1
     3    3   13 2
     4    4   14 2
     5    5   13 2
     6    6   14 2
     7    7   35 2
     8    8   36 2
     9    9   43 2
    10   10   44 2
    11   11   43 1
    12   12   44 1
    13   13   19 1
    14   14   20 1
    15   15   35 1
    16   16   36 1
    17   17   19 ar
    18   18   20 ar
    19   19   21 ar
    20   20   23 ar
    21   21   22 1
    22   23   24 1
    23   25   21 ar
    24   26   23 ar
    25   27   25 ar
    26   28   27 1
    27   29   26 ar
    28   30   29 1
    29   31   17 ar
    30   32   31 1
    31   33   18 ar
    32   34   33 1
    33   35   25 1
    34   36   26 1
    35   37   15 1
    36   38   37 1
    37   39   37 1
    38   40   16 1
    39   41   40 1
    40   42   40 1
    41   43   37 1
    42   44   40 1
    43   45   11 1
    44   46   45 1
    45   47   45 1
    46   48   45 1
    47   49   12 1
    48   50   49 1
    49   51   49 1
    50   52   49 1
    51   53    1 1
    52   54   53 1
    53   55   53 1
    54   56   53 1
    55   57    2 1
    56   58   57 1
    57   59   57 1
    58   60   57 1
    59   61   16 1
    60   62   15 1
    61   27   31 ar
    62   29   33 ar
@<TRIPOS>SUBSTRUCTURE
     1 RES1 1
     2 RES2 2

@<TRIPOS>CRYSIN
  10.4378   13.9110   17.5420  90.0000 106.1460  90.0000  14 1

