# MOL2 file generated by ConQuest
# Please check atom types

@<TRIPOS>MOLECULE
LEFCEG
    23    23     1
SMALL
NO_CHARGES
****
Generated from CSD

@<TRIPOS>ATOM
      1 C1         2.6674    1.5889    2.4834 C.ar      1 RES1    0.0000
      2 C2         3.4481    2.2729    3.4111 C.ar      1 RES1    0.0000
      3 C3         4.6716    2.7626    2.9413 C.ar      1 RES1    0.0000
      4 H1         5.2315    3.2207    3.5258 H         1 RES1    0.0000
      5 C4         5.0703    2.5817    1.6304 C.ar      1 RES1    0.0000
      6 H2         5.8908    2.9156    1.3473 H         1 RES1    0.0000
      7 C5         4.2644    1.9131    0.7438 C.ar      1 RES1    0.0000
      8 H3         4.5307    1.8042   -0.1402 H         1 RES1    0.0000
      9 C6         3.0587    1.4050    1.1707 C.ar      1 RES1    0.0000
     10 H4         2.5111    0.9402    0.5799 H         1 RES1    0.0000
     11 C7         3.0500    2.5512    4.8130 C.2       1 RES1    0.0000
     12 H5         2.2461    2.9966    4.9523 H         1 RES1    0.0000
     13 C8         3.7529    2.2128    5.8744 C.2       1 RES1    0.0000
     14 C9         4.9973    1.4120    5.9819 C.3       1 RES1    0.0000
     15 H6         5.2829    1.1457    5.1052 H         1 RES1    0.0000
     16 H7         4.8298    0.6304    6.5144 H         1 RES1    0.0000
     17 H8         5.6827    1.9412    6.3961 H         1 RES1    0.0000
     18 N1         1.3794    0.9874    2.8649 N.pl3     1 RES1    0.0000
     19 N2         3.1881    2.6166    7.1826 N.pl3     1 RES1    0.0000
     20 O1         0.8678    0.1938    2.1056 O.2       1 RES1    0.0000
     21 O2         0.8792    1.2870    3.9281 O.2       1 RES1    0.0000
     22 O3         3.7674    2.2657    8.1885 O.2       1 RES1    0.0000
     23 O4         2.1754    3.2976    7.2245 O.2       1 RES1    0.0000
@<TRIPOS>BOND
     1    1    2 ar
     2    2    3 ar
     3    3    4 1
     4    5    3 ar
     5    6    5 1
     6    7    5 ar
     7    8    7 1
     8    9    1 ar
     9   10    9 1
    10   11    2 1
    11   12   11 1
    12   13   11 2
    13   14   13 1
    14   15   14 1
    15   16   14 1
    16   17   14 1
    17   18    1 1
    18   19   13 1
    19   20   18 2
    20   21   18 2
    21   22   19 2
    22   23   19 2
    23    7    9 ar
@<TRIPOS>SUBSTRUCTURE
     1 RES1 1

@<TRIPOS>CRYSIN
   6.8274   15.5666    9.9045  90.0000 113.2020  90.0000 231 1

