# MOL2 file generated by ConQuest
# Please check atom types

@<TRIPOS>MOLECULE
LEFJIS
    65    68     1
SMALL
NO_CHARGES
****
Generated from CSD

@<TRIPOS>ATOM
      1 O1         6.9471    3.4061    4.8538 O.3       1 RES1    0.0000
      2 O2         8.7868    3.8257    3.4603 O.3       1 RES1    0.0000
      3 O3         5.8740    4.1993    9.5295 O.2       1 RES1    0.0000
      4 O4         5.9689    1.9009    2.6021 O.3       1 RES1    0.0000
      5 O5         3.9076    2.7988    2.8383 O.2       1 RES1    0.0000
      6 O6        10.8634    2.1196    3.8259 O.3       1 RES1    0.0000
      7 O7        12.8665    2.1714    2.8142 O.2       1 RES1    0.0000
      8 O8        13.7106    3.1941    9.9168 O.2       1 RES1    0.0000
      9 O9        15.6558    2.7426    9.1247 O.2       1 RES1    0.0000
     10 N1        14.4523    2.8797    9.0026 N.pl3     1 RES1    0.0000
     11 C1         7.8088    3.1885    5.9941 C.3       1 RES1    0.0000
     12 H1         8.6568    2.7665    5.6721 H         1 RES1    0.0000
     13 C2         7.0907    2.2052    6.8605 C.2       1 RES1    0.0000
     14 H2         7.0654    1.2999    6.5718 H         1 RES1    0.0000
     15 C3         6.4767    2.5062    8.0185 C.2       1 RES1    0.0000
     16 C4         6.4228    3.9109    8.4735 C.2       1 RES1    0.0000
     17 C5         6.9908    4.9759    7.5861 C.3       1 RES1    0.0000
     18 H3         7.3013    5.7285    8.1486 H         1 RES1    0.0000
     19 H4         6.2723    5.3177    6.9978 H         1 RES1    0.0000
     20 C6         8.1612    4.4919    6.7127 C.3       1 RES1    0.0000
     21 H5         8.9369    4.3090    7.3155 H         1 RES1    0.0000
     22 C7         8.5777    5.5632    5.7365 C.2       1 RES1    0.0000
     23 C8         7.7360    5.6581    4.4884 C.3       1 RES1    0.0000
     24 H6         8.1903    6.2399    3.8289 H         1 RES1    0.0000
     25 H7         6.8636    6.0703    4.7115 H         1 RES1    0.0000
     26 C9         7.5029    4.2795    3.8727 C.3       1 RES1    0.0000
     27 C10        6.5289    4.3140    2.6981 C.3       1 RES1    0.0000
     28 H8         6.7657    5.0778    2.1151 H         1 RES1    0.0000
     29 H9         5.6175    4.4771    3.0491 H         1 RES1    0.0000
     30 C11        6.5041    3.0366    1.8471 C.3       1 RES1    0.0000
     31 C12        7.9399    2.5984    1.5533 C.3       1 RES1    0.0000
     32 H10        7.9295    1.7050    1.1260 H         1 RES1    0.0000
     33 H11        8.3557    3.2356    0.9206 H         1 RES1    0.0000
     34 C13        8.7636    2.5400    2.8239 C.3       1 RES1    0.0000
     35 H12        8.3727    1.8633    3.4466 H         1 RES1    0.0000
     36 C14       10.2039    2.1988    2.5450 C.3       1 RES1    0.0000
     37 H13       10.2683    1.3329    2.0695 H         1 RES1    0.0000
     38 H14       10.6229    2.8987    1.9839 H         1 RES1    0.0000
     39 C15       12.2030    2.1791    3.8152 C.2       1 RES1    0.0000
     40 C16       12.7512    2.2861    5.1969 C.ar      1 RES1    0.0000
     41 C17       11.9527    2.6567    6.2733 C.ar      1 RES1    0.0000
     42 H15       11.0194    2.7784    6.1476 H         1 RES1    0.0000
     43 C18       12.5066    2.8488    7.5222 C.ar      1 RES1    0.0000
     44 H16       11.9714    3.1210    8.2570 H         1 RES1    0.0000
     45 C19       13.8597    2.6342    7.6725 C.ar      1 RES1    0.0000
     46 C20       14.6824    2.2424    6.6366 C.ar      1 RES1    0.0000
     47 H17       15.6092    2.0870    6.7791 H         1 RES1    0.0000
     48 C21       14.1176    2.0814    5.3808 C.ar      1 RES1    0.0000
     49 H18       14.6627    1.8310    4.6449 H         1 RES1    0.0000
     50 C22        5.7860    1.4828    8.8668 C.3       1 RES1    0.0000
     51 H19        6.2278    1.4300    9.7406 H         1 RES1    0.0000
     52 H20        5.8292    0.6091    8.4244 H         1 RES1    0.0000
     53 H21        4.8483    1.7395    8.9893 H         1 RES1    0.0000
     54 C23        9.5836    6.3911    5.9882 C.2       1 RES1    0.0000
     55 H22       10.0661    6.3193    6.8038 H         1 RES1    0.0000
     56 H23        9.8212    7.0558    5.3525 H         1 RES1    0.0000
     57 C24        5.7271    3.2145    0.5486 C.3       1 RES1    0.0000
     58 H24        5.5773    2.3381    0.1350 H         1 RES1    0.0000
     59 H25        6.2406    3.7808   -0.0647 H         1 RES1    0.0000
     60 H26        4.8640    3.6380    0.7399 H         1 RES1    0.0000
     61 C25        4.6932    1.8964    3.0158 C.2       1 RES1    0.0000
     62 C26        4.3824    0.6295    3.7289 C.3       1 RES1    0.0000
     63 H27        4.6892   -0.1308    3.1917 H         1 RES1    0.0000
     64 H28        3.4148    0.5620    3.8689 H         1 RES1    0.0000
     65 H29        4.8388    0.6225    4.5955 H         1 RES1    0.0000
@<TRIPOS>BOND
     1    1   11 1
     2    2   26 1
     3    3   16 2
     4    4   30 1
     5    5   61 2
     6    6   36 1
     7    7   39 2
     8    8   10 2
     9    9   10 2
    10   10   45 1
    11   11   12 1
    12   13   11 1
    13   14   13 1
    14   15   13 2
    15   16   15 1
    16   17   16 1
    17   18   17 1
    18   19   17 1
    19   20   11 1
    20   21   20 1
    21   22   20 1
    22   23   22 1
    23   24   23 1
    24   25   23 1
    25   26    1 1
    26   27   26 1
    27   28   27 1
    28   29   27 1
    29   30   27 1
    30   31   30 1
    31   32   31 1
    32   33   31 1
    33   34    2 1
    34   35   34 1
    35   36   34 1
    36   37   36 1
    37   38   36 1
    38   39    6 1
    39   40   39 1
    40   41   40 ar
    41   42   41 1
    42   43   41 ar
    43   44   43 1
    44   45   43 ar
    45   46   45 ar
    46   47   46 1
    47   48   40 ar
    48   49   48 1
    49   50   15 1
    50   51   50 1
    51   52   50 1
    52   53   50 1
    53   54   22 2
    54   55   54 1
    55   56   54 1
    56   57   30 1
    57   58   57 1
    58   59   57 1
    59   60   57 1
    60   61    4 1
    61   62   61 1
    62   63   62 1
    63   64   62 1
    64   65   62 1
    65   17   20 1
    66   23   26 1
    67   31   34 1
    68   46   48 ar
@<TRIPOS>SUBSTRUCTURE
     1 RES1 1

