# MOL2 file generated by ConQuest
# Please check atom types

@<TRIPOS>MOLECULE
LEFKOY
    23    23     1
SMALL
NO_CHARGES
****
Generated from CSD

@<TRIPOS>ATOM
      1 O1         8.8067    5.2277   14.1755 O.3       1 RES1    0.0000
      2 O2         7.8779    3.3482   14.9385 O.2       1 RES1    0.0000
      3 O3         5.1426    1.8039   13.9977 O.3       1 RES1    0.0000
      4 O4         4.9897    3.7597   15.0775 O.2       1 RES1    0.0000
      5 C1         5.8698    3.7027   12.8572 C.ar      1 RES1    0.0000
      6 O5         3.3999    2.7367   10.5575 O.2       1 RES1    0.0000
      7 C2         7.0100    4.7029   10.4972 C.ar      1 RES1    0.0000
      8 H1         7.4000    5.0230    9.7160 H         1 RES1    0.0000
      9 O6         3.1146    3.3411   12.5922 O.2       1 RES1    0.0000
     10 C3         5.1831    3.7068   11.6436 C.ar      1 RES1    0.0000
     11 N1         3.7983    3.2262   11.5934 N.pl3     1 RES1    0.0000
     12 C4         7.9751    4.2150   14.1082 C.2       1 RES1    0.0000
     13 C5         5.2764    3.1155   14.1107 C.2       1 RES1    0.0000
     14 C6         7.1545    4.2435   12.8575 C.ar      1 RES1    0.0000
     15 C7         9.7163    5.2609   15.3030 C.3       1 RES1    0.0000
     16 H2        10.3540    5.9678   15.1794 H         1 RES1    0.0000
     17 H3        10.1782    4.4219   15.3664 H         1 RES1    0.0000
     18 H4         9.2200    5.4156   16.1097 H         1 RES1    0.0000
     19 C8         7.7082    4.7445   11.6860 C.ar      1 RES1    0.0000
     20 H5         8.5623    5.1126   11.7028 H         1 RES1    0.0000
     21 C9         5.7375    4.1890   10.4715 C.ar      1 RES1    0.0000
     22 H6         5.2550    4.1637    9.6770 H         1 RES1    0.0000
     23 H7         4.8176    1.4498   14.7057 H         1 RES1    0.0000
@<TRIPOS>BOND
     1    1   12 1
     2    2   12 2
     3    3   13 1
     4    4   13 2
     5    5   10 ar
     6    6   11 2
     7    7    8 1
     8    9   11 2
     9   10   11 1
    10   12   14 1
    11   13    5 1
    12   14    5 ar
    13   15    1 1
    14   16   15 1
    15   17   15 1
    16   18   15 1
    17   19    7 ar
    18   20   19 1
    19   21    7 ar
    20   22   21 1
    21   23    3 1
    22   10   21 ar
    23   14   19 ar
@<TRIPOS>SUBSTRUCTURE
     1 RES1 1

@<TRIPOS>CRYSIN
   7.6470    8.1450   15.5830  90.0000  90.0000  90.0000  19 1

