# MOL2 file generated by ConQuest
# Please check atom types

@<TRIPOS>MOLECULE
LEFNER
    39    40     1
SMALL
NO_CHARGES
****
Generated from CSD

@<TRIPOS>ATOM
      1 N1         2.6065    5.9368    1.7815 N.2       1 RES1    0.0000
      2 O1         4.0319    4.0854    0.6179 O.3       1 RES1    0.0000
      3 H1         4.5393    3.5984    0.1961 H         1 RES1    0.0000
      4 O2         5.8252    5.3974    0.6953 O.2       1 RES1    0.0000
      5 O3         1.9367    6.9358    2.4742 O.3       1 RES1    0.0000
      6 O4         5.2046    5.0523    4.1169 O.3       1 RES1    0.0000
      7 C1         3.8665    6.1509    1.7540 C.2       1 RES1    0.0000
      8 C2         4.6589    5.1565    0.9730 C.2       1 RES1    0.0000
      9 C3         0.5236    6.7791    2.2547 C.3       1 RES1    0.0000
     10 H2         0.3311    6.8778    1.3190 H         1 RES1    0.0000
     11 H3         0.0462    7.4475    2.7516 H         1 RES1    0.0000
     12 H4         0.2492    5.9067    2.5467 H         1 RES1    0.0000
     13 C4         4.5816    7.3279    2.3228 C.ar      1 RES1    0.0000
     14 C5         4.8993    8.3845    1.4840 C.ar      1 RES1    0.0000
     15 H5         4.6782    8.3371    0.5820 H         1 RES1    0.0000
     16 C6         5.5391    9.5078    1.9727 C.ar      1 RES1    0.0000
     17 H6         5.7253   10.2239    1.4089 H         1 RES1    0.0000
     18 C7         5.8995    9.5588    3.2982 C.ar      1 RES1    0.0000
     19 H7         6.3377   10.3083    3.6321 H         1 RES1    0.0000
     20 C8         5.6122    8.5006    4.1330 C.ar      1 RES1    0.0000
     21 H8         5.8723    8.5403    5.0248 H         1 RES1    0.0000
     22 C9         4.9428    7.3771    3.6692 C.ar      1 RES1    0.0000
     23 C10        4.6078    6.2563    4.6072 C.3       1 RES1    0.0000
     24 H9         4.9456    6.4550    5.4944 H         1 RES1    0.0000
     25 H10        3.6451    6.1490    4.6638 H         1 RES1    0.0000
     26 C11        5.1179    3.9372    4.9239 C.ar      1 RES1    0.0000
     27 C12        5.7786    2.7972    4.4486 C.ar      1 RES1    0.0000
     28 C13        5.7344    1.6606    5.2450 C.ar      1 RES1    0.0000
     29 H11        6.1667    0.8908    4.9524 H         1 RES1    0.0000
     30 C14        5.0738    1.6348    6.4533 C.ar      1 RES1    0.0000
     31 H12        5.0691    0.8604    6.9683 H         1 RES1    0.0000
     32 C15        4.4238    2.7562    6.8893 C.ar      1 RES1    0.0000
     33 H13        3.9684    2.7431    7.7002 H         1 RES1    0.0000
     34 C16        4.4423    3.9144    6.1263 C.ar      1 RES1    0.0000
     35 H14        3.9999    4.6757    6.4249 H         1 RES1    0.0000
     36 C17        6.5080    2.8106    3.1444 C.3       1 RES1    0.0000
     37 H15        7.0447    2.0176    3.0701 H         1 RES1    0.0000
     38 H16        7.0741    3.5851    3.1026 H         1 RES1    0.0000
     39 H17        5.8751    2.8372    2.4231 H         1 RES1    0.0000
@<TRIPOS>BOND
     1    1    5 1
     2    2    3 1
     3    4    8 2
     4    5    9 1
     5    6   23 1
     6    7    1 2
     7    8    2 1
     8    9   10 1
     9   11    9 1
    10   12    9 1
    11   13    7 1
    12   14   13 ar
    13   15   14 1
    14   16   14 ar
    15   17   16 1
    16   18   16 ar
    17   19   18 1
    18   20   18 ar
    19   21   20 1
    20   22   13 ar
    21   23   22 1
    22   24   23 1
    23   25   23 1
    24   26    6 1
    25   27   26 ar
    26   28   27 ar
    27   29   28 1
    28   30   28 ar
    29   31   30 1
    30   32   30 ar
    31   33   32 1
    32   34   26 ar
    33   35   34 1
    34   36   27 1
    35   37   36 1
    36   38   36 1
    37   39   36 1
    38    7    8 1
    39   20   22 ar
    40   32   34 ar
@<TRIPOS>SUBSTRUCTURE
     1 RES1 1

@<TRIPOS>CRYSIN
   7.8993    8.5720   12.6080  88.0130  82.2700  65.7170   2 1

