# MOL2 file generated by ConQuest
# Please check atom types

@<TRIPOS>MOLECULE
LEFNIV
    42    43     1
SMALL
NO_CHARGES
****
Generated from CSD

@<TRIPOS>ATOM
      1 N1        -0.1769    7.3413    6.8397 N.2       1 RES1    0.0000
      2 N2        -0.1391    9.5648    5.3933 N.am      1 RES1    0.0000
      3 N3        -0.1362   10.7776    4.6638 N.3       1 RES1    0.0000
      4 O1         3.2645    7.3036    5.1333 O.3       1 RES1    0.0000
      5 O2        -0.1065    6.1491    7.5640 O.3       1 RES1    0.0000
      6 O3         0.2334    8.3213    3.5436 O.2       1 RES1    0.0000
      7 C1         4.4583    9.3090    5.0195 C.ar      1 RES1    0.0000
      8 C2         5.4824   10.1141    5.4588 C.ar      1 RES1    0.0000
      9 H1         5.6011   10.9484    5.0661 H         1 RES1    0.0000
     10 C3         6.3347    9.7232    6.4604 C.ar      1 RES1    0.0000
     11 H2         7.0260   10.2830    6.7295 H         1 RES1    0.0000
     12 C4         6.1601    8.5011    7.0627 C.ar      1 RES1    0.0000
     13 H3         6.7350    8.2330    7.7428 H         1 RES1    0.0000
     14 C5         5.1313    7.6639    6.6612 C.ar      1 RES1    0.0000
     15 H4         5.0057    6.8401    7.0758 H         1 RES1    0.0000
     16 C6         4.2939    8.0668    5.6370 C.ar      1 RES1    0.0000
     17 C7         3.5439    9.7435    3.9147 C.3       1 RES1    0.0000
     18 H5         3.7289   10.6582    3.6870 H         1 RES1    0.0000
     19 H6         2.6316    9.6633    4.2041 H         1 RES1    0.0000
     20 H7         3.6854    9.1865    3.1451 H         1 RES1    0.0000
     21 C8         2.9197    6.1302    5.8589 C.3       1 RES1    0.0000
     22 H8         2.5999    6.3717    6.7426 H         1 RES1    0.0000
     23 H9         3.7025    5.5654    5.9629 H         1 RES1    0.0000
     24 C9         1.8567    5.3909    5.1212 C.ar      1 RES1    0.0000
     25 C10        2.1511    4.1528    4.5453 C.ar      1 RES1    0.0000
     26 H10        3.0116    3.8098    4.6209 H         1 RES1    0.0000
     27 C11        1.1997    3.4313    3.8703 C.ar      1 RES1    0.0000
     28 H11        1.4154    2.6055    3.5015 H         1 RES1    0.0000
     29 C12       -0.0676    3.9312    3.7408 C.ar      1 RES1    0.0000
     30 H12       -0.7116    3.4470    3.2782 H         1 RES1    0.0000
     31 C13       -0.3931    5.1583    4.2994 C.ar      1 RES1    0.0000
     32 H13       -1.2556    5.4928    4.2063 H         1 RES1    0.0000
     33 C14        0.5577    5.8894    4.9948 C.ar      1 RES1    0.0000
     34 C15        0.1611    7.1853    5.6202 C.2       1 RES1    0.0000
     35 C16       -0.6316    6.3872    8.8767 C.3       1 RES1    0.0000
     36 H14       -0.0650    7.0101    9.3393 H         1 RES1    0.0000
     37 H15       -0.6640    5.5612    9.3633 H         1 RES1    0.0000
     38 H16       -1.5173    6.7510    8.8054 H         1 RES1    0.0000
     39 C17        0.0873    8.4200    4.7500 C.2       1 RES1    0.0000
     40 H17       -0.3607    9.5949    6.2320 H         1 RES1    0.0000
     41 H18        0.2821   11.3526    5.1424 H         1 RES1    0.0000
     42 H19       -0.9482   11.0541    4.5606 H         1 RES1    0.0000
@<TRIPOS>BOND
     1    1    5 1
     2    2    3 1
     3    3   41 1
     4    4   16 1
     5    5   35 1
     6    6   39 2
     7    7    8 ar
     8    8    9 1
     9   10    8 ar
    10   11   10 1
    11   12   10 ar
    12   13   12 1
    13   14   12 ar
    14   15   14 1
    15   16    7 ar
    16   17    7 1
    17   18   17 1
    18   19   17 1
    19   20   17 1
    20   21    4 1
    21   22   21 1
    22   23   21 1
    23   24   21 1
    24   25   24 ar
    25   26   25 1
    26   27   25 ar
    27   28   27 1
    28   29   27 ar
    29   30   29 1
    30   31   29 ar
    31   32   31 1
    32   33   24 ar
    33   34    1 2
    34   35   36 1
    35   37   35 1
    36   38   35 1
    37   39    2 1
    38   40    2 1
    39   42    3 1
    40   14   16 ar
    41   31   33 ar
    42   33   34 1
    43   34   39 1
@<TRIPOS>SUBSTRUCTURE
     1 RES1 1

@<TRIPOS>CRYSIN
  21.4015   20.7277    7.6975  90.0000 109.1030  90.0000  15 1

