# MOL2 file generated by ConQuest
# Please check atom types

@<TRIPOS>MOLECULE
LEFQIY
    27    15     2
SMALL
NO_CHARGES
****
Generated from CSD

@<TRIPOS>ATOM
      1 O1         3.0582   -2.0697    2.8596 O.2       1 RES1    0.0000
      2 O2         0.0799    1.9975    3.6490 O.2       1 RES1    0.0000
      3 N1         2.1923   -0.6097    1.5402 N.3       1 RES1    0.0000
      4 N2         0.7432    1.0319    1.8786 N.3       1 RES1    0.0000
      5 N3         2.9079   -1.6905    1.6805 N.2       1 RES1    0.0000
      6 N4         0.1513    2.0366    2.4184 N.2       1 RES1    0.0000
      7 C1         1.4996    0.0408    2.6755 C.3       1 RES1    0.0000
      8 C2         2.0411    0.0261    0.2410 C.3       1 RES1    0.0000
      9 C3         0.7803    0.8053    0.4391 C.3       1 RES1    0.0000
     10 H1         1.8997   -0.6458   -0.4295 H         1 RES1    0.0000
     11 H2         2.7713    0.6314    0.0941 H         1 RES1    0.0000
     12 H3         0.8506    1.6481   -0.0161 H         1 RES1    0.0000
     13 H4         0.0281    0.2682    0.1799 H         1 RES1    0.0000
     14 H5         2.1432    0.4953    3.2248 H         1 RES1    0.0000
     15 H6         0.8886   -0.5815    3.0766 H         1 RES1    0.0000
     16 C4         1.7318   -0.3700    0.3342 Du        2 SUP2    0.0000
     17 C5         1.4530    1.1362    0.5484 Du        2 SUP2    0.0000
     18 H7         2.2077    0.3027    3.2693 Du        2 SUP2    0.0000
     19 H8         0.7534   -0.3719    3.1162 Du        2 SUP2    0.0000
     20 H9         0.9393   -0.7984    0.0028 Du        2 SUP2    0.0000
     21 H10        2.5083   -0.4761   -0.2206 Du        2 SUP2    0.0000
     22 H11        2.2679    1.6314    0.4368 Du        2 SUP2    0.0000
     23 H12        0.7131    1.4057   -0.0005 Du        2 SUP2    0.0000
     24 N5         2.0220   -0.8564    1.6698 Du        2 SUP2    0.0000
     25 N6         1.0553    1.1656    1.9493 Du        2 SUP2    0.0000
     26 N7         2.8280   -1.8366    2.1785 Du        2 SUP2    0.0000
     27 O3         3.2590   -2.4132    1.1599 Du        2 SUP2    0.0000
@<TRIPOS>BOND
     1    1    5 2
     2    2    6 2
     3    3    5 1
     4    4    6 1
     5    7    3 1
     6    8    3 1
     7    9    4 1
     8   10    8 1
     9   11    8 1
    10   12    9 1
    11   13    9 1
    12   14    7 1
    13   15    7 1
    14    4    7 1
    15    8    9 1
@<TRIPOS>SUBSTRUCTURE
     1 RES1 1
     2 SUP2 16

@<TRIPOS>CRYSIN
   9.5154    5.4338   10.7104  90.0000  90.0000  90.0000  33 1

