# MOL2 file generated by ConQuest
# Please check atom types

@<TRIPOS>MOLECULE
LEFRAP
    22    22     1
SMALL
NO_CHARGES
****
Generated from CSD

@<TRIPOS>ATOM
      1 N1         0.9108    0.8224    5.4585 N.3       1 RES1    0.0000
      2 N2         2.6978   -0.7600    5.1057 N.3       1 RES1    0.0000
      3 N3         0.2235    1.0223    6.6302 N.pl3     1 RES1    0.0000
      4 N4        -0.0922   -2.0675    4.6311 N.pl3     1 RES1    0.0000
      5 N5         2.7251   -1.7171    6.1609 N.pl3     1 RES1    0.0000
      6 O1        -0.2077   -1.8598    5.8459 O.2       1 RES1    0.0000
      7 O2        -0.4388   -3.1003    4.0673 O.2       1 RES1    0.0000
      8 O3         0.8843    1.2057    7.6633 O.2       1 RES1    0.0000
      9 O4        -1.0084    1.0558    6.5735 O.2       1 RES1    0.0000
     10 O5         2.6668   -2.8991    5.8301 O.2       1 RES1    0.0000
     11 O6         2.8656   -1.2951    7.3021 O.2       1 RES1    0.0000
     12 C1         0.5813   -0.9973    3.7881 C.3       1 RES1    0.0000
     13 H1         0.2856   -1.1117    2.8610 H         1 RES1    0.0000
     14 C2         0.1749    0.4089    4.2437 C.3       1 RES1    0.0000
     15 H2         0.3534    1.0413    3.5308 H         1 RES1    0.0000
     16 H3        -0.7779    0.4247    4.4254 H         1 RES1    0.0000
     17 C3         2.3553    0.6120    5.5005 C.3       1 RES1    0.0000
     18 H4         2.6809    0.7803    6.3992 H         1 RES1    0.0000
     19 H5         2.7911    1.2385    4.9020 H         1 RES1    0.0000
     20 C4         2.1036   -1.2024    3.8301 C.3       1 RES1    0.0000
     21 H6         2.3006   -2.1425    3.6978 H         1 RES1    0.0000
     22 H7         2.5095   -0.7074    3.1025 H         1 RES1    0.0000
@<TRIPOS>BOND
     1    1    3 1
     2    2    5 1
     3    3    8 2
     4    4    6 2
     5    5   10 2
     6    7    4 2
     7    9    3 2
     8   11    5 2
     9   12    4 1
    10   13   12 1
    11   14    1 1
    12   15   14 1
    13   16   14 1
    14   17    1 1
    15   18   17 1
    16   19   17 1
    17   20    2 1
    18   21   20 1
    19   22   20 1
    20    2   17 1
    21   12   14 1
    22   12   20 1
@<TRIPOS>SUBSTRUCTURE
     1 RES1 1

@<TRIPOS>CRYSIN
  12.3390    6.5740   11.1630  90.0000 109.8600  90.0000  14 1

