# MOL2 file generated by ConQuest
# Please check atom types

@<TRIPOS>MOLECULE
LEFRIZ
   128   132     4
SMALL
NO_CHARGES
****
Generated from CSD

@<TRIPOS>ATOM
      1 O1        12.6553    8.4675    1.8985 O.2       1 RES1    0.0000
      2 O2        12.4730   10.0951    0.4895 O.2       1 RES1    0.0000
      3 O3         7.4727    9.9969    0.1599 O.3       1 RES1    0.0000
      4 O4        14.2322    6.0757   -0.2766 O.3       1 RES1    0.0000
      5 O5        10.4034    1.9298    4.0962 O.2       2 RES2    0.0000
      6 O6        10.0778    3.6226    5.3927 O.2       2 RES2    0.0000
      7 O7        15.3766    2.1383    3.8769 O.3       2 RES2    0.0000
      8 O8         8.5689    5.9806    3.1767 O.3       2 RES2    0.0000
      9 O9         2.0447    1.9013    0.7533 O.2       3 RES3    0.0000
     10 O10        1.6772    3.6475   -0.4414 O.2       3 RES3    0.0000
     11 O11        6.9991    2.2300    1.0313 O.3       3 RES3    0.0000
     12 O12        0.1115    5.9439    1.7712 O.3       3 RES3    0.0000
     13 O13        3.9350   10.1234    4.2822 O.2       4 RES4    0.0000
     14 O14        4.2410    8.3408    3.1073 O.2       4 RES4    0.0000
     15 O15       -0.9917    9.8902    4.7639 O.3       4 RES4    0.0000
     16 O16        5.8261    5.9920    5.1749 O.3       4 RES4    0.0000
     17 N1        12.0452    9.0759    1.0285 N.pl3     1 RES1    0.0000
     18 N2        11.7184    6.3901    0.2752 N.2       1 RES1    0.0000
     19 N3        10.7629    2.9817    4.6126 N.pl3     2 RES2    0.0000
     20 N4        11.0671    5.6730    3.8217 N.2       2 RES2    0.0000
     21 N5         2.3689    2.9891    0.3240 N.pl3     3 RES3    0.0000
     22 N6         2.6212    5.6878    1.1714 N.2       3 RES3    0.0000
     23 N7         3.5822    9.0199    3.8840 N.pl3     4 RES4    0.0000
     24 N8         3.2913    6.3207    4.7087 N.2       4 RES4    0.0000
     25 C1        10.5790    7.2102    0.3247 C.ar      1 RES1    0.0000
     26 C2        10.7317    8.5756    0.6118 C.ar      1 RES1    0.0000
     27 C3         9.7041    9.4926    0.5291 C.ar      1 RES1    0.0000
     28 C4         8.4363    9.0319    0.1917 C.ar      1 RES1    0.0000
     29 C5         8.2399    7.6891   -0.1040 C.ar      1 RES1    0.0000
     30 C6         9.3068    6.8065   -0.0531 C.ar      1 RES1    0.0000
     31 C7         6.1249    9.5623   -0.0644 C.3       1 RES1    0.0000
     32 C8        11.6430    5.1343    0.5418 C.2       1 RES1    0.0000
     33 C9        12.8060    4.2674    0.4343 C.ar      1 RES1    0.0000
     34 C10       14.0627    4.7761    0.0453 C.ar      1 RES1    0.0000
     35 C11       15.1710    3.9359    0.0219 C.ar      1 RES1    0.0000
     36 C12       15.0359    2.6062    0.3692 C.ar      1 RES1    0.0000
     37 C13       13.7979    2.0848    0.7279 C.ar      1 RES1    0.0000
     38 C14       12.6970    2.9119    0.7597 C.ar      1 RES1    0.0000
     39 C15       12.2144    4.8630    3.9307 C.ar      2 RES2    0.0000
     40 C16       12.0795    3.5083    4.2419 C.ar      2 RES2    0.0000
     41 C17       13.1272    2.6125    4.2115 C.ar      2 RES2    0.0000
     42 C18       14.3983    3.0831    3.8889 C.ar      2 RES2    0.0000
     43 C19       14.5838    4.4284    3.5784 C.ar      2 RES2    0.0000
     44 C20       13.4929    5.2925    3.5862 C.ar      2 RES2    0.0000
     45 C21       16.7159    2.5750    3.6315 C.3       2 RES2    0.0000
     46 C22       11.1245    6.9296    4.0771 C.2       2 RES2    0.0000
     47 C23        9.9726    7.7972    3.9010 C.ar      2 RES2    0.0000
     48 C24        8.7337    7.2908    3.4702 C.ar      2 RES2    0.0000
     49 C25        7.6362    8.1455    3.3485 C.ar      2 RES2    0.0000
     50 C26        7.7715    9.4843    3.6385 C.ar      2 RES2    0.0000
     51 C27        8.9922   10.0059    4.0658 C.ar      2 RES2    0.0000
     52 C28       10.0781    9.1647    4.1988 C.ar      2 RES2    0.0000
     53 C29        3.7788    4.8948    1.0582 C.ar      3 RES3    0.0000
     54 C30        3.6703    3.5368    0.7279 C.ar      3 RES3    0.0000
     55 C31        4.7330    2.6644    0.7413 C.ar      3 RES3    0.0000
     56 C32        5.9944    3.1535    1.0688 C.ar      3 RES3    0.0000
     57 C33        6.1541    4.4908    1.4140 C.ar      3 RES3    0.0000
     58 C34        5.0532    5.3327    1.4217 C.ar      3 RES3    0.0000
     59 C35        8.3310    2.7055    1.2322 C.3       3 RES3    0.0000
     60 C36        2.6659    6.9547    0.9471 C.2       3 RES3    0.0000
     61 C37        1.5050    7.7995    1.1409 C.ar      3 RES3    0.0000
     62 C38        0.2612    7.2629    1.5293 C.ar      3 RES3    0.0000
     63 C39       -0.8482    8.0939    1.6446 C.ar      3 RES3    0.0000
     64 C40       -0.7322    9.4453    1.4232 C.ar      3 RES3    0.0000
     65 C41        0.4980   10.0026    1.0822 C.ar      3 RES3    0.0000
     66 C42        1.5952    9.1807    0.9202 C.ar      3 RES3    0.0000
     67 C43        2.1517    7.1419    4.6571 C.ar      4 RES4    0.0000
     68 C44        2.2887    8.5048    4.3452 C.ar      4 RES4    0.0000
     69 C45        1.2503    9.4053    4.4081 C.ar      4 RES4    0.0000
     70 C46       -0.0160    8.9448    4.7625 C.ar      4 RES4    0.0000
     71 C47       -0.1951    7.6083    5.0950 C.ar      4 RES4    0.0000
     72 C48        0.8810    6.7342    5.0553 C.ar      4 RES4    0.0000
     73 C49       -2.3283    9.4502    5.0419 C.3       4 RES4    0.0000
     74 C50        3.2090    5.0669    4.4322 C.2       4 RES4    0.0000
     75 C51        4.3588    4.1862    4.5454 C.ar      4 RES4    0.0000
     76 C52        5.6240    4.6846    4.9075 C.ar      4 RES4    0.0000
     77 C53        6.7167    3.8210    4.9683 C.ar      4 RES4    0.0000
     78 C54        6.5570    2.4826    4.7045 C.ar      4 RES4    0.0000
     79 C55        5.3104    1.9711    4.3544 C.ar      4 RES4    0.0000
     80 C56        4.2245    2.8212    4.2695 C.ar      4 RES4    0.0000
     81 H1         9.8603   10.4242    0.6999 H         1 RES1    0.0000
     82 H2         7.3658    7.3728   -0.3436 H         1 RES1    0.0000
     83 H3         9.1611    5.8868   -0.2867 H         1 RES1    0.0000
     84 H4         5.8880    8.9031    0.5921 H         1 RES1    0.0000
     85 H5         6.0537    9.1802   -0.9420 H         1 RES1    0.0000
     86 H6         5.5308   10.3130    0.0071 H         1 RES1    0.0000
     87 H7        10.8021    4.7616    0.8166 H         1 RES1    0.0000
     88 H8        16.0293    4.2803   -0.2358 H         1 RES1    0.0000
     89 H9        15.8069    2.0343    0.3626 H         1 RES1    0.0000
     90 H10       13.7111    1.1553    0.9512 H         1 RES1    0.0000
     91 H11       11.8425    2.5526    1.0089 H         1 RES1    0.0000
     92 H12       12.9840    1.6839    4.4093 H         2 RES2    0.0000
     93 H13       15.4589    4.7575    3.3603 H         2 RES2    0.0000
     94 H14       13.6261    6.2126    3.3469 H         2 RES2    0.0000
     95 H15       17.2995    1.8135    3.5978 H         2 RES2    0.0000
     96 H16       16.7516    3.0430    2.7942 H         2 RES2    0.0000
     97 H17       16.9955    3.1615    4.3382 H         2 RES2    0.0000
     98 H18       11.9495    7.3055    4.3930 H         2 RES2    0.0000
     99 H19        6.7877    7.7997    3.0621 H         2 RES2    0.0000
    100 H20        7.0144   10.0673    3.5459 H         2 RES2    0.0000
    101 H21        9.0763   10.9412    4.2648 H         2 RES2    0.0000
    102 H22       10.9178    9.5198    4.4999 H         2 RES2    0.0000
    103 H23        4.6075    1.7364    0.5294 H         3 RES3    0.0000
    104 H24        7.0221    4.8293    1.6454 H         3 RES3    0.0000
    105 H25        5.1713    6.2481    1.6855 H         3 RES3    0.0000
    106 H26        8.9492    1.9782    1.1294 H         3 RES3    0.0000
    107 H27        8.5283    3.3870    0.5854 H         3 RES3    0.0000
    108 H28        8.4106    3.0707    2.1163 H         3 RES3    0.0000
    109 H29        3.4874    7.3487    0.6449 H         3 RES3    0.0000
    110 H30       -1.7007    7.7209    1.8806 H         3 RES3    0.0000
    111 H31       -1.5048   10.0094    1.5034 H         3 RES3    0.0000
    112 H32        0.5822   10.9511    0.9613 H         3 RES3    0.0000
    113 H33        2.4343    9.5619    0.6517 H         3 RES3    0.0000
    114 H34        1.3957   10.3337    4.2115 H         4 RES4    0.0000
    115 H35       -1.0632    7.2897    5.3530 H         4 RES4    0.0000
    116 H36        0.7454    5.8186    5.3099 H         4 RES4    0.0000
    117 H37       -2.9318   10.1931    4.9669 H         4 RES4    0.0000
    118 H38       -2.5787    8.7700    4.4124 H         4 RES4    0.0000
    119 H39       -2.3694    9.0932    5.9320 H         4 RES4    0.0000
    120 H40        2.3679    4.7047    4.1440 H         4 RES4    0.0000
    121 H41        7.5843    4.1632    5.1960 H         4 RES4    0.0000
    122 H42        7.3129    1.8937    4.7626 H         4 RES4    0.0000
    123 H43        5.2061    1.0343    4.1726 H         4 RES4    0.0000
    124 H44        3.3669    2.4708    4.0175 H         4 RES4    0.0000
    125 H45       13.4743    6.4685   -0.1485 H         1 RES1    0.0000
    126 H46        9.3190    5.5661    3.3740 H         2 RES2    0.0000
    127 H47        0.9199    5.5324    1.6057 H         3 RES3    0.0000
    128 H48        5.0380    6.4221    5.0645 H         4 RES4    0.0000
@<TRIPOS>BOND
     1    1   17 2
     2    2   17 2
     3    3   28 1
     4    4   34 1
     5    5   19 2
     6    6   19 2
     7    7   42 1
     8    8   48 1
     9    9   21 2
    10   10   21 2
    11   11   56 1
    12   12   62 1
    13   13   23 2
    14   14   23 2
    15   15   70 1
    16   16   76 1
    17   17   26 1
    18   18   25 1
    19   19   40 1
    20   20   39 1
    21   21   54 1
    22   22   53 1
    23   23   68 1
    24   24   67 1
    25   25   26 ar
    26   26   27 ar
    27   27   28 ar
    28   28   29 ar
    29   29   30 ar
    30   30   25 ar
    31   31    3 1
    32   32   18 2
    33   33   32 1
    34   34   33 ar
    35   35   34 ar
    36   36   35 ar
    37   37   36 ar
    38   38   33 ar
    39   39   40 ar
    40   40   41 ar
    41   41   42 ar
    42   42   43 ar
    43   43   44 ar
    44   44   39 ar
    45   45    7 1
    46   46   20 2
    47   47   46 1
    48   48   47 ar
    49   49   48 ar
    50   50   49 ar
    51   51   50 ar
    52   52   47 ar
    53   53   54 ar
    54   54   55 ar
    55   55   56 ar
    56   56   57 ar
    57   57   58 ar
    58   58   53 ar
    59   59   11 1
    60   60   22 2
    61   61   60 1
    62   62   61 ar
    63   63   62 ar
    64   64   63 ar
    65   65   64 ar
    66   66   61 ar
    67   67   68 ar
    68   68   69 ar
    69   69   70 ar
    70   70   71 ar
    71   71   72 ar
    72   72   67 ar
    73   73   15 1
    74   74   24 2
    75   75   74 1
    76   76   75 ar
    77   77   76 ar
    78   78   77 ar
    79   79   78 ar
    80   80   75 ar
    81   81   27 1
    82   82   29 1
    83   83   30 1
    84   84   31 1
    85   85   31 1
    86   86   31 1
    87   87   32 1
    88   88   35 1
    89   89   36 1
    90   90   37 1
    91   91   38 1
    92   92   41 1
    93   93   43 1
    94   94   44 1
    95   95   45 1
    96   96   45 1
    97   97   45 1
    98   98   46 1
    99   99   49 1
   100  100   50 1
   101  101   51 1
   102  102   52 1
   103  103   55 1
   104  104   57 1
   105  105   58 1
   106  106   59 1
   107  107   59 1
   108  108   59 1
   109  109   60 1
   110  110   63 1
   111  111   64 1
   112  112   65 1
   113  113   66 1
   114  114   69 1
   115  115   71 1
   116  116   72 1
   117  117   73 1
   118  118   73 1
   119  119   73 1
   120  120   74 1
   121  121   77 1
   122  122   78 1
   123  123   79 1
   124  124   80 1
   125  125    4 1
   126  126    8 1
   127  127   12 1
   128  128   16 1
   129   37   38 ar
   130   51   52 ar
   131   65   66 ar
   132   79   80 ar
@<TRIPOS>SUBSTRUCTURE
     1 RES1 1
     2 RES2 5
     3 RES3 9
     4 RES4 13

@<TRIPOS>CRYSIN
  16.8655   21.0838    7.0741  90.0000  90.8170  90.0000   4 1

