# MOL2 file generated by ConQuest
# Please check atom types

@<TRIPOS>MOLECULE
LEFRET
    31    31     1
SMALL
NO_CHARGES
****
Generated from CSD

@<TRIPOS>ATOM
      1 N1         3.1481    2.8840    6.3753 N.3       1 RES1    0.0000
      2 N2         2.3565    4.8951    7.2848 N.3       1 RES1    0.0000
      3 N3         4.5242    2.7466    6.3694 N.pl3     1 RES1    0.0000
      4 N4         3.5180    5.2873    4.5313 N.pl3     1 RES1    0.0000
      5 N5         2.1098    5.6557    8.4044 N.pl3     1 RES1    0.0000
      6 O1         3.8399    6.2961    5.1146 O.2       1 RES1    0.0000
      7 O2         4.2012    4.7749    3.6468 O.2       1 RES1    0.0000
      8 O3         5.1124    2.9790    7.4185 O.2       1 RES1    0.0000
      9 O4         5.0409    2.3360    5.3571 O.2       1 RES1    0.0000
     10 O5         1.6795    6.7834    8.2251 O.2       1 RES1    0.0000
     11 O6         2.4033    5.1658    9.4858 O.2       1 RES1    0.0000
     12 O7         0.4513    5.4550    1.0579 O.2       1 RES1    0.0000
     13 O8         0.3786    7.6404    1.4781 O.3       1 RES1    0.0000
     14 H1         0.1048    7.6642    0.6744 H         1 RES1    0.0000
     15 C1         2.1888    4.6046    4.8546 C.3       1 RES1    0.0000
     16 C2         2.4958    3.1137    5.0941 C.3       1 RES1    0.0000
     17 H2         1.6635    2.6370    5.0941 H         1 RES1    0.0000
     18 H3         3.0384    2.7691    4.3800 H         1 RES1    0.0000
     19 C3         2.5513    3.4624    7.5316 C.3       1 RES1    0.0000
     20 H4         3.0815    3.3079    8.3177 H         1 RES1    0.0000
     21 H5         1.6930    3.0490    7.6609 H         1 RES1    0.0000
     22 C4         1.5932    5.2609    6.0711 C.3       1 RES1    0.0000
     23 H6         1.5919    6.2156    5.9595 H         1 RES1    0.0000
     24 H7         0.6831    4.9664    6.1608 H         1 RES1    0.0000
     25 C5         1.3453    4.7802    3.6189 C.3       1 RES1    0.0000
     26 H8         0.4945    4.3788    3.8070 H         1 RES1    0.0000
     27 H9         1.7313    4.3194    2.8710 H         1 RES1    0.0000
     28 C6         1.0284    6.2341    3.2486 C.3       1 RES1    0.0000
     29 H10        1.8472    6.7200    3.3735 H         1 RES1    0.0000
     30 H11        0.3625    6.6210    3.8231 H         1 RES1    0.0000
     31 C7         0.6005    6.3859    1.8322 C.2       1 RES1    0.0000
@<TRIPOS>BOND
     1    1    3 1
     2    2    5 1
     3    3    8 2
     4    4    6 2
     5    5   10 2
     6    7    4 2
     7    9    3 2
     8   11    5 2
     9   12   31 2
    10   13   14 1
    11   15    4 1
    12   16    1 1
    13   17   16 1
    14   18   16 1
    15   19    1 1
    16   20   19 1
    17   21   19 1
    18   22    2 1
    19   23   22 1
    20   24   22 1
    21   25   15 1
    22   26   25 1
    23   27   25 1
    24   28   25 1
    25   29   28 1
    26   30   28 1
    27   31   13 1
    28    2   19 1
    29   15   16 1
    30   15   22 1
    31   28   31 1
@<TRIPOS>SUBSTRUCTURE
     1 RES1 1

@<TRIPOS>CRYSIN
  12.3310   13.2050   14.6930  90.0000  90.0000  90.0000  61 1

