# MOL2 file generated by ConQuest
# Please check atom types

@<TRIPOS>MOLECULE
LEFTAR
    13    14     1
SMALL
NO_CHARGES
****
Generated from CSD

@<TRIPOS>ATOM
      1 N1        -1.1699    3.6325    8.4560 N.3       1 RES1    0.0000
      2 N2        -2.4149    3.3883    8.9933 N.2       1 RES1    0.0000
      3 O1        -2.4894    4.0977    9.8688 O.2       1 RES1    0.0000
      4 C1        -0.8649    2.8241    7.3344 C.3       1 RES1    0.0000
      5 C2         0.6126    3.0061    7.1710 C.3       1 RES1    0.0000
      6 C3         1.1461    2.7627    5.7620 C.ar      1 RES1    0.0000
      7 C4         0.6177    3.3492    4.6592 C.ar      1 RES1    0.0000
      8 C5         1.1673    3.1322    3.4061 C.ar      1 RES1    0.0000
      9 C6         2.2583    2.3142    3.2671 C.ar      1 RES1    0.0000
     10 C7         2.7886    1.7205    4.3680 C.ar      1 RES1    0.0000
     11 C8         2.2454    1.9336    5.6004 C.ar      1 RES1    0.0000
     12 C9         0.8405    4.4369    7.6745 C.3       1 RES1    0.0000
     13 C10       -0.0976    4.5374    8.8393 C.3       1 RES1    0.0000
@<TRIPOS>BOND
     1    1    2 1
     2    2    3 2
     3    4    1 1
     4    5    4 1
     5    6    5 1
     6    7    6 ar
     7    8    7 ar
     8    9    8 ar
     9   10    9 ar
    10   11    6 ar
    11   12    5 1
    12   13    1 1
    13   10   11 ar
    14   12   13 1
@<TRIPOS>SUBSTRUCTURE
     1 RES1 1

@<TRIPOS>CRYSIN
   6.4210    7.9800   18.7870  90.0000  90.0000  90.0000  19 1

