# MOL2 file generated by ConQuest
# Please check atom types

@<TRIPOS>MOLECULE
LEFXUR
    35    36     1
SMALL
NO_CHARGES
****
Generated from CSD

@<TRIPOS>ATOM
      1 C1         8.8937    5.3225    8.9003 C.3       1 RES1    0.0000
      2 H1         8.9846    6.0629    9.5516 H         1 RES1    0.0000
      3 H2         9.7571    5.2361    8.4245 H         1 RES1    0.0000
      4 C2         8.6298    4.0303    9.6667 C.3       1 RES1    0.0000
      5 H3         9.4713    3.7474   10.1045 H         1 RES1    0.0000
      6 H4         8.3803    3.3250    9.0179 H         1 RES1    0.0000
      7 C3         7.5372    4.1206   10.7281 C.3       1 RES1    0.0000
      8 H5         7.4469    3.2355   11.1618 H         1 RES1    0.0000
      9 H6         7.8260    4.7643   11.4219 H         1 RES1    0.0000
     10 C4         6.1708    4.5477   10.2119 C.3       1 RES1    0.0000
     11 H7         5.5173    4.4894   10.9535 H         1 RES1    0.0000
     12 H8         5.8836    3.9145    9.5066 H         1 RES1    0.0000
     13 C5         6.1441    5.9719    9.6392 C.3       1 RES1    0.0000
     14 H9         5.2183    6.3179    9.6901 H         1 RES1    0.0000
     15 H10        6.7138    6.5529   10.2036 H         1 RES1    0.0000
     16 C6         6.6184    6.0670    8.2131 C.2       1 RES1    0.0000
     17 C7         5.7524    6.5656    7.2431 C.2       1 RES1    0.0000
     18 H11        4.8499    6.7330    7.4877 H         1 RES1    0.0000
     19 C8         6.1486    6.8354    5.9091 C.2       1 RES1    0.0000
     20 C9         5.2067    7.6353    5.0461 C.ar      1 RES1    0.0000
     21 C10        3.8284    7.6713    5.2599 C.ar      1 RES1    0.0000
     22 H12        3.4457    7.1434    5.9508 H         1 RES1    0.0000
     23 C11        3.0106    8.4692    4.4735 C.ar      1 RES1    0.0000
     24 H13        2.0740    8.5061    4.6278 H         1 RES1    0.0000
     25 C12        3.5922    9.2123    3.4560 C.ar      1 RES1    0.0000
     26 C13        4.9510    9.1804    3.1963 C.ar      1 RES1    0.0000
     27 H14        5.3238    9.6880    2.4850 H         1 RES1    0.0000
     28 C14        5.7527    8.3883    4.0010 C.ar      1 RES1    0.0000
     29 H15        6.6882    8.3557    3.8407 H         1 RES1    0.0000
     30 N1         7.8596    5.6804    7.9291 N.pl3     1 RES1    0.0000
     31 H16        8.0934    5.7250    7.0644 H         1 RES1    0.0000
     32 N2         2.7240   10.0298    2.5974 N.pl3     1 RES1    0.0000
     33 O1         7.2614    6.5166    5.4281 O.2       1 RES1    0.0000
     34 O2         1.5777   10.2561    2.9664 O.2       1 RES1    0.0000
     35 O3         3.1854   10.4423    1.5345 O.2       1 RES1    0.0000
@<TRIPOS>BOND
     1    1    2 1
     2    3    1 1
     3    4    1 1
     4    5    4 1
     5    6    4 1
     6    7    4 1
     7    8    7 1
     8    9    7 1
     9   10    7 1
    10   11   10 1
    11   12   10 1
    12   13   10 1
    13   14   13 1
    14   15   13 1
    15   16   13 1
    16   17   16 2
    17   18   17 1
    18   19   17 1
    19   20   19 1
    20   21   20 ar
    21   22   21 1
    22   23   21 ar
    23   24   23 1
    24   25   23 ar
    25   26   25 ar
    26   27   26 1
    27   28   20 ar
    28   29   28 1
    29   30    1 1
    30   31   30 1
    31   32   25 1
    32   33   19 2
    33   34   32 2
    34   35   32 2
    35   16   30 1
    36   26   28 ar
@<TRIPOS>SUBSTRUCTURE
     1 RES1 1

@<TRIPOS>CRYSIN
   6.7963    8.4054   11.6649  76.5080  81.1340  80.5960   2 1

