# MOL2 file generated by ConQuest
# Please check atom types

@<TRIPOS>MOLECULE
LEFZED
    64    66     2
SMALL
NO_CHARGES
****
Generated from CSD

@<TRIPOS>ATOM
      1 O1         2.0983    0.5516    6.8617 O.2       1 RES1    0.0000
      2 O2         2.0566    0.8646    0.5738 O.3       1 RES1    0.0000
      3 O3         1.5257   -3.5781   -3.7520 O.2       1 RES1    0.0000
      4 O4         1.5301   -4.8126   -2.0103 O.2       1 RES1    0.0000
      5 N1         4.0414    0.8990    5.7888 N.am      1 RES1    0.0000
      6 N2         1.5747   -3.7161   -2.5512 N.pl3     1 RES1    0.0000
      7 C1         4.0799    0.5644    8.1762 C.3       1 RES1    0.0000
      8 C2         3.3075    0.6767    6.8943 C.2       1 RES1    0.0000
      9 C3         3.5260    0.8984    4.4666 C.ar      1 RES1    0.0000
     10 C4         2.3813    1.6005    4.1278 C.ar      1 RES1    0.0000
     11 C5         1.8816    1.5380    2.8408 C.ar      1 RES1    0.0000
     12 C6         2.5462    0.8132    1.8893 C.ar      1 RES1    0.0000
     13 C7         3.7122    0.1495    2.1930 C.ar      1 RES1    0.0000
     14 C8         4.1890    0.1810    3.4900 C.ar      1 RES1    0.0000
     15 C9         1.9460   -0.2977   -0.1486 C.ar      1 RES1    0.0000
     16 C10        1.7192   -1.5361    0.4406 C.ar      1 RES1    0.0000
     17 C11        1.5989   -2.6538   -0.3492 C.ar      1 RES1    0.0000
     18 C12        1.6866   -2.5202   -1.7154 C.ar      1 RES1    0.0000
     19 C13        1.9025   -1.2939   -2.3167 C.ar      1 RES1    0.0000
     20 C14        2.0384   -0.1841   -1.5256 C.ar      1 RES1    0.0000
     21 O5         3.3860   11.0062    5.9395 O.2       2 RES2    0.0000
     22 O6         4.9161    5.1539    3.5571 O.3       2 RES2    0.0000
     23 O7         4.6319    2.7753   -2.1761 O.2       2 RES2    0.0000
     24 O8         4.6250    4.8620   -2.6808 O.2       2 RES2    0.0000
     25 N3         5.4892   10.1926    5.8547 N.am      2 RES2    0.0000
     26 N4         4.6626    3.9571   -1.8636 N.pl3     2 RES2    0.0000
     27 C15        5.1113   12.3200    6.9266 C.3       2 RES2    0.0000
     28 C16        4.5708   11.1189    6.2127 C.2       2 RES2    0.0000
     29 C17        5.2802    8.9549    5.2143 C.ar      2 RES2    0.0000
     30 C18        4.0496    8.3193    5.1618 C.ar      2 RES2    0.0000
     31 C19        3.9343    7.0776    4.5640 C.ar      2 RES2    0.0000
     32 C20        5.0360    6.4701    4.0358 C.ar      2 RES2    0.0000
     33 C21        6.2748    7.0752    4.0796 C.ar      2 RES2    0.0000
     34 C22        6.3869    8.3204    4.6628 C.ar      2 RES2    0.0000
     35 C23        4.8406    4.9364    2.2134 C.ar      2 RES2    0.0000
     36 C24        4.7698    3.6068    1.8303 C.ar      2 RES2    0.0000
     37 C25        4.7163    3.2832    0.4978 C.ar      2 RES2    0.0000
     38 C26        4.7218    4.2921   -0.4451 C.ar      2 RES2    0.0000
     39 C27        4.7558    5.6162   -0.0726 C.ar      2 RES2    0.0000
     40 C28        4.8195    5.9464    1.2652 C.ar      2 RES2    0.0000
     41 H1         4.8815    1.0522    5.8905 H         1 RES1    0.0000
     42 H2         3.7486    1.2085    8.8065 H         1 RES1    0.0000
     43 H3         5.0092    0.7320    8.0055 H         1 RES1    0.0000
     44 H4         3.9745   -0.3192    8.5366 H         1 RES1    0.0000
     45 H5         1.9473    2.1160    4.7686 H         1 RES1    0.0000
     46 H6         1.0969    1.9868    2.6223 H         1 RES1    0.0000
     47 H7         4.1740   -0.3153    1.5333 H         1 RES1    0.0000
     48 H8         4.9638   -0.2852    3.7071 H         1 RES1    0.0000
     49 H9         1.6494   -1.6078    1.3652 H         1 RES1    0.0000
     50 H10        1.4601   -3.4894    0.0345 H         1 RES1    0.0000
     51 H11        1.9546   -1.2238   -3.2426 H         1 RES1    0.0000
     52 H12        2.1928    0.6468   -1.9137 H         1 RES1    0.0000
     53 H13        6.3065   10.3837    6.0423 H         2 RES2    0.0000
     54 H14        5.0493   13.0875    6.3533 H         2 RES2    0.0000
     55 H15        6.0297   12.1675    7.1594 H         2 RES2    0.0000
     56 H16        4.6001   12.4746    7.7244 H         2 RES2    0.0000
     57 H17        3.2999    8.7288    5.5295 H         2 RES2    0.0000
     58 H18        3.1061    6.6567    4.5221 H         2 RES2    0.0000
     59 H19        7.0214    6.6511    3.7223 H         2 RES2    0.0000
     60 H20        7.2157    8.7418    4.6870 H         2 RES2    0.0000
     61 H21        4.7584    2.9358    2.4742 H         2 RES2    0.0000
     62 H22        4.6769    2.3928    0.2323 H         2 RES2    0.0000
     63 H23        4.7361    6.2846   -0.7188 H         2 RES2    0.0000
     64 H24        4.8480    6.8381    1.5281 H         2 RES2    0.0000
@<TRIPOS>BOND
     1    1    8 2
     2    2   12 1
     3    3    6 2
     4    4    6 2
     5    5    8 1
     6    6   18 1
     7    7    8 1
     8    9    5 1
     9   10    9 ar
    10   11   10 ar
    11   12   11 ar
    12   13   12 ar
    13   14    9 ar
    14   15    2 1
    15   16   15 ar
    16   17   16 ar
    17   18   17 ar
    18   19   18 ar
    19   20   15 ar
    20   21   28 2
    21   22   32 1
    22   23   26 2
    23   24   26 2
    24   25   28 1
    25   26   38 1
    26   27   28 1
    27   29   25 1
    28   30   29 ar
    29   31   30 ar
    30   32   31 ar
    31   33   32 ar
    32   34   29 ar
    33   35   22 1
    34   36   35 ar
    35   37   36 ar
    36   38   37 ar
    37   39   38 ar
    38   40   35 ar
    39   41    5 1
    40   42    7 1
    41   43    7 1
    42   44    7 1
    43   45   10 1
    44   46   11 1
    45   47   13 1
    46   48   14 1
    47   49   16 1
    48   50   17 1
    49   51   19 1
    50   52   20 1
    51   53   25 1
    52   54   27 1
    53   55   27 1
    54   56   27 1
    55   57   30 1
    56   58   31 1
    57   59   33 1
    58   60   34 1
    59   61   36 1
    60   62   37 1
    61   63   39 1
    62   64   40 1
    63   13   14 ar
    64   19   20 ar
    65   33   34 ar
    66   39   40 ar
@<TRIPOS>SUBSTRUCTURE
     1 RES1 1
     2 RES2 21

@<TRIPOS>CRYSIN
   9.6761   10.4865   14.3805  98.7790  98.6410 109.6810   2 1

