# MOL2 file generated by ConQuest
# Please check atom types

@<TRIPOS>MOLECULE
LEGFAG
    61    63     1
SMALL
NO_CHARGES
****
Generated from CSD

@<TRIPOS>ATOM
      1 O1        -0.7415    1.4103    2.5843 O.3       1 RES1    0.0000
      2 O2         4.5824    1.2149    2.4659 O.3       1 RES1    0.0000
      3 O3         3.4130    3.2870    3.6506 O.2       1 RES1    0.0000
      4 O4         0.4029   -0.8074    1.8569 O.2       1 RES1    0.0000
      5 O5        -1.5485   -4.3897    9.4159 O.2       1 RES1    0.0000
      6 O6        -3.4619   -3.5020    9.0538 O.2       1 RES1    0.0000
      7 N1        -2.2731   -3.5852    8.8487 N.pl3     1 RES1    0.0000
      8 C1         1.6650   -0.7497    1.6678 C.2       1 RES1    0.0000
      9 C2         2.2290   -1.6491    0.6067 C.3       1 RES1    0.0000
     10 C3         3.7308   -1.8830    0.6961 C.3       1 RES1    0.0000
     11 C4         4.4011   -0.5250    0.8857 C.3       1 RES1    0.0000
     12 C5         3.7935    0.3049    1.9734 C.2       1 RES1    0.0000
     13 C6         2.4897    0.1219    2.4035 C.2       1 RES1    0.0000
     14 C7         1.9701    0.8557    3.6371 C.3       1 RES1    0.0000
     15 C8         1.3355    2.2115    3.3878 C.2       1 RES1    0.0000
     16 C9         0.0311    2.3911    2.9441 C.2       1 RES1    0.0000
     17 C10       -0.5917    3.7439    2.8307 C.3       1 RES1    0.0000
     18 C11        0.0530    4.8049    3.7134 C.3       1 RES1    0.0000
     19 C12        1.5539    4.7389    3.4475 C.3       1 RES1    0.0000
     20 C13        2.1423    3.3642    3.5112 C.2       1 RES1    0.0000
     21 C14        1.2122   -0.0829    4.5506 C.2       1 RES1    0.0000
     22 C15        0.1481    0.1455    5.2751 C.2       1 RES1    0.0000
     23 C16       -0.4581   -0.8315    6.2051 C.ar      1 RES1    0.0000
     24 C17        0.3034   -1.7909    6.8636 C.ar      1 RES1    0.0000
     25 C18       -0.2734   -2.7006    7.7227 C.ar      1 RES1    0.0000
     26 C19       -1.6395   -2.6360    7.9296 C.ar      1 RES1    0.0000
     27 C20       -2.4214   -1.6995    7.3065 C.ar      1 RES1    0.0000
     28 C21       -1.8213   -0.8017    6.4535 C.ar      1 RES1    0.0000
     29 C22        4.0665   -2.8058    1.8727 C.3       1 RES1    0.0000
     30 C23        4.2224   -2.5340   -0.6060 C.3       1 RES1    0.0000
     31 C24       -0.2384    4.5317    5.1985 C.3       1 RES1    0.0000
     32 C25       -0.4779    6.1902    3.3518 C.3       1 RES1    0.0000
     33 H1        -0.2921    0.7316    2.4823 H         1 RES1    0.0000
     34 H2         2.0270   -1.2660   -0.2608 H         1 RES1    0.0000
     35 H3         1.7803   -2.5073    0.6584 H         1 RES1    0.0000
     36 H4         4.1493    1.7274    2.9374 H         1 RES1    0.0000
     37 H5         5.3385   -0.6659    1.0883 H         1 RES1    0.0000
     38 H6         4.3507   -0.0329    0.0522 H         1 RES1    0.0000
     39 H7         2.7814    1.0677    4.1426 H         1 RES1    0.0000
     40 H8        -1.5317    3.6747    3.0633 H         1 RES1    0.0000
     41 H9        -0.5375    4.0343    1.9067 H         1 RES1    0.0000
     42 H10        1.7272    5.1092    2.5687 H         1 RES1    0.0000
     43 H11        2.0082    5.2993    4.0958 H         1 RES1    0.0000
     44 H12        1.6158   -0.9392    4.5941 H         1 RES1    0.0000
     45 H13       -0.3193    0.9865    5.2075 H         1 RES1    0.0000
     46 H14        1.2237   -1.8188    6.7202 H         1 RES1    0.0000
     47 H15        0.2444   -3.3428    8.1539 H         1 RES1    0.0000
     48 H16       -3.3388   -1.6709    7.4559 H         1 RES1    0.0000
     49 H17       -2.3455   -0.1582    6.0331 H         1 RES1    0.0000
     50 H18        3.7355   -2.4200    2.6874 H         1 RES1    0.0000
     51 H19        5.0186   -2.9132    1.9337 H         1 RES1    0.0000
     52 H20        3.6557   -3.6623    1.7340 H         1 RES1    0.0000
     53 H21        5.1745   -2.6532   -0.5648 H         1 RES1    0.0000
     54 H22        4.0027   -1.9668   -1.3491 H         1 RES1    0.0000
     55 H23        3.7975   -3.3869   -0.7177 H         1 RES1    0.0000
     56 H24        0.1319    3.6798    5.4449 H         1 RES1    0.0000
     57 H25       -1.1887    4.5224    5.3424 H         1 RES1    0.0000
     58 H26        0.1595    5.2212    5.7345 H         1 RES1    0.0000
     59 H27       -0.3239    6.3587    2.4194 H         1 RES1    0.0000
     60 H28       -0.0253    6.8540    3.8764 H         1 RES1    0.0000
     61 H29       -1.4187    6.2293    3.5328 H         1 RES1    0.0000
@<TRIPOS>BOND
     1    1   16 1
     2    2   12 1
     3    3   20 2
     4    4    8 2
     5    5    7 2
     6    6    7 2
     7    7   26 1
     8    8    9 1
     9    9   10 1
    10   10   11 1
    11   11   12 1
    12   12   13 2
    13   13    8 1
    14   14   13 1
    15   15   14 1
    16   16   15 2
    17   17   16 1
    18   18   17 1
    19   19   18 1
    20   20   15 1
    21   21   14 1
    22   22   21 2
    23   23   22 1
    24   24   23 ar
    25   25   24 ar
    26   26   25 ar
    27   27   26 ar
    28   28   23 ar
    29   29   10 1
    30   30   10 1
    31   31   18 1
    32   32   18 1
    33   33    1 1
    34   34    9 1
    35   35    9 1
    36   36    2 1
    37   37   11 1
    38   38   11 1
    39   39   14 1
    40   40   17 1
    41   41   17 1
    42   42   19 1
    43   43   19 1
    44   44   21 1
    45   45   22 1
    46   46   24 1
    47   47   25 1
    48   48   27 1
    49   49   28 1
    50   50   29 1
    51   51   29 1
    52   52   29 1
    53   53   30 1
    54   54   30 1
    55   55   30 1
    56   56   31 1
    57   57   31 1
    58   58   31 1
    59   59   32 1
    60   60   32 1
    61   61   32 1
    62   19   20 1
    63   27   28 ar
@<TRIPOS>SUBSTRUCTURE
     1 RES1 1

@<TRIPOS>CRYSIN
  25.0742   10.2759   20.7156  90.0000 119.7359  90.0000  15 1

