# MOL2 file generated by ConQuest
# Please check atom types

@<TRIPOS>MOLECULE
LEGGUC
    42    43     1
SMALL
NO_CHARGES
****
Generated from CSD

@<TRIPOS>ATOM
      1 O1         3.2365    0.5752    3.4468 O.2       1 RES1    0.0000
      2 O2         7.5226    2.8151    5.2740 O.2       1 RES1    0.0000
      3 O3         7.7198    4.7014    4.2814 O.2       1 RES1    0.0000
      4 N1         7.0489    3.8152    4.7658 N.pl3     1 RES1    0.0000
      5 C1         1.3464    1.9112    2.9147 C.3       1 RES1    0.0000
      6 H1         1.4200    2.3664    2.0499 H         1 RES1    0.0000
      7 H2         0.8389    2.4728    3.5372 H         1 RES1    0.0000
      8 H3         0.8846    1.0554    2.7954 H         1 RES1    0.0000
      9 C2         2.7153    1.6664    3.4673 C.2       1 RES1    0.0000
     10 C3         3.4038    2.8654    4.1171 C.3       1 RES1    0.0000
     11 H4         3.1059    3.7032    3.6600 H         1 RES1    0.0000
     12 C4         4.9405    2.7422    4.0012 C.3       1 RES1    0.0000
     13 H5         5.2234    1.9105    4.4784 H         1 RES1    0.0000
     14 C5         5.5568    3.9389    4.7236 C.3       1 RES1    0.0000
     15 H6         5.3066    4.7738    4.2542 H         1 RES1    0.0000
     16 H7         5.2022    3.9868    5.6466 H         1 RES1    0.0000
     17 C6         2.9376    2.8902    5.5533 C.2       1 RES1    0.0000
     18 H8         3.2394    2.1988    6.1310 H         1 RES1    0.0000
     19 C7         2.1338    3.8174    6.0596 C.2       1 RES1    0.0000
     20 H9         1.8645    4.5193    5.4785 H         1 RES1    0.0000
     21 C8         1.6197    3.8577    7.4400 C.ar      1 RES1    0.0000
     22 C9         1.9735    2.9168    8.4034 C.ar      1 RES1    0.0000
     23 H10        2.5698    2.2138    8.1723 H         1 RES1    0.0000
     24 C10        1.4735    2.9864    9.6892 C.ar      1 RES1    0.0000
     25 H11        1.7369    2.3410   10.3348 H         1 RES1    0.0000
     26 C11        0.5889    3.9920   10.0414 C.ar      1 RES1    0.0000
     27 H12        0.2299    4.0257   10.9203 H         1 RES1    0.0000
     28 C12        0.2325    4.9428    9.1130 C.ar      1 RES1    0.0000
     29 H13       -0.3613    5.6433    9.3555 H         1 RES1    0.0000
     30 C13        0.7422    4.8799    7.8172 C.ar      1 RES1    0.0000
     31 H14        0.4894    5.5391    7.1816 H         1 RES1    0.0000
     32 C14        5.4172    2.6477    2.5612 C.ar      1 RES1    0.0000
     33 C15        6.2664    1.6161    2.1742 C.ar      1 RES1    0.0000
     34 H15        6.5491    0.9747    2.8154 H         1 RES1    0.0000
     35 C16        6.7035    1.5145    0.8645 C.ar      1 RES1    0.0000
     36 H16        7.2866    0.8072    0.6143 H         1 RES1    0.0000
     37 C17        6.2944    2.4377   -0.0821 C.ar      1 RES1    0.0000
     38 H17        6.5874    2.3619   -0.9826 H         1 RES1    0.0000
     39 C18        5.4559    3.4720    0.2934 C.ar      1 RES1    0.0000
     40 H18        5.1745    4.1096   -0.3522 H         1 RES1    0.0000
     41 C19        5.0231    3.5842    1.6097 C.ar      1 RES1    0.0000
     42 H19        4.4557    4.3037    1.8609 H         1 RES1    0.0000
@<TRIPOS>BOND
     1    1    9 2
     2    2    4 2
     3    3    4 2
     4    4   14 1
     5    5    6 1
     6    7    5 1
     7    8    5 1
     8    9    5 1
     9   10    9 1
    10   11   10 1
    11   12   10 1
    12   13   12 1
    13   14   12 1
    14   15   14 1
    15   16   14 1
    16   17   10 1
    17   18   17 1
    18   19   17 2
    19   20   19 1
    20   21   19 1
    21   22   21 ar
    22   23   22 1
    23   24   22 ar
    24   25   24 1
    25   26   24 ar
    26   27   26 1
    27   28   26 ar
    28   29   28 1
    29   30   21 ar
    30   31   30 1
    31   32   12 1
    32   33   32 ar
    33   34   33 1
    34   35   33 ar
    35   36   35 1
    36   37   35 ar
    37   38   37 1
    38   39   37 ar
    39   40   39 1
    40   41   32 ar
    41   42   41 1
    42   28   30 ar
    43   39   41 ar
@<TRIPOS>SUBSTRUCTURE
     1 RES1 1

@<TRIPOS>CRYSIN
   8.4399    5.5252   17.9348  90.0000  96.9780  90.0000   4 1

