# MOL2 file generated by ConQuest
# Please check atom types

@<TRIPOS>MOLECULE
LEGHUC
    14    14     1
SMALL
NO_CHARGES
****
Generated from CSD

@<TRIPOS>ATOM
      1 O1         2.8884   14.7014    3.0382 O.3       1 RES1    0.0000
      2 C1         2.7132   16.8375    2.4754 C.2       1 RES1    0.0000
      3 N1         3.5058   14.8594    1.7505 N.2       1 RES1    0.0000
      4 N2         1.7960   15.9384    4.5962 N.3       1 RES1    0.0000
      5 N3         2.0279   19.2959    2.4839 N.1       1 RES1    0.0000
      6 C2         2.3451   18.1984    2.4882 C.1       1 RES1    0.0000
      7 C3         3.3773   16.1158    1.4480 C.2       1 RES1    0.0000
      8 C4         3.8701   16.6386    0.1451 C.3       1 RES1    0.0000
      9 H1         4.3486   15.9467   -0.3174 H         1 RES1    0.0000
     10 H2         4.4556   17.3832    0.2997 H         1 RES1    0.0000
     11 H3         3.1243   16.9233   -0.3883 H         1 RES1    0.0000
     12 C5         2.4165   15.8883    3.4373 C.2       1 RES1    0.0000
     13 H4         1.5625   15.2209    4.9710 H         1 RES1    0.0000
     14 H5         1.4328   16.6688    4.8985 H         1 RES1    0.0000
@<TRIPOS>BOND
     1    1    3 1
     2    2    6 1
     3    3    7 2
     4    4   12 1
     5    5    6 3
     6    7    2 1
     7    8    7 1
     8    9    8 1
     9   10    8 1
    10   11    8 1
    11   12    1 1
    12   13    4 1
    13   14    4 1
    14    2   12 2
@<TRIPOS>SUBSTRUCTURE
     1 RES1 1

@<TRIPOS>CRYSIN
   3.8779   18.8518    8.2015  90.0000 100.7800  90.0000 231 1

