# MOL2 file generated by ConQuest
# Please check atom types

@<TRIPOS>MOLECULE
LEGWAX
    78    82     1
SMALL
NO_CHARGES
****
Generated from CSD

@<TRIPOS>ATOM
      1 O1         1.3486    4.1165   27.8669 O.2       1 RES1    0.0000
      2 O2         5.3064    2.4368   35.3436 O.2       1 RES1    0.0000
      3 O3         6.2875    3.0123   33.4272 O.3       1 RES1    0.0000
      4 O4         4.2157    5.6752   27.6916 O.3       1 RES1    0.0000
      5 O5         8.1401    7.7078   24.7047 O.2       1 RES1    0.0000
      6 O6         7.5022    5.6992   25.0888 O.2       1 RES1    0.0000
      7 C1         2.0643    4.7435   34.2166 C.3       1 RES1    0.0000
      8 H1         1.8626    5.6832   34.3446 H         1 RES1    0.0000
      9 H2         1.2255    4.2787   34.0720 H         1 RES1    0.0000
     10 C2         2.7147    4.1999   35.4945 C.3       1 RES1    0.0000
     11 H3         2.1338    4.3712   36.2521 H         1 RES1    0.0000
     12 H4         2.8311    3.2396   35.4174 H         1 RES1    0.0000
     13 C3         4.0633    4.8554   35.7306 C.3       1 RES1    0.0000
     14 H5         4.4660    4.4660   36.5217 H         1 RES1    0.0000
     15 H6         3.9260    5.7997   35.9050 H         1 RES1    0.0000
     16 C4         5.0344    4.7035   34.5554 C.3       1 RES1    0.0000
     17 C5         4.3396    5.2379   33.2611 C.3       1 RES1    0.0000
     18 H7         4.1244    6.1697   33.4754 H         1 RES1    0.0000
     19 C6         5.1842    5.3407   31.9829 C.3       1 RES1    0.0000
     20 H8         6.0607    5.6958   32.2018 H         1 RES1    0.0000
     21 H9         5.3048    4.4557   31.6023 H         1 RES1    0.0000
     22 C7         4.5154    6.2371   30.9703 C.3       1 RES1    0.0000
     23 H10        5.0771    6.2919   30.1824 H         1 RES1    0.0000
     24 H11        4.4442    7.1300   31.3441 H         1 RES1    0.0000
     25 C8         3.1233    5.7689   30.5495 C.3       1 RES1    0.0000
     26 C9         2.2753    5.4343   31.8266 C.3       1 RES1    0.0000
     27 H12        2.1011    6.3044   32.2419 H         1 RES1    0.0000
     28 C10        2.9433    4.5893   32.9568 C.3       1 RES1    0.0000
     29 C11        0.8748    4.9125   31.4132 C.3       1 RES1    0.0000
     30 H13        0.9602    4.0081   31.0716 H         1 RES1    0.0000
     31 H14        0.3039    4.8805   32.1960 H         1 RES1    0.0000
     32 C12        0.2118    5.7906   30.3459 C.3       1 RES1    0.0000
     33 H15       -0.1164    6.6025   30.7618 H         1 RES1    0.0000
     34 H16       -0.5508    5.3190   29.9758 H         1 RES1    0.0000
     35 C13        1.1720    6.1685   29.1976 C.3       1 RES1    0.0000
     36 C14        2.3615    6.8685   29.7974 C.3       1 RES1    0.0000
     37 H17        2.0777    7.5685   30.4061 H         1 RES1    0.0000
     38 H18        2.9157    7.2602   29.1038 H         1 RES1    0.0000
     39 C15        3.0839    4.5973   29.5034 C.3       1 RES1    0.0000
     40 H19        3.0036    3.7454   29.9816 H         1 RES1    0.0000
     41 C16        1.7755    4.8576   28.7186 C.2       1 RES1    0.0000
     42 C17        0.4319    6.9268   28.0998 C.3       1 RES1    0.0000
     43 H20       -0.3106    6.4015   27.7929 H         1 RES1    0.0000
     44 H21        1.0296    7.0946   27.3684 H         1 RES1    0.0000
     45 H22        0.1113    7.7615   28.4498 H         1 RES1    0.0000
     46 C18        3.0839    3.0968   32.5945 C.3       1 RES1    0.0000
     47 H23        2.2167    2.7280   32.4141 H         1 RES1    0.0000
     48 H24        3.4866    2.6264   33.3291 H         1 RES1    0.0000
     49 H25        3.6372    3.0078   31.8145 H         1 RES1    0.0000
     50 C19        6.2942    5.5553   34.8551 C.3       1 RES1    0.0000
     51 H26        6.7220    5.2265   35.6497 H         1 RES1    0.0000
     52 H27        6.0372    6.4711   34.9842 H         1 RES1    0.0000
     53 H28        6.9036    5.4960   34.1151 H         1 RES1    0.0000
     54 C20        5.5233    3.2556   34.4920 C.2       1 RES1    0.0000
     55 C21        6.7680    1.6386   33.2637 C.3       1 RES1    0.0000
     56 H29        7.0217    1.4970   32.3395 H         1 RES1    0.0000
     57 H30        6.0498    1.0220   33.4725 H         1 RES1    0.0000
     58 C22        7.9475    1.3452   34.1524 C.3       1 RES1    0.0000
     59 H31        8.2238    0.4339   34.0261 H         1 RES1    0.0000
     60 H32        7.6997    1.4810   35.0674 H         1 RES1    0.0000
     61 H33        8.6725    1.9321   33.9257 H         1 RES1    0.0000
     62 C23        4.2358    4.4991   28.5094 C.3       1 RES1    0.0000
     63 H34        5.0804    4.4363   28.9833 H         1 RES1    0.0000
     64 H35        4.1345    3.7077   27.9593 H         1 RES1    0.0000
     65 C24        5.2227    5.6684   26.7126 C.3       1 RES1    0.0000
     66 H36        5.2462    4.8074   26.2669 H         1 RES1    0.0000
     67 H37        6.0875    5.8237   27.1245 H         1 RES1    0.0000
     68 C25        4.9180    6.7692   25.7084 C.ar      1 RES1    0.0000
     69 C26        3.6213    7.2339   25.5695 C.ar      1 RES1    0.0000
     70 H38        2.9542    6.8948   26.1206 H         1 RES1    0.0000
     71 C27        3.2974    8.1954   24.6232 C.ar      1 RES1    0.0000
     72 H39        2.4218    8.5003   24.5572 H         1 RES1    0.0000
     73 C28        4.2575    8.7013   23.7770 C.ar      1 RES1    0.0000
     74 H40        4.0282    9.3259   23.1287 H         1 RES1    0.0000
     75 C29        5.5710    8.2719   23.9003 C.ar      1 RES1    0.0000
     76 H41        6.2390    8.6236   23.3582 H         1 RES1    0.0000
     77 C30        5.8631    7.3127   24.8461 C.ar      1 RES1    0.0000
     78 N1         7.2837    6.8822   24.8905 N.pl3     1 RES1    0.0000
@<TRIPOS>BOND
     1    1   41 2
     2    2   54 2
     3    3   54 1
     4    4   62 1
     5    5   78 2
     6    6   78 2
     7    7    8 1
     8    9    7 1
     9   10    7 1
    10   11   10 1
    11   12   10 1
    12   13   10 1
    13   14   13 1
    14   15   13 1
    15   16   13 1
    16   17   16 1
    17   18   17 1
    18   19   17 1
    19   20   19 1
    20   21   19 1
    21   22   19 1
    22   23   22 1
    23   24   22 1
    24   25   22 1
    25   26   25 1
    26   27   26 1
    27   28    7 1
    28   29   26 1
    29   30   29 1
    30   31   29 1
    31   32   29 1
    32   33   32 1
    33   34   32 1
    34   35   32 1
    35   36   25 1
    36   37   36 1
    37   38   36 1
    38   39   25 1
    39   40   39 1
    40   41   35 1
    41   42   35 1
    42   43   42 1
    43   44   42 1
    44   45   42 1
    45   46   28 1
    46   47   46 1
    47   48   46 1
    48   49   46 1
    49   50   16 1
    50   51   50 1
    51   52   50 1
    52   53   50 1
    53   54   16 1
    54   55    3 1
    55   56   55 1
    56   57   55 1
    57   58   55 1
    58   59   58 1
    59   60   58 1
    60   61   58 1
    61   62   39 1
    62   63   62 1
    63   64   62 1
    64   65    4 1
    65   66   65 1
    66   67   65 1
    67   68   65 1
    68   69   68 ar
    69   70   69 1
    70   71   69 ar
    71   72   71 1
    72   73   71 ar
    73   74   73 1
    74   75   73 ar
    75   76   75 1
    76   77   68 ar
    77   78   77 1
    78   17   28 1
    79   26   28 1
    80   35   36 1
    81   39   41 1
    82   75   77 ar
@<TRIPOS>SUBSTRUCTURE
     1 RES1 1

@<TRIPOS>CRYSIN
   8.3711   11.4190   28.6850  90.0000  90.0000  90.0000  19 1

