# MOL2 file generated by ConQuest
# Please check atom types

@<TRIPOS>MOLECULE
LEGYUU
    87    93     3
SMALL
NO_CHARGES
****
Generated from CSD

@<TRIPOS>ATOM
      1 O1        -1.1021    2.9110   -0.3558 O.2       1 RES1    0.0000
      2 O2        -1.5980    3.1232    1.7466 O.2       1 RES1    0.0000
      3 N1        -0.8686    3.3100    0.7805 N.pl3     1 RES1    0.0000
      4 C1         0.3705    4.0188    0.9871 C.2       1 RES1    0.0000
      5 C2         1.1683    4.6371    0.0115 C.2       1 RES1    0.0000
      6 N2         0.8783    4.8392   -1.3908 N.pl3     1 RES1    0.0000
      7 O3        -0.2008    5.3519   -1.6605 O.2       1 RES1    0.0000
      8 O4         1.7039    4.4919   -2.2115 O.2       1 RES1    0.0000
      9 C3         2.3047    5.0290    0.7021 C.2       1 RES1    0.0000
     10 N3         3.4522    5.6758    0.3692 N.pl3     1 RES1    0.0000
     11 N4         3.7969    6.1114   -0.9221 N.3       1 RES1    0.0000
     12 H1         3.7316    5.4423   -1.5305 H         1 RES1    0.0000
     13 H2         3.2600    6.8333   -1.0713 H         1 RES1    0.0000
     14 C4         4.4957    5.6200    1.2703 C.2       1 RES1    0.0000
     15 C5         5.8190    5.9824    1.1536 C.2       1 RES1    0.0000
     16 N5         6.4706    6.5906    0.0344 N.pl3     1 RES1    0.0000
     17 O5         6.3002    7.7725   -0.1263 O.2       1 RES1    0.0000
     18 O6         7.1105    5.8718   -0.7097 O.2       1 RES1    0.0000
     19 C6         6.3384    5.6342    2.4181 C.2       1 RES1    0.0000
     20 N6         7.7223    5.8291    2.8428 N.pl3     1 RES1    0.0000
     21 O7         8.4506    6.3987    2.0489 O.2       1 RES1    0.0000
     22 O8         8.0517    5.4281    3.9388 O.2       1 RES1    0.0000
     23 N7         5.4577    5.1306    3.2426 N.2       1 RES1    0.0000
     24 N8         4.3202    5.1113    2.4927 N.pl3     1 RES1    0.0000
     25 C7         3.0304    4.8036    3.1068 C.3       1 RES1    0.0000
     26 H3         2.7265    5.5509    3.6788 H         1 RES1    0.0000
     27 H4         3.0896    3.9822    3.6559 H         1 RES1    0.0000
     28 N9         2.1148    4.6077    1.9743 N.pl3     1 RES1    0.0000
     29 N10        0.9254    3.9812    2.1771 N.2       1 RES1    0.0000
     30 O9         1.3294    4.9945    5.5345 O.2       2 RES2    0.0000
     31 O10        0.9974    6.3967    7.1491 O.2       2 RES2    0.0000
     32 N11        1.6833    5.6068    6.5121 N.pl3     2 RES2    0.0000
     33 C8         3.0620    5.4524    6.9827 C.2       2 RES2    0.0000
     34 C9         3.6128    6.0576    8.1114 C.2       2 RES2    0.0000
     35 N12        3.0135    6.9907    9.0545 N.pl3     2 RES2    0.0000
     36 O11        2.2807    6.5521    9.9020 O.2       2 RES2    0.0000
     37 O12        3.2952    8.1482    8.9550 O.2       2 RES2    0.0000
     38 C10        4.9093    5.6281    8.0980 C.2       2 RES2    0.0000
     39 N13        5.9646    5.8444    8.9608 N.pl3     2 RES2    0.0000
     40 N14        5.6490    6.5683   10.1220 N.3       2 RES2    0.0000
     41 H5         5.6234    5.9195   10.7514 H         2 RES2    0.0000
     42 H6         6.3740    7.0770   10.3114 H         2 RES2    0.0000
     43 C11        7.0994    5.1184    8.7504 C.2       2 RES2    0.0000
     44 C12        8.2706    4.9163    9.4639 C.2       2 RES2    0.0000
     45 N15        8.5935    5.3570   10.8050 N.pl3     2 RES2    0.0000
     46 O13        9.7254    5.7763   10.9944 O.2       2 RES2    0.0000
     47 O14        7.7363    5.2879   11.6620 O.2       2 RES2    0.0000
     48 C13        9.0584    4.1365    8.6164 C.2       2 RES2    0.0000
     49 N16       10.3469    3.5385    8.8996 N.pl3     2 RES2    0.0000
     50 O15       10.6016    3.2857   10.0761 O.2       2 RES2    0.0000
     51 O16       11.0878    3.2775    7.9660 O.2       2 RES2    0.0000
     52 N17        8.4804    3.8411    7.4705 N.2       2 RES2    0.0000
     53 N18        7.2642    4.4503    7.5853 N.pl3     2 RES2    0.0000
     54 C14        6.3111    4.3376    6.4834 C.3       2 RES2    0.0000
     55 H7         6.6035    4.8818    5.7105 H         2 RES2    0.0000
     56 H8         6.2177    3.3953    6.1945 H         2 RES2    0.0000
     57 N19        5.0548    4.8392    7.0248 N.pl3     2 RES2    0.0000
     58 N20        3.9083    4.7204    6.2940 N.2       2 RES2    0.0000
     59 O17        4.4147    7.2466   15.8899 O.2       3 RES3    0.0000
     60 O18        3.9572    5.1488   15.6049 O.2       3 RES3    0.0000
     61 N21        4.7223    6.1053   15.6010 N.pl3     3 RES3    0.0000
     62 C15        6.0946    5.8200   15.2069 C.2       3 RES3    0.0000
     63 C16        6.6516    4.5640   15.0156 C.2       3 RES3    0.0000
     64 N22        6.0544    3.2603   15.2127 N.pl3     3 RES3    0.0000
     65 O19        5.7459    2.9384   16.3490 O.2       3 RES3    0.0000
     66 O20        5.9008    2.5607   14.2255 O.2       3 RES3    0.0000
     67 C17        7.9289    4.8249   14.6024 C.2       3 RES3    0.0000
     68 N23        8.9871    4.0096   14.2753 N.pl3     3 RES3    0.0000
     69 N24        8.9002    2.6886   14.7631 N.3       3 RES3    0.0000
     70 H9         9.2072    2.1830   14.0610 H         3 RES3    0.0000
     71 H10        9.3881    2.6399   15.5283 H         3 RES3    0.0000
     72 C18       10.1549    4.6198   13.8735 C.2       3 RES3    0.0000
     73 C19       11.3623    4.1416   13.3953 C.2       3 RES3    0.0000
     74 N25       11.7437    2.7902   13.1504 N.pl3     3 RES3    0.0000
     75 O21       10.8965    2.0155   12.7123 O.2       3 RES3    0.0000
     76 O22       12.8986    2.4582   13.3838 O.2       3 RES3    0.0000
     77 C20       12.1281    5.3022   13.1848 C.2       3 RES3    0.0000
     78 N26       13.4341    5.4128   12.5650 N.pl3     3 RES3    0.0000
     79 O23       13.7477    4.5295   11.7864 O.2       3 RES3    0.0000
     80 O24       14.1120    6.3987   12.8194 O.2       3 RES3    0.0000
     81 N27       11.4827    6.4190   13.4928 N.2       3 RES3    0.0000
     82 N28       10.2799    5.9611   13.9367 N.pl3     3 RES3    0.0000
     83 C21        9.2493    6.9501   14.2504 C.3       3 RES3    0.0000
     84 H11        9.5273    7.5146   15.0137 H         3 RES3    0.0000
     85 H12        9.0740    7.5339   13.4699 H         3 RES3    0.0000
     86 N29        8.0605    6.1713   14.5890 N.pl3     3 RES3    0.0000
     87 N30        6.9188    6.8191   14.9468 N.2       3 RES3    0.0000
@<TRIPOS>BOND
     1    1    3 2
     2    2    3 2
     3    3    4 1
     4    4    5 1
     5    5    6 1
     6    6    7 2
     7    8    6 2
     8    9    5 2
     9   10    9 1
    10   11   10 1
    11   12   11 1
    12   13   11 1
    13   14   10 1
    14   15   14 2
    15   16   15 1
    16   17   16 2
    17   18   16 2
    18   19   15 1
    19   20   19 1
    20   21   20 2
    21   22   20 2
    22   23   19 2
    23   24   14 1
    24   25   24 1
    25   26   25 1
    26   27   25 1
    27   28    9 1
    28   29    4 2
    29   30   32 2
    30   31   32 2
    31   32   33 1
    32   33   34 1
    33   34   35 1
    34   35   36 2
    35   37   35 2
    36   38   34 2
    37   39   38 1
    38   40   39 1
    39   41   40 1
    40   42   40 1
    41   43   39 1
    42   44   43 2
    43   45   44 1
    44   46   45 2
    45   47   45 2
    46   48   44 1
    47   49   48 1
    48   50   49 2
    49   51   49 2
    50   52   48 2
    51   53   43 1
    52   54   53 1
    53   55   54 1
    54   56   54 1
    55   57   38 1
    56   58   33 2
    57   59   61 2
    58   60   61 2
    59   61   62 1
    60   62   63 1
    61   63   64 1
    62   64   65 2
    63   66   64 2
    64   67   63 2
    65   68   67 1
    66   69   68 1
    67   70   69 1
    68   71   69 1
    69   72   68 1
    70   73   72 2
    71   74   73 1
    72   75   74 2
    73   76   74 2
    74   77   73 1
    75   78   77 1
    76   79   78 2
    77   80   78 2
    78   81   77 2
    79   82   72 1
    80   83   82 1
    81   84   83 1
    82   85   83 1
    83   86   67 1
    84   87   62 2
    85   23   24 1
    86   25   28 1
    87   28   29 1
    88   52   53 1
    89   54   57 1
    90   57   58 1
    91   81   82 1
    92   83   86 1
    93   86   87 1
@<TRIPOS>SUBSTRUCTURE
     1 RES1 1
     2 RES2 30
     3 RES3 59

@<TRIPOS>CRYSIN
   9.9988   10.1535   19.1518  90.0000  92.6940  90.0000   4 1

