# MOL2 file generated by ConQuest
# Please check atom types

@<TRIPOS>MOLECULE
LEGYAA
    32    32     2
SMALL
NO_CHARGES
****
Generated from CSD

@<TRIPOS>ATOM
      1 O1         6.4194    8.0939    9.7443 Du        2 SUP2    0.0000
      2 O2         6.9426    7.6222   10.3173 O.2       1 RES1    0.0000
      3 O3         5.1053    7.7049   11.4620 O.2       1 RES1    0.0000
      4 O4         7.1281    6.7880    7.6920 O.2       1 RES1    0.0000
      5 O5         7.7890    4.7276    7.6506 O.2       1 RES1    0.0000
      6 O6         2.6173    6.8086   13.6448 O.2       1 RES1    0.0000
      7 O7         0.8363    6.0683   14.6380 O.2       1 RES1    0.0000
      8 O8        -1.7508    5.7235   13.1541 O.2       1 RES1    0.0000
      9 O9        -1.5299    3.6171   13.4385 O.2       1 RES1    0.0000
     10 N1         4.2270    4.2334    9.5102 N.pl3     1 RES1    0.0000
     11 N2         5.2867    4.1987    8.6479 N.2       1 RES1    0.0000
     12 N3         1.3964    4.3020   10.6449 N.pl3     1 RES1    0.0000
     13 N4         0.1444    4.0164   11.1315 N.2       1 RES1    0.0000
     14 N5         3.3294    5.6305   11.2522 N.pl3     1 RES1    0.0000
     15 H1         3.5872    6.2355   11.8360 H         1 RES1    0.0000
     16 N6         5.7905    7.2417   10.5565 N.pl3     1 RES1    0.0000
     17 N7         7.1214    5.5835    8.1156 N.pl3     1 RES1    0.0000
     18 N8         1.5736    6.1557   13.6665 N.pl3     1 RES1    0.0000
     19 N9        -1.1772    4.6712   13.0026 N.pl3     1 RES1    0.0000
     20 C1         1.8372    3.6519    9.4082 C.3       1 RES1    0.0000
     21 H2         1.7860    4.2992    8.6607 H         1 RES1    0.0000
     22 H3         1.2327    2.8956    9.2009 H         1 RES1    0.0000
     23 C2         3.2639    3.1380    9.5348 C.3       1 RES1    0.0000
     24 H4         3.3588    2.6363   10.3830 H         1 RES1    0.0000
     25 H5         3.4562    2.5151    8.7888 H         1 RES1    0.0000
     26 C3         4.2522    5.3139   10.3011 C.2       1 RES1    0.0000
     27 C4         5.3984    6.0317    9.9628 C.2       1 RES1    0.0000
     28 C5         5.9652    5.2725    8.9287 C.2       1 RES1    0.0000
     29 C6         2.0690    5.1513   11.4349 C.2       1 RES1    0.0000
     30 C7         1.2192    5.4595   12.5018 C.2       1 RES1    0.0000
     31 C8         0.0722    4.7154   12.2345 C.2       1 RES1    0.0000
     32 O10        8.1651    6.1557    8.9201 Du        2 SUP2    0.0000
@<TRIPOS>BOND
     1    2   16 2
     2    3   16 2
     3    4   17 2
     4    5   17 2
     5    6   18 2
     6    7   18 2
     7    8   19 2
     8    9   19 2
     9   10   11 1
    10   11   28 2
    11   12   13 1
    12   13   31 2
    13   14   15 1
    14   16   27 1
    15   17   28 1
    16   18   30 1
    17   19   31 1
    18   20   12 1
    19   21   20 1
    20   22   20 1
    21   23   10 1
    22   24   23 1
    23   25   23 1
    24   26   10 1
    25   27   26 2
    26   28   27 1
    27   29   12 1
    28   30   29 2
    29   31   30 1
    30   14   26 1
    31   14   29 1
    32   20   23 1
@<TRIPOS>SUBSTRUCTURE
     1 RES1 2
     2 SUP2 1

@<TRIPOS>CRYSIN
   8.3969    9.3951   16.4184  90.0000  90.0000  90.0000  19 1

