# MOL2 file generated by ConQuest
# Please check atom types

@<TRIPOS>MOLECULE
LEGYII
    27    29     1
SMALL
NO_CHARGES
****
Generated from CSD

@<TRIPOS>ATOM
      1 O1         8.0306   11.0644    5.4917 O.2       1 RES1    0.0000
      2 O2         6.4203   11.3090    4.0659 O.2       1 RES1    0.0000
      3 N1         7.1851   10.6239    4.7317 N.pl3     1 RES1    0.0000
      4 C1         7.1170    9.1787    4.5780 C.2       1 RES1    0.0000
      5 C2         6.2171    8.3397    3.8647 C.2       1 RES1    0.0000
      6 N2         4.9902    8.5633    3.1641 N.pl3     1 RES1    0.0000
      7 O3         4.4988    9.6692    3.0944 O.2       1 RES1    0.0000
      8 O4         4.4705    7.5442    2.6631 O.2       1 RES1    0.0000
      9 C3         6.7283    7.0642    4.0600 C.2       1 RES1    0.0000
     10 N3         6.3428    5.8399    3.6235 N.pl3     1 RES1    0.0000
     11 H1         5.6963    5.7518    3.0333 H         1 RES1    0.0000
     12 C4         6.9850    4.7577    4.1254 C.2       1 RES1    0.0000
     13 C5         6.7199    3.3980    4.0498 C.2       1 RES1    0.0000
     14 N4         5.6932    2.8023    3.2881 N.pl3     1 RES1    0.0000
     15 O5         4.9284    3.5742    2.6902 O.2       1 RES1    0.0000
     16 O6         5.6146    1.5769    3.2499 O.2       1 RES1    0.0000
     17 C6         7.7394    2.8128    4.8276 C.2       1 RES1    0.0000
     18 N5         7.8892    1.4202    5.2361 N.pl3     1 RES1    0.0000
     19 O7         6.9452    0.9074    5.8203 O.2       1 RES1    0.0000
     20 O8         8.9756    0.9047    5.0425 O.2       1 RES1    0.0000
     21 N6         8.5733    3.6925    5.3346 N.2       1 RES1    0.0000
     22 N7         8.0977    4.8892    4.8786 N.pl3     1 RES1    0.0000
     23 C7         8.7116    6.1411    5.3193 C.3       1 RES1    0.0000
     24 H2         8.7839    6.1674    6.3061 H         1 RES1    0.0000
     25 H3         9.6168    6.2423    4.9304 H         1 RES1    0.0000
     26 N8         7.8242    7.1983    4.8395 N.pl3     1 RES1    0.0000
     27 N9         8.0767    8.4923    5.1741 N.2       1 RES1    0.0000
@<TRIPOS>BOND
     1    1    3 2
     2    2    3 2
     3    3    4 1
     4    4    5 1
     5    5    6 1
     6    6    7 2
     7    8    6 2
     8    9    5 2
     9   10    9 1
    10   11   10 1
    11   12   10 1
    12   13   12 2
    13   14   13 1
    14   15   14 2
    15   16   14 2
    16   17   13 1
    17   18   17 1
    18   19   18 2
    19   20   18 2
    20   21   17 2
    21   22   12 1
    22   23   22 1
    23   24   23 1
    24   25   23 1
    25   26    9 1
    26   27    4 2
    27   21   22 1
    28   23   26 1
    29   26   27 1
@<TRIPOS>SUBSTRUCTURE
     1 RES1 1

@<TRIPOS>CRYSIN
  10.4770   13.1500    8.4919  90.0000  90.0000  90.0000  33 1

