# MOL2 file generated by ConQuest
# Please check atom types

@<TRIPOS>MOLECULE
LEGYOO
    31    33     1
SMALL
NO_CHARGES
****
Generated from CSD

@<TRIPOS>ATOM
      1 O1         3.7124    3.4776    0.2163 O.2       1 RES1    0.0000
      2 O2         1.8291    3.4776    1.3195 O.2       1 RES1    0.0000
      3 N1         3.0397    3.4776    1.2277 N.pl3     1 RES1    0.0000
      4 N2         3.7267    3.4776    2.4822 N.3       1 RES1    0.0000
      5 H1         3.3051    3.4776    3.2552 H         1 RES1    0.0000
      6 N3         5.1150    3.4776    2.3833 N.3       1 RES1    0.0000
      7 C1         5.7167    4.6515    1.9172 C.2       1 RES1    0.0000
      8 C2         5.7159    5.9550    2.3863 C.2       1 RES1    0.0000
      9 N4         5.1383    6.4430    3.5913 N.pl3     1 RES1    0.0000
     10 O3         5.2533    7.6373    3.8287 O.2       1 RES1    0.0000
     11 O4         4.5879    5.6331    4.3339 O.2       1 RES1    0.0000
     12 C3         6.5618    6.6313    1.4953 C.2       1 RES1    0.0000
     13 N5         6.9559    8.0390    1.5191 N.pl3     1 RES1    0.0000
     14 O5         6.3978    8.7781    0.7456 O.2       1 RES1    0.0000
     15 O6         7.8412    8.3588    2.2885 O.2       1 RES1    0.0000
     16 N6         7.0664    5.8535    0.5638 N.2       1 RES1    0.0000
     17 N7         6.5296    4.6337    0.8481 N.pl3     1 RES1    0.0000
     18 C4         6.8102    3.4776    0.0072 C.3       1 RES1    0.0000
     19 H2         6.2290    3.4776   -0.7944 H         1 RES1    0.0000
     20 H3         7.7555    3.4776   -0.2849 H         1 RES1    0.0000
     21 C1F        5.7167    2.3037    1.9172 C.2       1 RES1    0.0000
     22 C2F        5.7159    1.0002    2.3863 C.2       1 RES1    0.0000
     23 N4F        5.1383    0.5122    3.5913 N.pl3     1 RES1    0.0000
     24 O3F        5.2533   -0.6822    3.8287 O.2       1 RES1    0.0000
     25 O4F        4.5879    1.3220    4.3339 O.2       1 RES1    0.0000
     26 C3F        6.5618    0.3238    1.4953 C.2       1 RES1    0.0000
     27 N5F        6.9559   -1.0839    1.5191 N.pl3     1 RES1    0.0000
     28 O5F        6.3978   -1.8229    0.7456 O.2       1 RES1    0.0000
     29 O6F        7.8412   -1.4037    2.2885 O.2       1 RES1    0.0000
     30 N6F        7.0664    1.1017    0.5638 N.2       1 RES1    0.0000
     31 N7F        6.5296    2.3215    0.8481 N.pl3     1 RES1    0.0000
@<TRIPOS>BOND
     1    1    3 2
     2    2    3 2
     3    3    4 1
     4    4    5 1
     5    6    4 1
     6    7    6 1
     7    8    7 2
     8    9    8 1
     9   10    9 2
    10   11    9 2
    11   12    8 1
    12   13   12 1
    13   14   13 2
    14   15   13 2
    15   16   12 2
    16   17    7 1
    17   18   17 1
    18   19   18 1
    19   20   18 1
    20   21    6 1
    21   22   21 2
    22   23   22 1
    23   24   23 2
    24   25   23 2
    25   26   22 1
    26   27   26 1
    27   28   27 2
    28   29   27 2
    29   30   26 2
    30   31   18 1
    31   16   17 1
    32   21   31 1
    33   30   31 1
@<TRIPOS>SUBSTRUCTURE
     1 RES1 1

@<TRIPOS>CRYSIN
  16.1540   13.9103    5.9597  90.0000  90.0000  90.0000  62 1

