# MOL2 file generated by ConQuest
# Please check atom types

@<TRIPOS>MOLECULE
LEGZAB
    33    35     1
SMALL
NO_CHARGES
****
Generated from CSD

@<TRIPOS>ATOM
      1 O1         3.5867    2.8273    9.5463 O.2       1 RES1    0.0000
      2 O2         5.4130    2.0531    8.6452 O.2       1 RES1    0.0000
      3 N1         4.8160    2.8155    9.4023 N.pl3     1 RES1    0.0000
      4 C1         5.5594    3.7817   10.1289 C.2       1 RES1    0.0000
      5 C2         6.9489    3.9681   10.2573 C.2       1 RES1    0.0000
      6 N2         8.0417    3.0709    9.9194 N.pl3     1 RES1    0.0000
      7 O3         7.8300    1.8680    9.9951 O.2       1 RES1    0.0000
      8 O4         9.1066    3.5841    9.5870 O.2       1 RES1    0.0000
      9 N3         7.2564    5.1171   10.8150 N.2       1 RES1    0.0000
     10 N4         6.0568    5.7048   11.0758 N.pl3     1 RES1    0.0000
     11 C3         6.0578    7.0622   11.6323 C.3       1 RES1    0.0000
     12 H1         6.8809    7.2017   12.1640 H         1 RES1    0.0000
     13 H2         5.2795    7.1739   12.2345 H         1 RES1    0.0000
     14 C4         5.9916    8.0973   10.5131 C.3       1 RES1    0.0000
     15 H3         6.8394    8.0785   10.0016 H         1 RES1    0.0000
     16 H4         5.8948    8.9992   10.9082 H         1 RES1    0.0000
     17 C5         4.8242    7.8376    9.5614 C.3       1 RES1    0.0000
     18 H5         4.7223    8.6037    8.9437 H         1 RES1    0.0000
     19 H6         5.0093    7.0290    9.0211 H         1 RES1    0.0000
     20 N5         3.5852    7.6498   10.3204 N.pl3     1 RES1    0.0000
     21 N6         2.8432    8.7370   10.6232 N.2       1 RES1    0.0000
     22 C6         1.8692    8.2747   11.3761 C.2       1 RES1    0.0000
     23 N7         0.8819    9.2419   11.8186 N.pl3     1 RES1    0.0000
     24 O5         1.2540   10.4054   11.9400 O.2       1 RES1    0.0000
     25 O6        -0.2564    8.8415   12.0379 O.2       1 RES1    0.0000
     26 C7         1.9575    6.8852   11.5851 C.2       1 RES1    0.0000
     27 N8         1.2017    6.0006   12.4124 N.pl3     1 RES1    0.0000
     28 O7         0.4809    6.4741   13.2856 O.2       1 RES1    0.0000
     29 O8         1.3433    4.7879   12.2074 O.2       1 RES1    0.0000
     30 C8         3.1133    6.5203   10.8938 C.2       1 RES1    0.0000
     31 N9         3.6816    5.2715   10.7733 N.pl3     1 RES1    0.0000
     32 H7         3.1212    4.5926   10.7706 H         1 RES1    0.0000
     33 C9         5.0107    4.9506   10.6583 C.2       1 RES1    0.0000
@<TRIPOS>BOND
     1    1    3 2
     2    2    3 2
     3    3    4 1
     4    4    5 1
     5    5    6 1
     6    6    7 2
     7    8    6 2
     8    9    5 2
     9   10    9 1
    10   11   10 1
    11   12   11 1
    12   13   11 1
    13   14   11 1
    14   15   14 1
    15   16   14 1
    16   17   14 1
    17   18   17 1
    18   19   17 1
    19   20   17 1
    20   21   20 1
    21   22   21 2
    22   23   22 1
    23   24   23 2
    24   25   23 2
    25   26   22 1
    26   27   26 1
    27   28   27 2
    28   29   27 2
    29   30   20 1
    30   31   30 1
    31   32   31 1
    32   33    4 2
    33   10   33 1
    34   26   30 2
    35   31   33 1
@<TRIPOS>SUBSTRUCTURE
     1 RES1 1

@<TRIPOS>CRYSIN
   8.8203    8.9473   17.3801  90.0000  98.1940  90.0000  14 1

