# MOL2 file generated by ConQuest
# Please check atom types

@<TRIPOS>MOLECULE
LEHNIW
    17    17     1
SMALL
NO_CHARGES
****
Generated from CSD

@<TRIPOS>ATOM
      1 N1         0.4782    1.0500    6.7316 N.am      1 RES1    0.0000
      2 H1         0.6314    0.8650    5.9473 H         1 RES1    0.0000
      3 C1         1.3138    0.5554    7.7065 C.2       1 RES1    0.0000
      4 O1         2.2786   -0.1363    7.4243 O.2       1 RES1    0.0000
      5 N2         0.9991    0.8995    8.9955 N.am      1 RES1    0.0000
      6 C2         1.8606    0.3745   10.0652 C.3       1 RES1    0.0000
      7 H2         1.4872   -0.4121   10.4344 H         1 RES1    0.0000
      8 H3         1.8318    1.0074   10.7931 H         1 RES1    0.0000
      9 H4         2.7716    0.3185    9.7876 H         1 RES1    0.0000
     10 C3        -0.1255    1.6425    9.3872 C.2       1 RES1    0.0000
     11 O2        -0.3550    1.8065   10.5631 O.2       1 RES1    0.0000
     12 C4        -0.8985    2.1432    8.2692 C.2       1 RES1    0.0000
     13 N3        -2.0476    2.9885    8.4644 N.pl3     1 RES1    0.0000
     14 O3        -2.6506    3.3622    7.4763 O.2       1 RES1    0.0000
     15 O4        -2.3939    3.3098    9.5799 O.2       1 RES1    0.0000
     16 C5        -0.5713    1.8233    6.9932 C.2       1 RES1    0.0000
     17 H5        -1.0687    2.1370    6.2400 H         1 RES1    0.0000
@<TRIPOS>BOND
     1    1    2 1
     2    3    1 1
     3    4    3 2
     4    5    3 1
     5    6    5 1
     6    7    6 1
     7    8    6 1
     8    9    6 1
     9   10    5 1
    10   11   10 2
    11   12   10 1
    12   13   12 1
    13   14   13 2
    14   15   13 2
    15   16    1 1
    16   17   16 1
    17   12   16 2
@<TRIPOS>SUBSTRUCTURE
     1 RES1 1

@<TRIPOS>CRYSIN
   5.7510   10.1760   11.7750  90.0000 100.6900  90.0000  14 1

