# MOL2 file generated by ConQuest
# Please check atom types

@<TRIPOS>MOLECULE
LEKFIQ
    68    71     1
SMALL
NO_CHARGES
****
Generated from CSD

@<TRIPOS>ATOM
      1 O1         8.0339    9.9723    3.2125 O.2       1 RES1    0.0000
      2 O2        11.0089   12.0934    6.0735 O.2       1 RES1    0.0000
      3 O3        18.5083    5.7134    4.1047 O.2       1 RES1    0.0000
      4 O4        21.5048    7.1366    0.8565 O.2       1 RES1    0.0000
      5 N1        14.2176    8.7270    1.5634 N.2       1 RES1    0.0000
      6 N2        15.2693    8.5222    2.2122 N.2       1 RES1    0.0000
      7 N3         8.5104   10.6924    4.1599 N.3       1 RES1    0.0000
      8 N4         9.9243   11.6269    5.5620 N.pl3     1 RES1    0.0000
      9 N5        19.5945    5.9090    3.4405 N.pl3     1 RES1    0.0000
     10 N6        21.0149    6.5487    1.8859 N.3       1 RES1    0.0000
     11 C1        13.1510    9.2378    2.3684 C.ar      1 RES1    0.0000
     12 C2        11.9871    9.5725    1.6793 C.ar      1 RES1    0.0000
     13 C3        10.8846   10.0677    2.3609 C.ar      1 RES1    0.0000
     14 C4        10.9505   10.2498    3.7479 C.ar      1 RES1    0.0000
     15 C5        12.1241    9.9038    4.4471 C.ar      1 RES1    0.0000
     16 C6        13.2157    9.3978    3.7681 C.ar      1 RES1    0.0000
     17 C7        16.3610    8.0226    1.4122 C.ar      1 RES1    0.0000
     18 C8        17.4680    7.6214    2.1517 C.ar      1 RES1    0.0000
     19 C9        18.6056    7.1342    1.4992 C.ar      1 RES1    0.0000
     20 C10       18.6347    7.0995    0.0957 C.ar      1 RES1    0.0000
     21 C11       17.5107    7.4947   -0.6375 C.ar      1 RES1    0.0000
     22 C12       16.3721    7.9399    0.0126 C.ar      1 RES1    0.0000
     23 C13        9.8185   10.8253    4.4748 C.2       1 RES1    0.0000
     24 C14        7.6593   11.6329    4.9787 C.3       1 RES1    0.0000
     25 C15        8.5836   11.8538    6.2070 C.3       1 RES1    0.0000
     26 C16        7.4688   12.8962    4.1372 C.3       1 RES1    0.0000
     27 C17        6.3172   10.9893    5.2975 C.3       1 RES1    0.0000
     28 C18        8.5297   13.2413    6.8231 C.3       1 RES1    0.0000
     29 C19        8.4289   10.7822    7.2854 C.3       1 RES1    0.0000
     30 C20       19.7152    6.5746    2.2739 C.2       1 RES1    0.0000
     31 C21       20.9263    5.4924    3.9961 C.3       1 RES1    0.0000
     32 C22       21.8156    5.5797    2.7212 C.3       1 RES1    0.0000
     33 C23       21.2843    6.5180    5.0757 C.3       1 RES1    0.0000
     34 C24       20.8016    4.1037    4.6121 C.3       1 RES1    0.0000
     35 C25       23.2180    6.1245    2.9416 C.3       1 RES1    0.0000
     36 C26       21.8786    4.2780    1.9225 C.3       1 RES1    0.0000
     37 H1        11.9553    9.4568    0.6551 H         1 RES1    0.0000
     38 H2        10.0615   10.2852    1.8771 H         1 RES1    0.0000
     39 H3        12.1796   10.0263    5.4171 H         1 RES1    0.0000
     40 H4        14.0001    9.1635    4.2833 H         1 RES1    0.0000
     41 H5        17.4311    7.6966    3.1621 H         1 RES1    0.0000
     42 H6        19.4382    6.7475   -0.3401 H         1 RES1    0.0000
     43 H7        17.5374    7.4550   -1.6377 H         1 RES1    0.0000
     44 H8        15.5751    8.2316   -0.5039 H         1 RES1    0.0000
     45 H9         8.3614   13.3569    3.9936 H         1 RES1    0.0000
     46 H10        6.9918   12.5976    3.3385 H         1 RES1    0.0000
     47 H11        6.9021   13.6158    4.7117 H         1 RES1    0.0000
     48 H12        6.4818   10.0436    5.7195 H         1 RES1    0.0000
     49 H13        5.7403   10.9755    4.4471 H         1 RES1    0.0000
     50 H14        5.7687   11.6657    5.8833 H         1 RES1    0.0000
     51 H15        8.7958   13.9609    6.1478 H         1 RES1    0.0000
     52 H16        7.5845   13.4432    7.1683 H         1 RES1    0.0000
     53 H17        9.1453   13.2361    7.5966 H         1 RES1    0.0000
     54 H18        9.1973   10.8547    7.8989 H         1 RES1    0.0000
     55 H19        8.4676    9.8365    6.8785 H         1 RES1    0.0000
     56 H20        7.5609   10.8547    7.7226 H         1 RES1    0.0000
     57 H21       20.5575    6.5231    5.7573 H         1 RES1    0.0000
     58 H22       21.3839    7.4378    4.6865 H         1 RES1    0.0000
     59 H23       22.0876    6.2298    5.4927 H         1 RES1    0.0000
     60 H24       20.2104    4.1244    5.4423 H         1 RES1    0.0000
     61 H25       20.3851    3.4514    3.9306 H         1 RES1    0.0000
     62 H26       21.7122    3.7793    4.9006 H         1 RES1    0.0000
     63 H27       23.1667    7.0581    3.3385 H         1 RES1    0.0000
     64 H28       23.6933    6.1262    2.0661 H         1 RES1    0.0000
     65 H29       23.6909    5.5395    3.5904 H         1 RES1    0.0000
     66 H30       20.9235    3.8828    1.7511 H         1 RES1    0.0000
     67 H31       22.3308    4.4696    1.0330 H         1 RES1    0.0000
     68 H32       22.4135    3.6067    2.4188 H         1 RES1    0.0000
@<TRIPOS>BOND
     1    1    7 1
     2    2    8 1
     3    3    9 1
     4    4   10 1
     5    5    6 2
     6    6   17 1
     7    7   23 1
     8    8   23 2
     9    9   30 2
    10   10   30 1
    11   11    5 1
    12   12   11 ar
    13   13   12 ar
    14   14   13 ar
    15   15   14 ar
    16   16   11 ar
    17   17   18 ar
    18   18   19 ar
    19   19   20 ar
    20   20   21 ar
    21   21   22 ar
    22   22   17 ar
    23   23   14 1
    24   24    7 1
    25   25    8 1
    26   26   24 1
    27   27   24 1
    28   28   25 1
    29   29   25 1
    30   30   19 1
    31   31    9 1
    32   32   10 1
    33   33   31 1
    34   34   31 1
    35   35   32 1
    36   36   32 1
    37   37   12 1
    38   38   13 1
    39   39   15 1
    40   40   16 1
    41   41   18 1
    42   42   20 1
    43   43   21 1
    44   44   22 1
    45   45   26 1
    46   46   26 1
    47   47   26 1
    48   48   27 1
    49   49   27 1
    50   50   27 1
    51   51   28 1
    52   52   28 1
    53   53   28 1
    54   54   29 1
    55   55   29 1
    56   56   29 1
    57   57   33 1
    58   58   33 1
    59   59   33 1
    60   60   34 1
    61   61   34 1
    62   62   34 1
    63   63   35 1
    64   64   35 1
    65   65   35 1
    66   66   36 1
    67   67   36 1
    68   68   36 1
    69   15   16 ar
    70   24   25 1
    71   31   32 1
@<TRIPOS>SUBSTRUCTURE
     1 RES1 1

@<TRIPOS>CRYSIN
  23.6130   17.2570   12.5980  90.0000  90.0000  90.0000  61 1

