# MOL2 file generated by ConQuest
# Please check atom types

@<TRIPOS>MOLECULE
LEMMAR01
    34    37     1
SMALL
USER_CHARGES
****
Generated from CSD

@<TRIPOS>ATOM
      1 O1         4.0895    0.3110    4.0408 O.2       1 RES1    0.0000
      2 O2         2.2472   -3.2493    1.7578 O.2       1 RES1   -1.0000
      3 N1         3.7642   -0.8735    3.6957 N.3       1 RES1    0.0000
      4 N2         2.8277   -2.5491    2.6482 N.pl3     1 RES1    1.0000
      5 N3         1.2141   -0.6271    1.1685 N.ar      1 RES1    0.0000
      6 C1         2.9732   -1.2117    2.6552 C.2       1 RES1    0.0000
      7 C2         4.3477   -2.0716    4.3870 C.3       1 RES1    0.0000
      8 C3         3.3815   -3.1881    3.8998 C.3       1 RES1    0.0000
      9 C4         5.7788   -2.2058    3.8718 C.3       1 RES1    0.0000
     10 C5         4.3578   -1.8303    5.8827 C.3       1 RES1    0.0000
     11 C6         2.1938   -3.4056    4.8332 C.3       1 RES1    0.0000
     12 C7         4.0272   -4.5187    3.5516 C.3       1 RES1    0.0000
     13 C8         2.3923   -0.2583    1.7068 C.ar      1 RES1    0.0000
     14 C9         3.0375    0.9381    1.4036 C.ar      1 RES1    0.0000
     15 C10        2.4288    1.7980    0.5222 C.ar      1 RES1    0.0000
     16 C11        1.1982    1.4428   -0.0400 C.ar      1 RES1    0.0000
     17 C12        0.6471    0.2209    0.2981 C.ar      1 RES1    0.0000
     18 C12B      -0.6471   -0.2209   -0.2981 C.ar      1 RES1    0.0000
     19 N3B       -1.2141    0.6271   -1.1685 N.ar      1 RES1    0.0000
     20 C8B       -2.3923    0.2583   -1.7068 C.ar      1 RES1    0.0000
     21 C1B       -2.9732    1.2117   -2.6552 C.2       1 RES1    0.0000
     22 N1B       -3.7642    0.8735   -3.6957 N.pl3     1 RES1    0.0000
     23 O1B       -4.0895   -0.3110   -4.0408 O.2       1 RES1    0.0000
     24 C2B       -4.3477    2.0716   -4.3870 C.3       1 RES1    0.0000
     25 C3B       -3.3815    3.1881   -3.8998 C.3       1 RES1    0.0000
     26 N2B       -2.8277    2.5491   -2.6482 N.3       1 RES1    1.0000
     27 O2B       -2.2472    3.2493   -1.7578 O.2       1 RES1   -1.0000
     28 C6B       -2.1938    3.4056   -4.8332 C.3       1 RES1    0.0000
     29 C7B       -4.0272    4.5187   -3.5516 C.3       1 RES1    0.0000
     30 C4B       -5.7788    2.2058   -3.8718 C.3       1 RES1    0.0000
     31 C5B       -4.3578    1.8303   -5.8827 C.3       1 RES1    0.0000
     32 C9B       -3.0375   -0.9381   -1.4036 C.ar      1 RES1    0.0000
     33 C10B      -2.4288   -1.7980   -0.5222 C.ar      1 RES1    0.0000
     34 C11B      -1.1982   -1.4428    0.0400 C.ar      1 RES1    0.0000
@<TRIPOS>BOND
     1    1    3 1
     2    2    4 1
     3    3    6 1
     4    4    6 2
     5    5   13 ar
     6    6   13 1
     7    7    3 1
     8    8    4 1
     9    9    7 1
    10   10    7 1
    11   11    8 1
    12   12    8 1
    13   13   14 ar
    14   14   15 ar
    15   15   16 ar
    16   16   17 ar
    17   17    5 ar
    18   18   17 1
    19   19   18 ar
    20   20   19 ar
    21   21   20 1
    22   22   21 2
    23   23   22 1
    24   24   22 1
    25   25   24 1
    26   26   21 1
    27   27   26 1
    28   28   25 1
    29   29   25 1
    30   30   24 1
    31   31   24 1
    32   32   20 ar
    33   33   32 ar
    34   34   18 ar
    35    7    8 1
    36   25   26 1
    37   33   34 ar
@<TRIPOS>SUBSTRUCTURE
     1 RES1 1

@<TRIPOS>CRYSIN
   6.9610   16.9940   10.1970  90.0000 101.1500  90.0000 231 1

