# MOL2 file generated by ConQuest
# Please check atom types

@<TRIPOS>MOLECULE
LEMSAA
    36    37     1
SMALL
NO_CHARGES
****
Generated from CSD

@<TRIPOS>ATOM
      1 O1         2.1356    0.2089   12.5080 O.3       1 RES1    0.0000
      2 O2         1.7186   -0.3058   15.0715 O.3       1 RES1    0.0000
      3 N1         1.1802    0.1947   10.0038 N.am      1 RES1    0.0000
      4 O3        -1.0650    0.1170    9.8152 O.2       1 RES1    0.0000
      5 C1         0.8508   -0.1181   12.9086 C.ar      1 RES1    0.0000
      6 C2         1.5820    0.4354    8.6862 C.ar      1 RES1    0.0000
      7 C3        -0.1863   -0.2170   11.9819 C.ar      1 RES1    0.0000
      8 O4         4.2837    1.1818    4.6616 O.2       1 RES1    0.0000
      9 N2         3.0766    1.0720    4.8050 N.pl3     1 RES1    0.0000
     10 C4        -0.0703    0.0482   10.5039 C.2       1 RES1    0.0000
     11 C5         0.6268   -0.3988   14.2641 C.ar      1 RES1    0.0000
     12 C6         2.5545    0.8647    6.1580 C.ar      1 RES1    0.0000
     13 C7         0.7153    0.4316    7.5980 C.ar      1 RES1    0.0000
     14 H1        -0.1934    0.2801    7.7245 H         1 RES1    0.0000
     15 O5         2.2862    1.1260    3.8821 O.2       1 RES1    0.0000
     16 C8         2.9398    0.6563    8.4800 C.ar      1 RES1    0.0000
     17 H2         3.5218    0.6627    9.2056 H         1 RES1    0.0000
     18 C9        -1.4516   -0.5750   12.4409 C.ar      1 RES1    0.0000
     19 H3        -2.1543   -0.6481   11.8364 H         1 RES1    0.0000
     20 C10        3.4283    0.8657    7.2138 C.ar      1 RES1    0.0000
     21 H4         4.3373    1.0053    7.0749 H         1 RES1    0.0000
     22 C11       -0.6462   -0.7372   14.6849 C.ar      1 RES1    0.0000
     23 H5        -0.8085   -0.9079   15.5847 H         1 RES1    0.0000
     24 C12        1.2110    0.6549    6.3309 C.ar      1 RES1    0.0000
     25 H6         0.6379    0.6623    5.5985 H         1 RES1    0.0000
     26 C13       -1.6764   -0.8206   13.7699 C.ar      1 RES1    0.0000
     27 H7        -2.5308   -1.0467   14.0583 H         1 RES1    0.0000
     28 C14        1.5327   -0.5498   16.4692 C.3       1 RES1    0.0000
     29 H8         2.3717   -0.4539   16.9255 H         1 RES1    0.0000
     30 H9         0.9018    0.0814   16.8232 H         1 RES1    0.0000
     31 H10        1.1990   -1.4411   16.5969 H         1 RES1    0.0000
     32 C15        2.5420    1.5412   12.8758 C.3       1 RES1    0.0000
     33 H11        3.4376    1.6992   12.5684 H         1 RES1    0.0000
     34 H12        1.9483    2.1796   12.4733 H         1 RES1    0.0000
     35 H13        2.5105    1.6334   13.8309 H         1 RES1    0.0000
     36 H14        1.7948    0.1601   10.6155 H         1 RES1    0.0000
@<TRIPOS>BOND
     1    1    5 1
     2    2   11 1
     3    3    6 1
     4    4   10 2
     5    5    7 ar
     6    6   13 ar
     7    7   10 1
     8    8    9 2
     9    9   12 1
    10   10    3 1
    11   11    5 ar
    12   12   20 ar
    13   13   14 1
    14   15    9 2
    15   16    6 ar
    16   17   16 1
    17   18    7 ar
    18   19   18 1
    19   20   16 ar
    20   21   20 1
    21   22   11 ar
    22   23   22 1
    23   24   12 ar
    24   25   24 1
    25   26   18 ar
    26   27   26 1
    27   28    2 1
    28   29   28 1
    29   30   28 1
    30   31   28 1
    31   32    1 1
    32   33   32 1
    33   34   32 1
    34   35   32 1
    35   36    3 1
    36   13   24 ar
    37   22   26 ar
@<TRIPOS>SUBSTRUCTURE
     1 RES1 1

@<TRIPOS>CRYSIN
   6.9293    7.3270   15.7411  94.1980  96.1890 116.0530   2 1

