# MOL2 file generated by ConQuest
# Please check atom types

@<TRIPOS>MOLECULE
LEMWUY
    72    74     2
SMALL
NO_CHARGES
****
Generated from CSD

@<TRIPOS>ATOM
      1 O1         4.3173    8.9495    5.0526 O.3       1 RES1    0.0000
      2 H1         4.8013    8.9424    5.7151 H         1 RES1    0.0000
      3 O2         1.0194    3.4228    5.5104 O.3       1 RES1    0.0000
      4 O3        -0.3722    3.0918    3.3595 O.3       1 RES1    0.0000
      5 O4         0.4648    7.1577    0.5890 O.2       1 RES1    0.0000
      6 O5         2.3970    7.8235    1.2412 O.2       1 RES1    0.0000
      7 N1         1.3801    7.1618    1.3910 N.pl3     1 RES1    0.0000
      8 N2         3.6453    7.7212    4.9506 N.2       1 RES1    0.0000
      9 C1         1.2727    6.2810    2.5651 C.ar      1 RES1    0.0000
     10 C2         0.4308    5.1829    2.4137 C.ar      1 RES1    0.0000
     11 H2        -0.0804    5.0890    1.6421 H         1 RES1    0.0000
     12 C3         0.3576    4.2321    3.4136 C.ar      1 RES1    0.0000
     13 C4         1.1289    4.4134    4.5858 C.ar      1 RES1    0.0000
     14 C5         1.9162    5.5297    4.7246 C.ar      1 RES1    0.0000
     15 H3         2.3946    5.6455    5.5133 H         1 RES1    0.0000
     16 C6         2.0246    6.5027    3.7183 C.ar      1 RES1    0.0000
     17 C7         2.8422    7.7023    3.9758 C.2       1 RES1    0.0000
     18 C8         1.9927    3.3942    6.5721 C.3       1 RES1    0.0000
     19 H4         2.8761    3.3856    6.1964 H         1 RES1    0.0000
     20 H5         1.8633    2.6055    7.1044 H         1 RES1    0.0000
     21 H6         1.8875    4.1729    7.1238 H         1 RES1    0.0000
     22 C9        -1.0325    2.7861    2.1049 C.3       1 RES1    0.0000
     23 H7        -0.4208    2.9161    1.3637 H         1 RES1    0.0000
     24 H8        -1.7984    3.3681    1.9776 H         1 RES1    0.0000
     25 C10       -1.4739    1.3568    2.1677 C.ar      1 RES1    0.0000
     26 C11       -2.6945    0.9978    2.7324 C.ar      1 RES1    0.0000
     27 H9        -3.2535    1.6556    3.0788 H         1 RES1    0.0000
     28 C12       -3.0824   -0.3254    2.7835 C.ar      1 RES1    0.0000
     29 H10       -3.9041   -0.5531    3.1541 H         1 RES1    0.0000
     30 C13       -2.2545   -1.3129    2.2863 C.ar      1 RES1    0.0000
     31 H11       -2.5127   -2.2045    2.3300 H         1 RES1    0.0000
     32 C14       -1.0386   -0.9676    1.7235 C.ar      1 RES1    0.0000
     33 H12       -0.4794   -1.6285    1.3844 H         1 RES1    0.0000
     34 C15       -0.6553    0.3569    1.6654 C.ar      1 RES1    0.0000
     35 H13        0.1629    0.5814    1.2847 H         1 RES1    0.0000
     36 H14        2.7749    8.5295    3.4398 H         1 RES1    0.0000
     37 O6         6.7908    7.6662   11.0904 O.2       2 RES2    0.0000
     38 O7         8.6184    8.4708   11.8837 O.2       2 RES2    0.0000
     39 O8         4.8824    6.6743    7.2634 O.3       2 RES2    0.0000
     40 H15        4.3866    6.7031    6.6109 H         2 RES2    0.0000
     41 O9         8.1994   12.1941    6.9569 O.3       2 RES2    0.0000
     42 O10        9.6110   12.4532    9.0559 O.3       2 RES2    0.0000
     43 N3         7.7683    8.4059   11.0132 N.pl3     2 RES2    0.0000
     44 N4         5.5355    7.9096    7.4103 N.2       2 RES2    0.0000
     45 C16       10.6698   14.2636   10.1299 C.ar      2 RES2    0.0000
     46 C17       11.2400   14.7243    8.9447 C.ar      2 RES2    0.0000
     47 H16       11.4099   14.1268    8.2518 H         2 RES2    0.0000
     48 C18       11.5543   16.0567    8.7901 C.ar      2 RES2    0.0000
     49 H17       11.9200   16.3537    7.9880 H         2 RES2    0.0000
     50 C19       11.3298   16.9586    9.8186 C.ar      2 RES2    0.0000
     51 H18       11.5405   17.8582    9.7103 H         2 RES2    0.0000
     52 C20       10.7887   16.5045   11.0072 C.ar      2 RES2    0.0000
     53 H19       10.6519   17.0990   11.7098 H         2 RES2    0.0000
     54 C21       10.4502   15.1721   11.1575 C.ar      2 RES2    0.0000
     55 H20       10.0713   14.8811   11.9553 H         2 RES2    0.0000
     56 C22        7.8885    9.3068    9.8567 C.ar      2 RES2    0.0000
     57 C23        7.1315    9.1074    8.6972 C.ar      2 RES2    0.0000
     58 C24        7.2555   10.0931    7.7064 C.ar      2 RES2    0.0000
     59 H21        6.7714   10.0018    6.9184 H         2 RES2    0.0000
     60 C25        8.0675   11.1887    7.8617 C.ar      2 RES2    0.0000
     61 C26        8.8497   11.3380    9.0252 C.ar      2 RES2    0.0000
     62 C27        8.7537   10.3886   10.0215 C.ar      2 RES2    0.0000
     63 H22        9.2610   10.4688   10.7969 H         2 RES2    0.0000
     64 C28        6.3092    7.9183    8.4030 C.2       2 RES2    0.0000
     65 C29        7.2579   12.2288    5.8737 C.3       2 RES2    0.0000
     66 H23        7.3505   11.4335    5.3444 H         2 RES2    0.0000
     67 H24        7.4278   12.9996    5.3274 H         2 RES2    0.0000
     68 H25        6.3662   12.2771    6.2268 H         2 RES2    0.0000
     69 C30       10.2592   12.8290   10.2840 C.3       2 RES2    0.0000
     70 H26       11.0363   12.2691   10.4408 H         2 RES2    0.0000
     71 H27        9.6495   12.7302   11.0327 H         2 RES2    0.0000
     72 H28        6.2942    7.1310    9.0163 H         2 RES2    0.0000
@<TRIPOS>BOND
     1    1    2 1
     2    3   13 1
     3    4   12 1
     4    5    7 2
     5    6    7 2
     6    7    9 1
     7    8    1 1
     8    9   10 ar
     9   10   11 1
    10   12   10 ar
    11   13   12 ar
    12   14   13 ar
    13   15   14 1
    14   16    9 ar
    15   17    8 2
    16   18    3 1
    17   19   18 1
    18   20   18 1
    19   21   18 1
    20   22    4 1
    21   23   22 1
    22   24   22 1
    23   25   22 1
    24   26   25 ar
    25   27   26 1
    26   28   26 ar
    27   29   28 1
    28   30   28 ar
    29   31   30 1
    30   32   30 ar
    31   33   32 1
    32   34   25 ar
    33   35   34 1
    34   36   17 1
    35   37   43 2
    36   38   43 2
    37   39   40 1
    38   41   60 1
    39   42   61 1
    40   43   56 1
    41   44   39 1
    42   45   46 ar
    43   46   47 1
    44   48   46 ar
    45   49   48 1
    46   50   48 ar
    47   51   50 1
    48   52   50 ar
    49   53   52 1
    50   54   45 ar
    51   55   54 1
    52   56   57 ar
    53   57   58 ar
    54   58   59 1
    55   60   58 ar
    56   61   60 ar
    57   62   56 ar
    58   63   62 1
    59   64   44 2
    60   65   41 1
    61   66   65 1
    62   67   65 1
    63   68   65 1
    64   69   42 1
    65   70   69 1
    66   71   69 1
    67   72   64 1
    68   14   16 ar
    69   16   17 1
    70   32   34 ar
    71   45   69 1
    72   52   54 ar
    73   57   64 1
    74   61   62 ar
@<TRIPOS>SUBSTRUCTURE
     1 RES1 1
     2 RES2 37

@<TRIPOS>CRYSIN
   9.4572   12.3977   12.7667  72.3260  83.7950  76.3740   2 1

