# MOL2 file generated by ConQuest
# Please check atom types

@<TRIPOS>MOLECULE
LENBAH
    49    52     1
SMALL
NO_CHARGES
****
Generated from CSD

@<TRIPOS>ATOM
      1 N1        -2.4646    8.1360    9.7166 N.3       1 RES1    0.0000
      2 N2        -4.6315    7.0492    9.7583 N.3       1 RES1    0.0000
      3 N3        -4.0462    7.4645    7.4344 N.3       1 RES1    0.0000
      4 N4        -4.4314    9.3144    8.9328 N.3       1 RES1    0.0000
      5 N5        -3.1723    7.1919    6.4747 N.2       1 RES1    0.0000
      6 N6        -2.8813    5.9715    6.3605 N.2       1 RES1    0.0000
      7 N7        -1.4257    7.6567    9.0500 N.2       1 RES1    0.0000
      8 N8        -0.7978    8.5195    8.3479 N.2       1 RES1    0.0000
      9 N9         1.2462    4.7265    2.7497 N.pl3     1 RES1    0.0000
     10 N10        3.4321    6.4100    5.2773 N.pl3     1 RES1    0.0000
     11 C1        -3.0968    9.4465    9.4975 C.3       1 RES1    0.0000
     12 C2        -5.2261    8.3780    9.7398 C.3       1 RES1    0.0000
     13 C3        -4.5836    6.4912    8.4251 C.3       1 RES1    0.0000
     14 C4        -4.4332    8.8680    7.5610 C.3       1 RES1    0.0000
     15 C5        -3.3125    7.1390   10.3693 C.3       1 RES1    0.0000
     16 C6        -1.8818    5.7447    5.3729 C.ar      1 RES1    0.0000
     17 C7        -1.2016    6.7626    4.6832 C.ar      1 RES1    0.0000
     18 C8        -0.1764    6.4299    3.7851 C.ar      1 RES1    0.0000
     19 C9         0.1551    5.0903    3.6262 C.ar      1 RES1    0.0000
     20 C10       -0.5151    4.1039    4.3051 C.ar      1 RES1    0.0000
     21 C11       -1.5425    4.4324    5.1569 C.ar      1 RES1    0.0000
     22 O1         1.6024    3.5407    2.6880 O.2       1 RES1    0.0000
     23 O2         1.8051    5.6010    2.0862 O.2       1 RES1    0.0000
     24 O3         3.6871    5.2105    5.3266 O.2       1 RES1    0.0000
     25 O4         4.0777    7.1726    4.5752 O.2       1 RES1    0.0000
     26 C12        0.2841    7.9151    7.6412 C.ar      1 RES1    0.0000
     27 C13        1.0260    8.7666    6.8249 C.ar      1 RES1    0.0000
     28 C14        2.0505    8.2755    6.0472 C.ar      1 RES1    0.0000
     29 C15        2.3561    6.9328    6.1105 C.ar      1 RES1    0.0000
     30 C16        1.6558    6.0590    6.9283 C.ar      1 RES1    0.0000
     31 C17        0.6180    6.5618    7.6906 C.ar      1 RES1    0.0000
     32 H1        -3.1520    9.9203   10.3431 H         1 RES1    0.0000
     33 H2        -2.5462    9.9716    8.8957 H         1 RES1    0.0000
     34 H3        -5.2928    8.7137   10.6471 H         1 RES1    0.0000
     35 H4        -6.1229    8.3232    9.3741 H         1 RES1    0.0000
     36 H5        -5.4762    6.2239    8.1566 H         1 RES1    0.0000
     37 H6        -4.0232    5.6992    8.4282 H         1 RES1    0.0000
     38 H7        -3.8183    9.4145    7.0471 H         1 RES1    0.0000
     39 H8        -5.3211    8.9882    7.1876 H         1 RES1    0.0000
     40 H9        -2.8789    6.2720   10.3200 H         1 RES1    0.0000
     41 H10       -3.4111    7.3695   11.3075 H         1 RES1    0.0000
     42 H11       -1.4303    7.6534    4.8205 H         1 RES1    0.0000
     43 H12        0.2707    7.0899    3.3083 H         1 RES1    0.0000
     44 H13       -0.2738    3.2139    4.1879 H         1 RES1    0.0000
     45 H14       -2.0126    3.7588    5.5920 H         1 RES1    0.0000
     46 H15        0.8273    9.6745    6.8049 H         1 RES1    0.0000
     47 H16        2.5292    8.8423    5.4871 H         1 RES1    0.0000
     48 H17        1.8781    5.1566    6.9638 H         1 RES1    0.0000
     49 H18        0.1371    5.9904    8.2430 H         1 RES1    0.0000
@<TRIPOS>BOND
     1    1    7 1
     2    2   12 1
     3    3    5 1
     4    4   11 1
     5    5    6 2
     6    6   16 1
     7    7    8 2
     8    8   26 1
     9    9   19 1
    10   10   24 2
    11   11    1 1
    12   12    4 1
    13   13    2 1
    14   14    3 1
    15   15    1 1
    16   16   17 ar
    17   17   18 ar
    18   18   19 ar
    19   19   20 ar
    20   20   21 ar
    21   21   16 ar
    22   22    9 2
    23   23    9 2
    24   25   10 2
    25   26   27 ar
    26   27   28 ar
    27   28   29 ar
    28   29   10 1
    29   30   29 ar
    30   31   26 ar
    31   32   11 1
    32   33   11 1
    33   34   12 1
    34   35   12 1
    35   36   13 1
    36   37   13 1
    37   38   14 1
    38   39   14 1
    39   40   15 1
    40   41   15 1
    41   42   17 1
    42   43   18 1
    43   44   20 1
    44   45   21 1
    45   46   27 1
    46   47   28 1
    47   48   30 1
    48   49   31 1
    49    2   15 1
    50    3   13 1
    51    4   14 1
    52   30   31 ar
@<TRIPOS>SUBSTRUCTURE
     1 RES1 1

@<TRIPOS>CRYSIN
   9.8899   13.0845   16.4580  94.0590 107.0040 111.0270   2 1

