# MOL2 file generated by ConQuest
# Please check atom types

@<TRIPOS>MOLECULE
LENNAU
   100   106     2
SMALL
NO_CHARGES
****
Generated from CSD

@<TRIPOS>ATOM
      1 O1        10.7725    6.9555   12.0013 O.2       1 RES1    0.0000
      2 C1        10.7725    8.1804   12.0013 C.2       1 RES1    0.0000
      3 C2         9.5474    8.9330   11.5835 C.ar      1 RES1    0.0000
      4 C3         9.6099   10.1860   10.9514 C.ar      1 RES1    0.0000
      5 H1        10.4521   10.5994   10.8044 H         1 RES1    0.0000
      6 C4         8.4464   10.8240   10.5408 C.ar      1 RES1    0.0000
      7 H2         8.4923   11.6592   10.0907 H         1 RES1    0.0000
      8 C5         7.2159   10.2312   10.7917 C.ar      1 RES1    0.0000
      9 C6         7.1220    8.9750   11.3929 C.ar      1 RES1    0.0000
     10 H3         6.2754    8.5687   11.5405 H         1 RES1    0.0000
     11 C7         8.2930    8.3328   11.7710 C.ar      1 RES1    0.0000
     12 H4         8.2440    7.4701   12.1645 H         1 RES1    0.0000
     13 O2         6.1088   11.0281   10.5312 O.3       1 RES1    0.0000
     14 C8         4.9218   10.5431   10.0149 C.ar      1 RES1    0.0000
     15 C9         3.8297   11.3777   10.2376 C.ar      1 RES1    0.0000
     16 H5         3.9244   12.1424   10.7932 H         1 RES1    0.0000
     17 C10        2.6041   11.0977    9.6526 C.ar      1 RES1    0.0000
     18 H6         1.8514   11.6570    9.8027 H         1 RES1    0.0000
     19 C11        2.5097    9.9725    8.8392 C.ar      1 RES1    0.0000
     20 C12        3.5818    9.1078    8.6449 C.ar      1 RES1    0.0000
     21 H7         3.4797    8.3339    8.1033 H         1 RES1    0.0000
     22 C13        4.8006    9.3812    9.2460 C.ar      1 RES1    0.0000
     23 H8         5.5379    8.7920    9.1386 H         1 RES1    0.0000
     24 N1         1.2629    9.7601    8.0946 N.pl3     1 RES1    0.0000
     25 O3         0.2668   10.4264    8.4134 O.2       1 RES1    0.0000
     26 O4         1.2780    8.9547    7.1625 O.2       1 RES1    0.0000
     27 O5         5.0050    6.6074   12.0013 O.2       2 RES2    0.0000
     28 C14        5.0050    5.3846   12.0013 C.2       2 RES2    0.0000
     29 C15        3.8165    4.6255   11.4915 C.ar      2 RES2    0.0000
     30 C16        3.3963    3.4294   12.0872 C.ar      2 RES2    0.0000
     31 H9         3.9050    3.0484   12.7934 H         2 RES2    0.0000
     32 C17        2.2412    2.7998   11.6493 C.ar      2 RES2    0.0000
     33 H10        1.9430    2.0023   12.0717 H         2 RES2    0.0000
     34 C18        1.5230    3.3393   10.5914 C.ar      2 RES2    0.0000
     35 C19        1.9220    4.5226    9.9723 C.ar      2 RES2    0.0000
     36 H11        1.4270    4.8798    9.2442 H         2 RES2    0.0000
     37 C20        3.0581    5.1684   10.4407 C.ar      2 RES2    0.0000
     38 H12        3.3272    5.9897   10.0443 H         2 RES2    0.0000
     39 O6         0.4509    2.5716   10.1237 O.3       2 RES2    0.0000
     40 C21       -0.7124    3.1830    9.6782 C.ar      2 RES2    0.0000
     41 C22       -1.4350    2.4737    8.7134 C.ar      2 RES2    0.0000
     42 H13       -1.1098    1.6444    8.3833 H         2 RES2    0.0000
     43 C23       -2.6283    2.9942    8.2441 C.ar      2 RES2    0.0000
     44 H14       -3.1223    2.5379    7.5736 H         2 RES2    0.0000
     45 C24       -3.0909    4.1916    8.7664 C.ar      2 RES2    0.0000
     46 C25       -2.3952    4.8929    9.7473 C.ar      2 RES2    0.0000
     47 H15       -2.7432    5.7014   10.1035 H         2 RES2    0.0000
     48 C26       -1.1832    4.3879   10.1946 C.ar      2 RES2    0.0000
     49 H16       -0.6785    4.8593   10.8476 H         2 RES2    0.0000
     50 N2        -4.3498    4.7485    8.2479 N.pl3     2 RES2    0.0000
     51 O7        -4.8049    4.2851    7.1958 O.2       2 RES2    0.0000
     52 O8        -4.8869    5.6645    8.8763 O.2       2 RES2    0.0000
     53 C2A       11.9976    8.9330   12.4191 C.ar      1 RES1    0.0000
     54 C3A       11.9351   10.1860   13.0512 C.ar      1 RES1    0.0000
     55 H1A       11.0928   10.5994   13.1982 H         1 RES1    0.0000
     56 C4A       13.0985   10.8240   13.4618 C.ar      1 RES1    0.0000
     57 H2A       13.0527   11.6592   13.9119 H         1 RES1    0.0000
     58 C5A       14.3291   10.2312   13.2109 C.ar      1 RES1    0.0000
     59 C6A       14.4229    8.9750   12.6097 C.ar      1 RES1    0.0000
     60 H3A       15.2695    8.5687   12.4622 H         1 RES1    0.0000
     61 C7A       13.2520    8.3328   12.2316 C.ar      1 RES1    0.0000
     62 H4A       13.3009    7.4701   11.8381 H         1 RES1    0.0000
     63 O2A       15.4362   11.0281   13.4714 O.3       1 RES1    0.0000
     64 C8A       16.6231   10.5431   13.9878 C.ar      1 RES1    0.0000
     65 C9A       17.7152   11.3777   13.7650 C.ar      1 RES1    0.0000
     66 H5A       17.6206   12.1424   13.2094 H         1 RES1    0.0000
     67 C10A      18.9408   11.0977   14.3500 C.ar      1 RES1    0.0000
     68 H6A       19.6935   11.6570   14.2000 H         1 RES1    0.0000
     69 C11A      19.0353    9.9725   15.1634 C.ar      1 RES1    0.0000
     70 C12A      17.9631    9.1078   15.3577 C.ar      1 RES1    0.0000
     71 H7A       18.0652    8.3339   15.8993 H         1 RES1    0.0000
     72 C13A      16.7443    9.3812   14.7567 C.ar      1 RES1    0.0000
     73 H8A       16.0070    8.7920   14.8640 H         1 RES1    0.0000
     74 N1A       20.2821    9.7601   15.9080 N.pl3     1 RES1    0.0000
     75 O3A       21.2782   10.4264   15.5892 O.2       1 RES1    0.0000
     76 O4A       20.2669    8.9547   16.8401 O.2       1 RES1    0.0000
     77 C15A       6.1934    4.6255   12.5111 C.ar      2 RES2    0.0000
     78 C16A       6.6137    3.4294   11.9154 C.ar      2 RES2    0.0000
     79 H9A        6.1050    3.0484   11.2092 H         2 RES2    0.0000
     80 C17A       7.7687    2.7998   12.3534 C.ar      2 RES2    0.0000
     81 H10A       8.0670    2.0023   11.9309 H         2 RES2    0.0000
     82 C18A       8.4870    3.3393   13.4112 C.ar      2 RES2    0.0000
     83 C19A       8.0879    4.5226   14.0303 C.ar      2 RES2    0.0000
     84 H11A       8.5829    4.8798   14.7584 H         2 RES2    0.0000
     85 C20A       6.9519    5.1684   13.5620 C.ar      2 RES2    0.0000
     86 H12A       6.6828    5.9897   13.9583 H         2 RES2    0.0000
     87 O6A        9.5590    2.5716   13.8790 O.3       2 RES2    0.0000
     88 C21A      10.7223    3.1830   14.3244 C.ar      2 RES2    0.0000
     89 C22A      11.4450    2.4737   15.2892 C.ar      2 RES2    0.0000
     90 H13A      11.1197    1.6444   15.6193 H         2 RES2    0.0000
     91 C23A      12.6382    2.9942   15.7585 C.ar      2 RES2    0.0000
     92 H14A      13.1323    2.5379   16.4290 H         2 RES2    0.0000
     93 C24A      13.1009    4.1916   15.2362 C.ar      2 RES2    0.0000
     94 C25A      12.4051    4.8929   14.2553 C.ar      2 RES2    0.0000
     95 H15A      12.7532    5.7014   13.8991 H         2 RES2    0.0000
     96 C26A      11.1932    4.3879   13.8081 C.ar      2 RES2    0.0000
     97 H16A      10.6884    4.8593   13.1550 H         2 RES2    0.0000
     98 N2A       14.3597    4.7485   15.7547 N.pl3     2 RES2    0.0000
     99 O7A       14.8149    4.2851   16.8068 O.2       2 RES2    0.0000
    100 O8A       14.8968    5.6645   15.1263 O.2       2 RES2    0.0000
@<TRIPOS>BOND
     1    1    2 2
     2    2    3 1
     3    3    4 ar
     4    4    5 1
     5    6    4 ar
     6    7    6 1
     7    8    6 ar
     8    9    8 ar
     9   10    9 1
    10   11    3 ar
    11   12   11 1
    12   13    8 1
    13   14   13 1
    14   15   14 ar
    15   16   15 1
    16   17   15 ar
    17   18   17 1
    18   19   17 ar
    19   20   19 ar
    20   21   20 1
    21   22   14 ar
    22   23   22 1
    23   24   19 1
    24   25   24 2
    25   26   24 2
    26   27   28 2
    27   28   29 1
    28   29   30 ar
    29   30   31 1
    30   32   30 ar
    31   33   32 1
    32   34   32 ar
    33   35   34 ar
    34   36   35 1
    35   37   29 ar
    36   38   37 1
    37   39   34 1
    38   40   39 1
    39   41   40 ar
    40   42   41 1
    41   43   41 ar
    42   44   43 1
    43   45   43 ar
    44   46   45 ar
    45   47   46 1
    46   48   40 ar
    47   49   48 1
    48   50   45 1
    49   51   50 2
    50   52   50 2
    51   53    2 1
    52   54   53 ar
    53   55   54 1
    54   56   54 ar
    55   57   56 1
    56   58   56 ar
    57   59   58 ar
    58   60   59 1
    59   61   53 ar
    60   62   61 1
    61   63   58 1
    62   64   63 1
    63   65   64 ar
    64   66   65 1
    65   67   65 ar
    66   68   67 1
    67   69   67 ar
    68   70   69 ar
    69   71   70 1
    70   72   64 ar
    71   73   72 1
    72   74   69 1
    73   75   74 2
    74   76   74 2
    75   77   28 1
    76   78   77 ar
    77   79   78 1
    78   80   78 ar
    79   81   80 1
    80   82   80 ar
    81   83   82 ar
    82   84   83 1
    83   85   77 ar
    84   86   85 1
    85   87   82 1
    86   88   87 1
    87   89   88 ar
    88   90   89 1
    89   91   89 ar
    90   92   91 1
    91   93   91 ar
    92   94   93 ar
    93   95   94 1
    94   96   88 ar
    95   97   96 1
    96   98   93 1
    97   99   98 2
    98  100   98 2
    99    9   11 ar
   100   20   22 ar
   101   35   37 ar
   102   46   48 ar
   103   59   61 ar
   104   70   72 ar
   105   83   85 ar
   106   94   96 ar
@<TRIPOS>SUBSTRUCTURE
     1 RES1 1
     2 RES2 27

