# MOL2 file generated by ConQuest
# Please check atom types

@<TRIPOS>MOLECULE
LENXOR
    94    92     2
SMALL
NO_CHARGES
****
Generated from CSD

@<TRIPOS>ATOM
      1 O1        11.1076    0.0584    2.5250 O.3       1 RES1    0.0000
      2 O2        11.3240    2.9534    3.3202 O.3       1 RES1    0.0000
      3 O3        12.9372    2.5482    1.8343 O.2       1 RES1    0.0000
      4 N1        10.0088    0.8809    2.0385 N.3       1 RES1    0.0000
      5 C1         9.2065    0.0000    1.1821 C.3       1 RES1    0.0000
      6 C2        10.6412    2.0037    1.2679 C.3       1 RES1    0.0000
      7 C3         9.5810    3.0934    1.1081 C.3       1 RES1    0.0000
      8 C4        11.2025    1.6148   -0.0888 C.3       1 RES1    0.0000
      9 C5        11.7830    2.5141    2.1510 C.2       1 RES1    0.0000
     10 C6        12.2980    3.3346    4.3168 C.3       1 RES1    0.0000
     11 C7        11.5928    3.9956    5.4120 C.3       1 RES1    0.0000
     12 H1        10.8453   -0.1289    3.3252 H         1 RES1    0.0000
     13 H2         8.6154    0.5395    0.6157 H         1 RES1    0.0000
     14 H3         9.9614    3.8502    0.6147 H         1 RES1    0.0000
     15 H4         8.8143    2.7343    0.6147 H         1 RES1    0.0000
     16 H5         9.2875    3.3954    1.9931 H         1 RES1    0.0000
     17 H6        11.8543    0.8893    0.0227 H         1 RES1    0.0000
     18 H7        10.4733    1.3110   -0.6690 H         1 RES1    0.0000
     19 H8        11.6425    2.3900   -0.4953 H         1 RES1    0.0000
     20 H9        12.7602    2.5392    4.6523 H         1 RES1    0.0000
     21 H10       12.9517    3.9514    3.9231 H         1 RES1    0.0000
     22 H11       12.2391    4.2718    6.0968 H         1 RES1    0.0000
     23 H12       11.1233    4.7855    5.0697 H         1 RES1    0.0000
     24 H13       10.9447    3.3751    5.8048 H         1 RES1    0.0000
     25 O4         9.0861    1.8881    4.5980 O.3       2 RES2    0.0000
     26 O5         7.3516    3.5834    6.6652 O.3       2 RES2    0.0000
     27 O6         8.1441    1.8873    7.8798 O.2       2 RES2    0.0000
     28 N2         8.3017    0.7837    5.0677 N.3       2 RES2    0.0000
     29 C8         9.2065    0.0000    5.9232 C.3       2 RES2    0.0000
     30 C9         7.1236    1.3854    5.7584 C.3       2 RES2    0.0000
     31 C10        6.2696    0.2799    6.3711 C.3       2 RES2    0.0000
     32 C11        6.2936    2.1359    4.7154 C.3       2 RES2    0.0000
     33 C12        7.6138    2.2943    6.8941 C.2       2 RES2    0.0000
     34 C13        7.7813    4.5186    7.6933 C.3       2 RES2    0.0000
     35 C14        6.8901    5.2937    8.1570 C.3       2 RES2    0.0000
     36 H14        9.2249    1.6203    3.7593 H         2 RES2    0.0000
     37 H15        9.7294    0.6039    6.4895 H         2 RES2    0.0000
     38 H16        5.5018    0.6758    6.8329 H         2 RES2    0.0000
     39 H17        5.9511   -0.3185    5.6627 H         2 RES2    0.0000
     40 H18        6.8073   -0.2320    7.0115 H         2 RES2    0.0000
     41 H19        6.8312    2.8577    4.3296 H         2 RES2    0.0000
     42 H20        6.0229    1.5154    4.0070 H         2 RES2    0.0000
     43 H21        5.4963    2.5115    5.1427 H         2 RES2    0.0000
     44 H22        8.1404    3.9975    8.4402 H         2 RES2    0.0000
     45 H23        8.4902    5.0765    7.3114 H         2 RES2    0.0000
     46 H24        7.3008    5.9271    8.7826 H         2 RES2    0.0000
     47 H25        6.4703    5.7872    7.4229 H         2 RES2    0.0000
     48 H26        6.2107    4.7653    8.6267 H         2 RES2    0.0000
     49 N1D        8.4042   -0.8809    2.0385 N.3       1 RES1    0.0000
     50 H2D        9.7976   -0.5395    0.6157 H         1 RES1    0.0000
     51 O1D        7.3054   -0.0584    2.5250 O.3       1 RES1    0.0000
     52 C2D        7.7718   -2.0037    1.2679 C.3       1 RES1    0.0000
     53 H1D        7.5677    0.1289    3.3252 H         1 RES1    0.0000
     54 C3D        8.8320   -3.0934    1.1081 C.3       1 RES1    0.0000
     55 C4D        7.2105   -1.6148   -0.0888 C.3       1 RES1    0.0000
     56 C5D        6.6300   -2.5141    2.1510 C.2       1 RES1    0.0000
     57 H3D        8.4516   -3.8502    0.6147 H         1 RES1    0.0000
     58 H4D        9.5987   -2.7343    0.6147 H         1 RES1    0.0000
     59 H5D        9.1255   -3.3954    1.9931 H         1 RES1    0.0000
     60 H6D        6.5587   -0.8893    0.0227 H         1 RES1    0.0000
     61 H7D        7.9397   -1.3110   -0.6690 H         1 RES1    0.0000
     62 H8D        6.7705   -2.3900   -0.4953 H         1 RES1    0.0000
     63 O2D        7.0890   -2.9534    3.3202 O.3       1 RES1    0.0000
     64 O3D        5.4758   -2.5482    1.8343 O.2       1 RES1    0.0000
     65 C6D        6.1150   -3.3346    4.3168 C.3       1 RES1    0.0000
     66 C7D        6.8202   -3.9956    5.4120 C.3       1 RES1    0.0000
     67 H9D        5.6528   -2.5392    4.6523 H         1 RES1    0.0000
     68 H10D       5.4613   -3.9514    3.9231 H         1 RES1    0.0000
     69 H11D       6.1739   -4.2718    6.0968 H         1 RES1    0.0000
     70 H12D       7.2897   -4.7855    5.0697 H         1 RES1    0.0000
     71 H13D       7.4683   -3.3751    5.8048 H         1 RES1    0.0000
     72 N2D       10.1113   -0.7837    5.0677 N.3       2 RES2    0.0000
     73 H15D       8.6836   -0.6039    6.4895 H         2 RES2    0.0000
     74 O4D        9.3269   -1.8881    4.5980 O.3       2 RES2    0.0000
     75 C9D       11.2894   -1.3854    5.7584 C.3       2 RES2    0.0000
     76 H14D       9.1881   -1.6203    3.7593 H         2 RES2    0.0000
     77 C10D      12.1434   -0.2799    6.3711 C.3       2 RES2    0.0000
     78 C11D      12.1194   -2.1359    4.7154 C.3       2 RES2    0.0000
     79 C12D      10.7992   -2.2943    6.8941 C.2       2 RES2    0.0000
     80 H16D      12.9112   -0.6758    6.8329 H         2 RES2    0.0000
     81 H17D      12.4619    0.3185    5.6627 H         2 RES2    0.0000
     82 H18D      11.6057    0.2320    7.0115 H         2 RES2    0.0000
     83 H19D      11.5818   -2.8577    4.3296 H         2 RES2    0.0000
     84 H20D      12.3901   -1.5154    4.0070 H         2 RES2    0.0000
     85 H21D      12.9167   -2.5115    5.1427 H         2 RES2    0.0000
     86 O5D       11.0614   -3.5834    6.6652 O.3       2 RES2    0.0000
     87 O6D       10.2689   -1.8873    7.8798 O.2       2 RES2    0.0000
     88 C13D      10.6317   -4.5186    7.6933 C.3       2 RES2    0.0000
     89 C14D      11.5229   -5.2937    8.1570 C.3       2 RES2    0.0000
     90 H22D      10.2726   -3.9975    8.4402 H         2 RES2    0.0000
     91 H23D       9.9228   -5.0765    7.3114 H         2 RES2    0.0000
     92 H24D      11.1122   -5.9271    8.7826 H         2 RES2    0.0000
     93 H25D      11.9427   -5.7872    7.4229 H         2 RES2    0.0000
     94 H26D      12.2023   -4.7653    8.6267 H         2 RES2    0.0000
@<TRIPOS>BOND
     1    1    4 1
     2    2    9 1
     3    3    9 2
     4    4    5 1
     5    5   13 1
     6    6    4 1
     7    7    6 1
     8    8    6 1
     9    9    6 1
    10   10    2 1
    11   11   10 1
    12   12    1 1
    13   14    7 1
    14   15    7 1
    15   16    7 1
    16   17    8 1
    17   18    8 1
    18   19    8 1
    19   20   10 1
    20   21   10 1
    21   22   11 1
    22   23   11 1
    23   24   11 1
    24   25   28 1
    25   26   33 1
    26   27   33 2
    27   28   29 1
    28   29   37 1
    29   30   28 1
    30   31   30 1
    31   32   30 1
    32   33   30 1
    33   34   26 1
    34   35   34 1
    35   36   25 1
    36   38   31 1
    37   39   31 1
    38   40   31 1
    39   41   32 1
    40   42   32 1
    41   43   32 1
    42   44   34 1
    43   45   34 1
    44   46   35 1
    45   47   35 1
    46   48   35 1
    47   49    5 1
    48   50    5 1
    49   51   49 1
    50   52   49 1
    51   53   51 1
    52   54   52 1
    53   55   52 1
    54   56   52 1
    55   57   54 1
    56   58   54 1
    57   59   54 1
    58   60   55 1
    59   61   55 1
    60   62   55 1
    61   63   56 1
    62   64   56 2
    63   65   63 1
    64   66   65 1
    65   67   65 1
    66   68   65 1
    67   69   66 1
    68   70   66 1
    69   71   66 1
    70   72   29 1
    71   73   29 1
    72   74   72 1
    73   75   72 1
    74   76   74 1
    75   77   75 1
    76   78   75 1
    77   79   75 1
    78   80   77 1
    79   81   77 1
    80   82   77 1
    81   83   78 1
    82   84   78 1
    83   85   78 1
    84   86   79 1
    85   87   79 2
    86   88   86 1
    87   89   88 1
    88   90   88 1
    89   91   88 1
    90   92   89 1
    91   93   89 1
    92   94   89 1
@<TRIPOS>SUBSTRUCTURE
     1 RES1 1
     2 RES2 25

@<TRIPOS>CRYSIN
  18.4130   18.4130    9.8670  90.0000  90.0000  90.0000  80 1

