# MOL2 file generated by ConQuest
# Please check atom types

@<TRIPOS>MOLECULE
LEPQAZ
    33    31     2
SMALL
NO_CHARGES
****
Generated from CSD

@<TRIPOS>ATOM
      1 O1         5.1088    5.2556    1.7860 O.2       1 RES1    0.0000
      2 O2        -0.1380    5.4584    6.2914 O.2       1 RES1    0.0000
      3 O3        -1.6179    6.9513    6.8147 O.2       1 RES1    0.0000
      4 N1        -0.5533    6.6204    6.3024 N.pl3     1 RES1    0.0000
      5 C1         4.9847    6.1702    2.5905 C.2       1 RES1    0.0000
      6 C2         3.6553    6.4386    3.2612 C.3       1 RES1    0.0000
      7 H1         3.5690    5.8587    4.0592 H         1 RES1    0.0000
      8 H2         2.9224    6.2093    2.6363 H         1 RES1    0.0000
      9 C3         3.5174    7.8990    3.6835 C.3       1 RES1    0.0000
     10 H3         3.5561    8.4561    2.8544 H         1 RES1    0.0000
     11 C4         4.7167    8.2938    4.5617 C.3       1 RES1    0.0000
     12 H4         4.6814    9.2667    4.7409 H         1 RES1    0.0000
     13 H5         4.6529    7.8214    5.4293 H         1 RES1    0.0000
     14 C5         6.0327    7.9591    3.9138 C.2       1 RES1    0.0000
     15 C6         6.1211    6.9925    2.9890 C.2       1 RES1    0.0000
     16 H6         6.9619    6.8361    2.5749 H         1 RES1    0.0000
     17 C7         2.2173    8.2278    4.3947 C.ar      1 RES1    0.0000
     18 C8         1.4126    7.2611    4.9845 C.ar      1 RES1    0.0000
     19 H7         1.6344    6.3401    4.9137 H         1 RES1    0.0000
     20 C9         0.2793    7.6605    5.6794 C.ar      1 RES1    0.0000
     21 C10       -0.0926    8.9797    5.8201 C.ar      1 RES1    0.0000
     22 H8        -0.8693    9.2238    6.3093 H         1 RES1    0.0000
     23 C11        0.7136    9.9410    5.2168 C.ar      1 RES1    0.0000
     24 H9         0.4804   10.8596    5.2839 H         1 RES1    0.0000
     25 C12        1.8484    9.5732    4.5217 C.ar      1 RES1    0.0000
     26 H10        2.3887   10.2452    4.1225 H         1 RES1    0.0000
     27 C13        7.2165    8.7463    4.3767 C.3       1 RES1    0.0000
     28 H11        6.9321    9.3986    5.0506 H         1 RES1    0.0000
     29 H12        7.6148    9.2171    3.6145 H         1 RES1    0.0000
     30 H13        7.8793    8.1393    4.7683 H         1 RES1    0.0000
     31 H14        8.0183    8.4381    3.9053 Du        2 SUP2    0.0000
     32 H15        7.3356    8.6196    5.3415 Du        2 SUP2    0.0000
     33 H16        7.0711    9.6973    4.1876 Du        2 SUP2    0.0000
@<TRIPOS>BOND
     1    1    5 2
     2    2    4 2
     3    3    4 2
     4    4   20 1
     5    5    6 1
     6    6    7 1
     7    8    6 1
     8    9    6 1
     9   10    9 1
    10   11    9 1
    11   12   11 1
    12   13   11 1
    13   14   11 1
    14   15    5 1
    15   16   15 1
    16   17    9 1
    17   18   17 ar
    18   19   18 1
    19   20   18 ar
    20   21   20 ar
    21   22   21 1
    22   23   21 ar
    23   24   23 1
    24   25   17 ar
    25   26   25 1
    26   27   14 1
    27   28   27 1
    28   29   27 1
    29   30   27 1
    30   14   15 2
    31   23   25 ar
@<TRIPOS>SUBSTRUCTURE
     1 RES1 1
     2 SUP2 31

@<TRIPOS>CRYSIN
  10.5944   11.2733    9.5282  90.0000  97.7030  90.0000  14 1

