# MOL2 file generated by ConQuest
# Please check atom types

@<TRIPOS>MOLECULE
LEPSEE
    40    42     2
SMALL
NO_CHARGES
****
Generated from CSD

@<TRIPOS>ATOM
      1 O1        12.8826    2.6154    1.5580 O.2       1 RES1    0.0000
      2 O2        16.3754    5.4756    2.5256 O.2       1 RES1    0.0000
      3 N1        13.5621    3.6736    1.7937 N.pl3     1 RES1    0.0000
      4 N2        15.2084    5.0362    2.2741 N.pl3     1 RES1    0.0000
      5 N3        18.2527   -0.7634    2.7910 N.3       1 RES1    0.0000
      6 C1        14.8626    3.7269    2.1081 C.2       1 RES1    0.0000
      7 C2        15.7647    2.5719    2.2653 C.ar      1 RES1    0.0000
      8 C3        15.4602    1.3692    1.6261 C.ar      1 RES1    0.0000
      9 C4        16.2894    0.2599    1.7955 C.ar      1 RES1    0.0000
     10 C5        17.4208    0.3524    2.6059 C.ar      1 RES1    0.0000
     11 C6        17.7253    1.5551    3.2452 C.ar      1 RES1    0.0000
     12 C7        16.8961    2.6644    3.0757 C.ar      1 RES1    0.0000
     13 C8        12.8706    5.0112    1.7728 C.2       1 RES1    0.0000
     14 C9        14.0596    5.9791    2.0610 C.2       1 RES1    0.0000
     15 C10       11.8145    4.9710    2.8819 C.3       1 RES1    0.0000
     16 C11       12.2369    5.1656    0.4087 C.3       1 RES1    0.0000
     17 C12       14.4274    6.8708    0.8611 C.3       1 RES1    0.0000
     18 C13       13.9194    6.8186    3.3430 C.3       1 RES1    0.0000
     19 C14       17.9320   -2.0456    2.1675 C.3       1 RES1    0.0000
     20 C15       19.4146   -0.6927    3.6294 C.3       1 RES1    0.0000
     21 O3        20.3021    5.4984    6.5637 O.2       2 RES2    0.0000
     22 O4        16.7657    2.5698    7.0964 O.2       2 RES2    0.0000
     23 N4        19.1235    5.0319    6.7383 N.pl3     2 RES2    0.0000
     24 N5        17.4638    3.6388    7.0178 N.pl3     2 RES2    0.0000
     25 N6        22.2356   -0.7341    6.1672 N.3       2 RES2    0.0000
     26 C16       18.7845    3.7182    6.7872 C.2       2 RES2    0.0000
     27 C17       19.6934    2.5654    6.6248 C.ar      2 RES2    0.0000
     28 C18       19.3305    1.3268    7.1540 C.ar      2 RES2    0.0000
     29 C19       20.1799    0.2306    7.0090 C.ar      2 RES2    0.0000
     30 C20       21.3914    0.3719    6.3331 C.ar      2 RES2    0.0000
     31 C21       21.7542    1.6106    5.8039 C.ar      2 RES2    0.0000
     32 C22       20.9056    2.7079    5.9506 C.ar      2 RES2    0.0000
     33 C23       17.9415    5.9584    6.8623 C.2       2 RES2    0.0000
     34 C24       16.7890    4.9677    7.2326 C.2       2 RES2    0.0000
     35 C25       18.2522    6.9970    7.9487 C.3       2 RES2    0.0000
     36 C26       17.7807    6.6435    5.4895 C.3       2 RES2    0.0000
     37 C27       15.5801    5.0210    6.2912 C.3       2 RES2    0.0000
     38 C28       16.3555    5.0221    8.6770 C.3       2 RES2    0.0000
     39 C29       21.8678   -2.0499    6.6492 C.3       2 RES2    0.0000
     40 C30       23.5612   -0.5731    5.6065 C.3       2 RES2    0.0000
@<TRIPOS>BOND
     1    1    3 2
     2    2    4 1
     3    3    6 1
     4    4    6 2
     5    5   10 1
     6    6    7 1
     7    7    8 ar
     8    8    9 ar
     9    9   10 ar
    10   10   11 ar
    11   11   12 ar
    12   12    7 ar
    13   13    3 1
    14   14    4 1
    15   15   13 1
    16   16   13 1
    17   17   14 1
    18   18   14 1
    19   19    5 1
    20   20    5 1
    21   21   23 2
    22   22   24 1
    23   23   26 1
    24   24   26 2
    25   25   30 1
    26   26   27 1
    27   27   28 ar
    28   28   29 ar
    29   29   30 ar
    30   30   31 ar
    31   31   32 ar
    32   32   27 ar
    33   33   23 1
    34   34   24 1
    35   35   33 1
    36   36   33 1
    37   37   34 1
    38   38   34 1
    39   39   25 1
    40   40   25 1
    41   13   14 2
    42   33   34 2
@<TRIPOS>SUBSTRUCTURE
     1 RES1 1
     2 RES2 21

@<TRIPOS>CRYSIN
  15.7420   10.8750   19.0110  90.0000 113.2600  90.0000  14 1

