# MOL2 file generated by ConQuest
# Please check atom types

@<TRIPOS>MOLECULE
LEPSIJ
    59    62     1
SMALL
NO_CHARGES
****
Generated from CSD

@<TRIPOS>ATOM
      1 O1         2.8721    3.3178   10.1477 O.2       1 RES1    0.0000
      2 O2         2.2971    3.5109    8.0798 O.2       1 RES1    0.0000
      3 O3         3.9465    1.6813    6.8831 O.3       1 RES1    0.0000
      4 O4         6.0748    2.2287    4.9902 O.3       1 RES1    0.0000
      5 O5         8.3807   -0.6444    7.1197 O.2       1 RES1    0.0000
      6 N1         2.6363    2.8463    9.0399 N.pl3     1 RES1    0.0000
      7 N2         9.9687    1.7517    5.8555 N.2       1 RES1    0.0000
      8 N3        11.8220   -0.7816    7.5763 N.3       1 RES1    0.0000
      9 N4        10.5290   -1.3450    7.6447 N.am      1 RES1    0.0000
     10 C1         2.7532    1.3926    8.8913 C.ar      1 RES1    0.0000
     11 C2         2.2267    0.6245    9.8974 C.ar      1 RES1    0.0000
     12 H1         1.8323    1.0250   10.6385 H         1 RES1    0.0000
     13 C3         2.2889   -0.7421    9.7957 C.ar      1 RES1    0.0000
     14 H2         1.9262   -1.2785   10.4635 H         1 RES1    0.0000
     15 C4         2.8902   -1.3152    8.7016 C.ar      1 RES1    0.0000
     16 H3         2.9387   -2.2429    8.6361 H         1 RES1    0.0000
     17 C5         3.4204   -0.5364    7.7024 C.ar      1 RES1    0.0000
     18 H4         3.8227   -0.9405    6.9672 H         1 RES1    0.0000
     19 C6         3.3608    0.8431    7.7816 C.ar      1 RES1    0.0000
     20 C7         3.9927    1.2812    5.5290 C.3       1 RES1    0.0000
     21 H5         3.0926    1.1462    5.1946 H         1 RES1    0.0000
     22 H6         4.4767    0.4445    5.4488 H         1 RES1    0.0000
     23 C8         4.6765    2.3406    4.7351 C.3       1 RES1    0.0000
     24 H7         4.4971    2.2190    3.7886 H         1 RES1    0.0000
     25 H8         4.3550    3.2164    4.9990 H         1 RES1    0.0000
     26 C9         6.9168    3.1743    4.4613 C.ar      1 RES1    0.0000
     27 C10        6.5009    4.1650    3.5970 C.ar      1 RES1    0.0000
     28 H9         5.6108    4.2138    3.3330 H         1 RES1    0.0000
     29 C11        7.4197    5.0891    3.1248 C.ar      1 RES1    0.0000
     30 H10        7.1419    5.7642    2.5489 H         1 RES1    0.0000
     31 C12        8.7384    5.0136    3.5002 C.ar      1 RES1    0.0000
     32 H11        9.3476    5.6448    3.1903 H         1 RES1    0.0000
     33 C13        9.1540    4.0133    4.3264 C.ar      1 RES1    0.0000
     34 H12       10.0499    3.9659    4.5708 H         1 RES1    0.0000
     35 C14        8.2620    3.0562    4.8143 C.ar      1 RES1    0.0000
     36 C15        8.7212    1.9354    5.6238 C.2       1 RES1    0.0000
     37 H13        8.0986    1.3428    5.9797 H         1 RES1    0.0000
     38 C16       10.3868    0.6231    6.5575 C.2       1 RES1    0.0000
     39 C17       11.6881    0.3681    6.8371 C.2       1 RES1    0.0000
     40 C18        9.6011   -0.4726    7.0953 C.2       1 RES1    0.0000
     41 C19       12.8989    1.1664    6.4597 C.3       1 RES1    0.0000
     42 H14       13.4381    0.6594    5.8477 H         1 RES1    0.0000
     43 H15       13.4095    1.3648    7.2478 H         1 RES1    0.0000
     44 H16       12.6243    1.9857    6.0403 H         1 RES1    0.0000
     45 C20       12.8852   -1.7456    7.2791 C.3       1 RES1    0.0000
     46 H17       12.7315   -2.1345    6.4158 H         1 RES1    0.0000
     47 H18       12.8860   -2.4357    7.9459 H         1 RES1    0.0000
     48 H19       13.7342   -1.2969    7.2820 H         1 RES1    0.0000
     49 C21       10.2455   -2.3325    8.6332 C.ar      1 RES1    0.0000
     50 C22        9.2706   -3.2664    8.3692 C.ar      1 RES1    0.0000
     51 H20        8.7943   -3.2366    7.5704 H         1 RES1    0.0000
     52 C23        9.0095   -4.2482    9.3059 C.ar      1 RES1    0.0000
     53 H21        8.3467   -4.8788    9.1416 H         1 RES1    0.0000
     54 C24        9.7247   -4.2965   10.4781 C.ar      1 RES1    0.0000
     55 H22        9.5632   -4.9725   11.0961 H         1 RES1    0.0000
     56 C25       10.6773   -3.3450   10.7353 C.ar      1 RES1    0.0000
     57 H23       11.1492   -3.3725   11.5360 H         1 RES1    0.0000
     58 C26       10.9442   -2.3533    9.8250 C.ar      1 RES1    0.0000
     59 H24       11.5855   -1.7046   10.0079 H         1 RES1    0.0000
@<TRIPOS>BOND
     1    1    6 2
     2    2    6 2
     3    3   19 1
     4    4   23 1
     5    5   40 2
     6    6   10 1
     7    7   36 2
     8    8    9 1
     9    9   40 1
    10   10   11 ar
    11   11   12 1
    12   13   11 ar
    13   14   13 1
    14   15   13 ar
    15   16   15 1
    16   17   15 ar
    17   18   17 1
    18   19   10 ar
    19   20    3 1
    20   21   20 1
    21   22   20 1
    22   23   20 1
    23   24   23 1
    24   25   23 1
    25   26    4 1
    26   27   26 ar
    27   28   27 1
    28   29   27 ar
    29   30   29 1
    30   31   29 ar
    31   32   31 1
    32   33   31 ar
    33   34   33 1
    34   35   26 ar
    35   36   35 1
    36   37   36 1
    37   38    7 1
    38   39    8 1
    39   40   38 1
    40   41   39 1
    41   42   41 1
    42   43   41 1
    43   44   41 1
    44   45    8 1
    45   46   45 1
    46   47   45 1
    47   48   45 1
    48   49    9 1
    49   50   49 ar
    50   51   50 1
    51   52   50 ar
    52   53   52 1
    53   54   52 ar
    54   55   54 1
    55   56   54 ar
    56   57   56 1
    57   58   49 ar
    58   59   58 1
    59   17   19 ar
    60   33   35 ar
    61   38   39 2
    62   56   58 ar
@<TRIPOS>SUBSTRUCTURE
     1 RES1 1

@<TRIPOS>CRYSIN
  13.2550   18.3690   10.0400  90.0000 103.1400  90.0000  14 1

