# MOL2 file generated by ConQuest
# Please check atom types

@<TRIPOS>MOLECULE
LEPSEE01
    42    43     1
SMALL
NO_CHARGES
****
Generated from CSD

@<TRIPOS>ATOM
      1 C1        -1.6539   -0.6510    1.7558 C.ar      1 RES1    0.0000
      2 H1        -1.2575   -0.2481    0.9929 H         1 RES1    0.0000
      3 C2        -2.2781   -1.8746    1.6335 C.ar      1 RES1    0.0000
      4 H2        -2.3153   -2.2916    0.7808 H         1 RES1    0.0000
      5 C3        -2.8646   -2.5265    2.7438 C.ar      1 RES1    0.0000
      6 C4        -2.7885   -1.8557    3.9979 C.ar      1 RES1    0.0000
      7 H3        -3.1573   -2.2670    4.7705 H         1 RES1    0.0000
      8 C5        -2.1883   -0.6283    4.1085 C.ar      1 RES1    0.0000
      9 H4        -2.1714   -0.1972    4.9549 H         1 RES1    0.0000
     10 C6        -1.5992    0.0132    3.0035 C.ar      1 RES1    0.0000
     11 C7        -0.9092    1.2698    3.1500 C.2       1 RES1    0.0000
     12 C8         0.4862    3.1331    2.7052 C.3       1 RES1    0.0000
     13 C9        -0.2997    4.0595    1.7834 C.3       1 RES1    0.0000
     14 H5        -0.1213    3.8190    0.8495 H         1 RES1    0.0000
     15 H6        -0.0248    4.9869    1.9400 H         1 RES1    0.0000
     16 H7        -1.2581    3.9671    1.9665 H         1 RES1    0.0000
     17 C10        1.9892    3.3227    2.4955 C.3       1 RES1    0.0000
     18 H8         2.4772    2.6170    2.9691 H         1 RES1    0.0000
     19 H9         2.2602    4.1973    2.8450 H         1 RES1    0.0000
     20 H10        2.1934    3.2756    1.5388 H         1 RES1    0.0000
     21 C11        0.0359    3.1991    4.1895 C.3       1 RES1    0.0000
     22 C12        1.0719    2.6463    5.1778 C.3       1 RES1    0.0000
     23 H11        0.6554    2.5312    6.0575 H         1 RES1    0.0000
     24 H12        1.8216    3.2746    5.2501 H         1 RES1    0.0000
     25 H13        1.4013    1.7812    4.8561 H         1 RES1    0.0000
     26 C13       -0.4732    4.5445    4.6476 C.3       1 RES1    0.0000
     27 H14       -1.2009    4.8360    4.0584 H         1 RES1    0.0000
     28 H15        0.2546    5.1982    4.6139 H         1 RES1    0.0000
     29 H16       -0.8057    4.4728    5.5670 H         1 RES1    0.0000
     30 C14       -3.9048   -4.1926    1.2954 C.3       1 RES1    0.0000
     31 H17       -4.5419   -3.5416    0.9363 H         1 RES1    0.0000
     32 H18       -4.3366   -5.0690    1.3640 H         1 RES1    0.0000
     33 H19       -3.1305   -4.2567    0.6965 H         1 RES1    0.0000
     34 C15       -4.2271   -4.2935    3.7487 C.3       1 RES1    0.0000
     35 H20       -3.6508   -4.3473    4.5392 H         1 RES1    0.0000
     36 H21       -4.5609   -5.1869    3.5258 H         1 RES1    0.0000
     37 H22       -4.9855   -3.7001    3.9379 H         1 RES1    0.0000
     38 N1         0.0857    1.7416    2.3456 N.pl3     1 RES1    0.0000
     39 N2        -1.0838    2.1906    4.1514 N.pl3     1 RES1    0.0000
     40 N3        -3.4603   -3.7614    2.6217 N.3       1 RES1    0.0000
     41 O1         0.5870    1.1557    1.3120 O.2       1 RES1    0.0000
     42 O2        -1.9742    2.1387    5.0805 O.2       1 RES1    0.0000
@<TRIPOS>BOND
     1    1    2 1
     2    3    1 ar
     3    4    3 1
     4    5    3 ar
     5    6    5 ar
     6    7    6 1
     7    8    6 ar
     8    9    8 1
     9   10    1 ar
    10   11   10 1
    11   12   13 1
    12   13   14 1
    13   15   13 1
    14   16   13 1
    15   17   12 1
    16   18   17 1
    17   19   17 1
    18   20   17 1
    19   21   12 1
    20   22   21 1
    21   23   22 1
    22   24   22 1
    23   25   22 1
    24   26   21 1
    25   27   26 1
    26   28   26 1
    27   29   26 1
    28   30   31 1
    29   32   30 1
    30   33   30 1
    31   34   35 1
    32   36   34 1
    33   37   34 1
    34   38   11 1
    35   39   11 2
    36   40    5 1
    37   41   38 2
    38   42   39 1
    39    8   10 ar
    40   12   38 1
    41   21   39 1
    42   30   40 1
    43   34   40 1
@<TRIPOS>SUBSTRUCTURE
     1 RES1 1

@<TRIPOS>CRYSIN
  13.0181    9.4342   13.5047  90.0000 116.8400  90.0000 231 1

