# MOL2 file generated by ConQuest
# Please check atom types

@<TRIPOS>MOLECULE
LEPTEF
    25    23     2
SMALL
NO_CHARGES
****
Generated from CSD

@<TRIPOS>ATOM
      1 O1         5.4267    9.4478    8.5489 O.2       1 RES1    0.0000
      2 O2         6.3713   10.8676    7.2188 O.2       1 RES1    0.0000
      3 N1         5.3193    4.7063    3.4125 N.2       1 RES1    0.0000
      4 N2         6.3035    6.1774    2.0042 N.2       1 RES1    0.0000
      5 N3         5.9005    9.7580    7.4610 N.pl3     1 RES1    0.0000
      6 C1         5.8155    5.9074    3.2666 C.2       1 RES1    0.0000
      7 O3         5.4970    4.1282    2.1310 O.3       1 RES1    0.0000
      8 C2         5.8866    8.7514    6.3826 C.ar      1 RES1    0.0000
      9 C3         6.2089    9.1628    5.1011 C.ar      1 RES1    0.0000
     10 C4         6.1803    8.2203    4.0866 C.ar      1 RES1    0.0000
     11 C5         5.8409    6.8934    4.3641 C.ar      1 RES1    0.0000
     12 C6         5.5308    6.5103    5.6751 C.ar      1 RES1    0.0000
     13 C7         5.5517    7.4407    6.6963 C.ar      1 RES1    0.0000
     14 C8         6.0841    5.0665    1.3692 C.2       1 RES1    0.0000
     15 C9         6.4028    4.7154   -0.0324 C.3       1 RES1    0.0000
     16 H1         6.4426   10.0655    4.9228 H         1 RES1    0.0000
     17 H2         6.3917    8.4772    3.1961 H         1 RES1    0.0000
     18 H3         5.3050    5.6069    5.8629 H         1 RES1    0.0000
     19 H4         5.3425    7.1902    7.5887 H         1 RES1    0.0000
     20 H5         6.6610    3.7710   -0.0820 H         1 RES1    0.0000
     21 H6         7.1434    5.2737   -0.3490 H         1 RES1    0.0000
     22 H7         5.6152    4.8678   -0.5950 H         1 RES1    0.0000
     23 H8         6.3027    5.4879   -0.5816 Du        2 SUP2    0.0000
     24 H9         5.8069    3.9736   -0.3909 Du        2 SUP2    0.0000
     25 H10        7.4239    4.3835   -0.0067 Du        2 SUP2    0.0000
@<TRIPOS>BOND
     1    1    5 2
     2    2    5 2
     3    3    6 2
     4    4    6 1
     5    5    8 1
     6    6   11 1
     7    7    3 1
     8    8    9 ar
     9    9   10 ar
    10   10   11 ar
    11   11   12 ar
    12   12   13 ar
    13   13    8 ar
    14   14    4 2
    15   15   14 1
    16   16    9 1
    17   17   10 1
    18   18   12 1
    19   19   13 1
    20   20   15 1
    21   21   15 1
    22   22   15 1
    23    7   14 1
@<TRIPOS>SUBSTRUCTURE
     1 RES1 1
     2 SUP2 23

@<TRIPOS>CRYSIN
   7.0880    7.3360   10.1070  76.4700  72.3800  69.2800   2 1

