# MOL2 file generated by ConQuest
# Please check atom types

@<TRIPOS>MOLECULE
LEPVIL
    33    35     1
SMALL
NO_CHARGES
****
Generated from CSD

@<TRIPOS>ATOM
      1 C1         8.3523    4.6500    6.0239 C.3       1 RES1    0.0000
      2 C2         7.1959    4.3455    5.1314 C.2       1 RES1    0.0000
      3 C3         7.2919    3.5858    3.8473 C.3       1 RES1    0.0000
      4 C4         5.8628    3.7432    3.3082 C.3       1 RES1    0.0000
      5 C5         5.3323    2.3833    2.8556 C.3       1 RES1    0.0000
      6 C6         6.2701    1.3695    3.4684 C.3       1 RES1    0.0000
      7 C7         7.4799    2.0840    4.0558 C.3       1 RES1    0.0000
      8 C8         7.6604    1.1920    2.8683 C.3       1 RES1    0.0000
      9 C9         8.3256   -0.1277    3.1709 C.3       1 RES1    0.0000
     10 C10        7.9806    1.7491    1.5003 C.3       1 RES1    0.0000
     11 C11        4.7229    5.1365    1.7266 C.2       1 RES1    0.0000
     12 C12        4.9034    6.3449    0.8544 C.3       1 RES1    0.0000
     13 N1         6.0115    4.7095    5.4314 N.2       1 RES1    0.0000
     14 O1         5.1105    4.2237    4.4143 O.3       1 RES1    0.0000
     15 O2         5.8952    4.7830    2.2936 O.3       1 RES1    0.0000
     16 O3         3.6885    4.5572    1.9046 O.2       1 RES1    0.0000
     17 H1         8.7558    3.8561    6.3672 H         1 RES1    0.0000
     18 H2         9.1625    5.0429    5.4543 H         1 RES1    0.0000
     19 H3         8.1014    5.4484    6.7562 H         1 RES1    0.0000
     20 H4         7.9889    3.9757    3.2675 H         1 RES1    0.0000
     21 H5         5.2071    2.3804    1.8054 H         1 RES1    0.0000
     22 H6         4.4408    2.3328    3.2573 H         1 RES1    0.0000
     23 H7         5.7656    0.6202    3.9083 H         1 RES1    0.0000
     24 H8         7.8707    1.8003    4.9025 H         1 RES1    0.0000
     25 H9         8.0054   -0.8838    2.5682 H         1 RES1    0.0000
     26 H10        9.3277    0.0297    3.2650 H         1 RES1    0.0000
     27 H11        7.8917   -0.3669    4.0481 H         1 RES1    0.0000
     28 H12        7.6464    0.9752    0.9332 H         1 RES1    0.0000
     29 H13        7.4996    2.6819    1.4341 H         1 RES1    0.0000
     30 H14        8.9344    1.9607    1.4519 H         1 RES1    0.0000
     31 H15        5.7694    6.8923    1.1366 H         1 RES1    0.0000
     32 H16        5.3977    5.8458    0.0610 H         1 RES1    0.0000
     33 H17        3.8696    6.4763    0.6179 H         1 RES1    0.0000
@<TRIPOS>BOND
     1    1    2 1
     2    2    3 1
     3    3    4 1
     4    4    5 1
     5    5    6 1
     6    6    7 1
     7    7    3 1
     8    8    6 1
     9    9    8 1
    10   10    8 1
    11   11   12 1
    12   12   31 1
    13   13    2 2
    14   14    4 1
    15   15    4 1
    16   16   11 2
    17   17    1 1
    18   18    1 1
    19   19    1 1
    20   20    3 1
    21   21    5 1
    22   22    5 1
    23   23    6 1
    24   24    7 1
    25   25    9 1
    26   26    9 1
    27   27    9 1
    28   28   10 1
    29   29   10 1
    30   30   10 1
    31   32   12 1
    32   33   12 1
    33    7    8 1
    34   11   15 1
    35   13   14 1
@<TRIPOS>SUBSTRUCTURE
     1 RES1 1

@<TRIPOS>CRYSIN
   6.3540    7.4270   25.4280  90.0000  90.0000  90.0000  19 1

