# MOL2 file generated by ConQuest
# Please check atom types

@<TRIPOS>MOLECULE
LEQMOK
    46    48     2
SMALL
NO_CHARGES
****
Generated from CSD

@<TRIPOS>ATOM
      1 O1         2.2476    3.6573    3.1975 O.2       1 RES1    0.0000
      2 N1         0.2943    3.0211    2.1756 N.am      1 RES1    0.0000
      3 C1         2.2381    2.4536    1.0652 C.2       1 RES1    0.0000
      4 C2         1.0799    2.0654    0.2497 C.ar      1 RES1    0.0000
      5 C3         0.9355    1.4085   -0.9617 C.ar      1 RES1    0.0000
      6 H1         1.6784    1.1444   -1.4548 H         1 RES1    0.0000
      7 C4         3.5496    2.2433    0.8701 C.2       1 RES1    0.0000
      8 C5         3.9217    2.3558   -1.6078 C.ar      1 RES1    0.0000
      9 H2         3.4819    3.1744   -1.6236 H         1 RES1    0.0000
     10 O2        -1.6020    0.1132   -3.0558 O.2       1 RES1    0.0000
     11 N2        -0.4796    0.4651   -2.7047 N.pl3     1 RES1    0.0000
     12 C6         4.0904    1.6850   -0.4031 C.ar      1 RES1    0.0000
     13 C7        -0.3435    1.1575   -1.4163 C.ar      1 RES1    0.0000
     14 C8        -1.3486    2.1347    0.5122 C.ar      1 RES1    0.0000
     15 H3        -2.1005    2.3704    1.0072 H         1 RES1    0.0000
     16 C9         1.6710    3.1028    2.2859 C.2       1 RES1    0.0000
     17 O3         0.5154    0.2457   -3.3664 O.2       1 RES1    0.0000
     18 C10       -0.0707    2.4066    0.9841 C.ar      1 RES1    0.0000
     19 C11        4.5679    2.4197    1.9560 C.ar      1 RES1    0.0000
     20 C12       -1.4736    1.5079   -0.7080 C.ar      1 RES1    0.0000
     21 H4        -2.3173    1.3223   -1.0530 H         1 RES1    0.0000
     22 C13       -0.6237    3.4632    3.2153 C.3       1 RES1    0.0000
     23 H5        -1.2461    4.0939    2.8454 H         1 RES1    0.0000
     24 H6        -0.1279    3.8806    3.9241 H         1 RES1    0.0000
     25 H7        -1.1018    2.7069    3.5627 H         1 RES1    0.0000
     26 C14        5.7259    1.4393    3.8341 C.ar      1 RES1    0.0000
     27 H8         5.7894    0.7586    4.4653 H         1 RES1    0.0000
     28 C15        5.4991    3.4339    1.9942 C.ar      1 RES1    0.0000
     29 C16        4.7760    0.4844   -0.4005 C.ar      1 RES1    0.0000
     30 H9         4.9232    0.0377    0.4018 H         1 RES1    0.0000
     31 C17        4.6963    1.4224    2.9096 C.ar      1 RES1    0.0000
     32 H10        4.0789    0.7278    2.9280 H         1 RES1    0.0000
     33 C18        4.4047    1.8121   -2.7823 C.ar      1 RES1    0.0000
     34 H11        4.2857    2.2641   -3.5866 H         1 RES1    0.0000
     35 C19        6.5346    3.4516    2.9105 C.ar      1 RES1    0.0000
     36 H12        7.1544    4.1455    2.9041 H         1 RES1    0.0000
     37 C20        6.6415    2.4366    3.8295 C.ar      1 RES1    0.0000
     38 H13        7.3391    2.4343    4.4452 H         1 RES1    0.0000
     39 C21        5.0596    0.6068   -2.7647 C.ar      1 RES1    0.0000
     40 H14        5.3802    0.2380   -3.5554 H         1 RES1    0.0000
     41 C22        5.2409   -0.0516   -1.5750 C.ar      1 RES1    0.0000
     42 H15        5.6817   -0.8702   -1.5649 H         1 RES1    0.0000
     43 N3         5.4080    4.5475    1.0365 N.pl3     1 RES1    0.0000
     44 O4         4.4469    4.7108    0.3816 O.2       1 RES1    0.0000
     45 O5         6.4767    5.0850    0.5907 O.2       1 RES1    0.0000
     46 O6         5.7734    5.6334    1.6860 Du        2 SUP2    0.0000
@<TRIPOS>BOND
     1    1   16 2
     2    2   16 1
     3    3    4 1
     4    4    5 ar
     5    5    6 1
     6    7    3 2
     7    8    9 1
     8   10   11 2
     9   11   13 1
    10   12    7 1
    11   13    5 ar
    12   14   15 1
    13   16    3 1
    14   17   11 2
    15   18    2 1
    16   19    7 1
    17   20   13 ar
    18   21   20 1
    19   22    2 1
    20   23   22 1
    21   24   22 1
    22   25   22 1
    23   26   27 1
    24   28   19 ar
    25   29   12 ar
    26   30   29 1
    27   31   19 ar
    28   32   31 1
    29   33    8 ar
    30   34   33 1
    31   35   28 ar
    32   36   35 1
    33   37   26 ar
    34   38   37 1
    35   39   33 ar
    36   40   39 1
    37   41   29 ar
    38   42   41 1
    39   43   28 1
    40   44   43 2
    41   45   43 2
    42    4   18 ar
    43    8   12 ar
    44   14   18 ar
    45   14   20 ar
    46   26   31 ar
    47   35   37 ar
    48   39   41 ar
@<TRIPOS>SUBSTRUCTURE
     1 RES1 1
     2 SUP2 46

@<TRIPOS>CRYSIN
  13.7213    7.7011   19.5546  90.0000 110.2520  90.0000  14 1

