# MOL2 file generated by ConQuest
# Please check atom types

@<TRIPOS>MOLECULE
LEQPOP
   112   118     2
SMALL
NO_CHARGES
****
Generated from CSD

@<TRIPOS>ATOM
      1 C1         2.0909    6.1774    7.1981 C.3       1 RES1    0.0000
      2 H1         2.5109    6.1654    8.0836 H         1 RES1    0.0000
      3 C2         1.1355    4.9210    6.9759 C.3       1 RES1    0.0000
      4 H2         1.1205    4.3245    7.7537 H         1 RES1    0.0000
      5 C3         2.4393    6.8279    4.9463 C.3       1 RES1    0.0000
      6 H3         3.0672    7.4403    4.5106 H         1 RES1    0.0000
      7 C4         1.0117    4.9494    4.5835 C.3       1 RES1    0.0000
      8 H4         0.6923    4.3078    3.9151 H         1 RES1    0.0000
      9 C5         1.2279    7.6357    5.5214 C.3       1 RES1    0.0000
     10 H5         1.3391    8.5923    5.3352 H         1 RES1    0.0000
     11 C6        -0.1843    5.7479    5.1842 C.3       1 RES1    0.0000
     12 H6        -1.0229    5.4524    4.7710 H         1 RES1    0.0000
     13 C7         3.0292    5.2140    3.2084 C.3       1 RES1    0.0000
     14 H7         3.0072    4.2555    3.3577 H         1 RES1    0.0000
     15 H8         3.8909    5.5428    3.5088 H         1 RES1    0.0000
     16 C8         2.8779    5.4922    1.7188 C.3       1 RES1    0.0000
     17 C9        -1.1568    8.0166    5.2536 C.3       1 RES1    0.0000
     18 H9        -0.9061    8.6903    5.9047 H         1 RES1    0.0000
     19 H10       -1.8691    7.4795    5.6356 H         1 RES1    0.0000
     20 C10       -1.6573    8.6949    3.9897 C.3       1 RES1    0.0000
     21 N1         3.0863    6.2026    6.1250 N.3       1 RES1    0.0000
     22 N2         1.5657    4.2347    5.7634 N.3       1 RES1    0.0000
     23 N3         1.9740    5.8464    3.9965 N.3       1 RES1    0.0000
     24 N4         1.3215    7.3840    6.9846 N.3       1 RES1    0.0000
     25 N5        -0.1849    5.3983    6.6268 N.3       1 RES1    0.0000
     26 N6        -0.0048    7.1639    4.9687 N.3       1 RES1    0.0000
     27 N7         4.3586    6.7193    6.4690 N.pl3     1 RES1    0.0000
     28 N8         1.5349    2.8373    5.7363 N.pl3     1 RES1    0.0000
     29 N9         1.4009    8.4341    7.8579 N.pl3     1 RES1    0.0000
     30 N10       -1.2905    4.7096    7.1270 N.pl3     1 RES1    0.0000
     31 N11        2.5313    6.8941    1.4098 N.pl3     1 RES1    0.0000
     32 N12        4.3117    5.2551    1.0382 N.pl3     1 RES1    0.0000
     33 N13        2.0395    4.4600    1.0365 N.pl3     1 RES1    0.0000
     34 N14       -2.4784    9.9364    4.3022 N.pl3     1 RES1    0.0000
     35 N15       -0.5106    9.1475    3.0956 N.pl3     1 RES1    0.0000
     36 N16       -2.5655    7.7884    3.1546 N.pl3     1 RES1    0.0000
     37 O1         4.6552    6.7604    7.6305 O.2       1 RES1    0.0000
     38 O2         5.0672    7.0071    5.5196 O.2       1 RES1    0.0000
     39 O3         1.4499    2.2580    6.7901 O.2       1 RES1    0.0000
     40 O4         1.6706    2.3320    4.6425 O.2       1 RES1    0.0000
     41 O5         1.9056    8.2253    8.9444 O.2       1 RES1    0.0000
     42 O6         0.8841    9.4763    7.4968 O.2       1 RES1    0.0000
     43 O7        -1.1104    4.0422    8.1329 O.2       1 RES1    0.0000
     44 O8        -2.3444    4.9068    6.5783 O.2       1 RES1    0.0000
     45 O9         2.9305    7.7514    2.0730 O.2       1 RES1    0.0000
     46 O10        1.5868    6.9378    0.5868 O.2       1 RES1    0.0000
     47 O11        4.9299    4.4014    1.4480 O.2       1 RES1    0.0000
     48 O12        4.6004    6.0904    0.2066 O.2       1 RES1    0.0000
     49 O13        1.0057    4.2487    1.6303 O.2       1 RES1    0.0000
     50 O14        2.4236    4.1405   -0.1129 O.2       1 RES1    0.0000
     51 O15       -3.1026    9.9015    5.3266 O.2       1 RES1    0.0000
     52 O16       -2.4326   10.8393    3.5036 O.2       1 RES1    0.0000
     53 O17        0.2810    9.8543    3.6616 O.2       1 RES1    0.0000
     54 O18       -0.4994    8.7702    1.9601 O.2       1 RES1    0.0000
     55 O19       -2.2770    6.6396    3.1008 O.2       1 RES1    0.0000
     56 O20       -3.5476    8.2795    2.6650 O.2       1 RES1    0.0000
     57 C11        3.9238   12.4001    6.9985 C.3       2 RES2    0.0000
     58 H11        3.9322   11.7959    7.7711 H         2 RES2    0.0000
     59 C12        2.9878   13.6634    7.2381 C.3       2 RES2    0.0000
     60 H12        2.5650   13.6438    8.1218 H         2 RES2    0.0000
     61 C13        4.0533   12.4514    4.6147 C.3       2 RES2    0.0000
     62 H13        4.3600   11.8081    3.9411 H         2 RES2    0.0000
     63 C14        2.6574   14.3436    4.9792 C.3       2 RES2    0.0000
     64 H14        2.0384   14.9681    4.5453 H         2 RES2    0.0000
     65 C15        5.2779   13.2334    5.2120 C.3       2 RES2    0.0000
     66 H15        6.1116   12.9317    4.7953 H         2 RES2    0.0000
     67 C16        3.8764   15.1286    5.5790 C.3       2 RES2    0.0000
     68 H16        3.7760   16.0873    5.4047 H         2 RES2    0.0000
     69 C17        2.0819   12.7854    3.1876 C.3       2 RES2    0.0000
     70 H17        1.2152   13.1235    3.4637 H         2 RES2    0.0000
     71 H18        2.0779   11.8223    3.3039 H         2 RES2    0.0000
     72 C18        2.3053   13.1132    1.7275 C.3       2 RES2    0.0000
     73 C19        6.2672   15.4900    5.3109 C.3       2 RES2    0.0000
     74 H19        6.9723   14.9439    5.6929 H         2 RES2    0.0000
     75 H20        6.0246   16.1681    5.9603 H         2 RES2    0.0000
     76 C20        6.7732   16.1573    4.0366 C.3       2 RES2    0.0000
     77 N17        3.4945   11.7345    5.7906 N.3       2 RES2    0.0000
     78 N18        2.0022   13.7150    6.1592 N.3       2 RES2    0.0000
     79 N19        3.1192   13.3693    4.0298 N.3       2 RES2    0.0000
     80 N20        5.2622   12.8701    6.6556 N.3       2 RES2    0.0000
     81 N21        3.7673   14.8630    7.0365 N.3       2 RES2    0.0000
     82 N22        5.1043   14.6537    5.0153 N.3       2 RES2    0.0000
     83 N23        3.5400   10.3348    5.7363 N.pl3     2 RES2    0.0000
     84 N24        0.7255   14.2079    6.5002 N.pl3     2 RES2    0.0000
     85 N25        6.3543   12.1761    7.1652 N.pl3     2 RES2    0.0000
     86 N26        3.6536   15.9192    7.9095 N.pl3     2 RES2    0.0000
     87 N27        3.7701   12.8045    1.3212 N.pl3     2 RES2    0.0000
     88 N28        1.4217   12.2828    0.8559 N.pl3     2 RES2    0.0000
     89 N29        2.0541   14.5692    1.3612 N.pl3     2 RES2    0.0000
     90 N30        7.5654   17.4117    4.3387 N.pl3     2 RES2    0.0000
     91 N31        7.6915   15.2678    3.2119 N.pl3     2 RES2    0.0000
     92 N32        5.6259   16.5992    3.1390 N.pl3     2 RES2    0.0000
     93 O21        3.6293    9.7376    6.7919 O.2       2 RES2    0.0000
     94 O22        3.3841    9.8385    4.6373 O.2       2 RES2    0.0000
     95 O23        0.4060   14.2322    7.6561 O.2       2 RES2    0.0000
     96 O24        0.0194   14.5045    5.5476 O.2       2 RES2    0.0000
     97 O25        6.1626   11.4911    8.1489 O.2       2 RES2    0.0000
     98 O26        7.4207   12.3714    6.6096 O.2       2 RES2    0.0000
     99 O27        3.1071   15.7170    8.9782 O.2       2 RES2    0.0000
    100 O28        4.1882   16.9654    7.5688 O.2       2 RES2    0.0000
    101 O29        4.1168   11.6948    1.6233 O.2       2 RES2    0.0000
    102 O30        4.4111   13.6956    0.7900 O.2       2 RES2    0.0000
    103 O31        0.2897   12.1694    1.2796 O.2       2 RES2    0.0000
    104 O32        1.8743   11.8437   -0.1979 O.2       2 RES2    0.0000
    105 O33        2.2964   15.3915    2.1928 O.2       2 RES2    0.0000
    106 O34        1.6362   14.7756    0.2587 O.2       2 RES2    0.0000
    107 O35        8.1920   17.3939    5.3752 O.2       2 RES2    0.0000
    108 O36        7.5427   18.3164    3.5435 O.2       2 RES2    0.0000
    109 O37        7.3479   14.1169    3.1459 O.2       2 RES2    0.0000
    110 O38        8.6764   15.7475    2.7327 O.2       2 RES2    0.0000
    111 O39        4.8233   17.3355    3.7241 O.2       2 RES2    0.0000
    112 O40        5.5963   16.2051    2.0261 O.2       2 RES2    0.0000
@<TRIPOS>BOND
     1    1    2 1
     2    3    1 1
     3    4    3 1
     4    5    6 1
     5    7    8 1
     6    9    5 1
     7   10    9 1
     8   11    7 1
     9   12   11 1
    10   13   14 1
    11   15   13 1
    12   16   13 1
    13   17   18 1
    14   19   17 1
    15   20   17 1
    16   21    1 1
    17   22    3 1
    18   23    5 1
    19   24    1 1
    20   25    3 1
    21   26    9 1
    22   27   21 1
    23   28   22 1
    24   29   24 1
    25   30   25 1
    26   31   16 1
    27   32   16 1
    28   33   16 1
    29   34   20 1
    30   35   20 1
    31   36   20 1
    32   37   27 2
    33   38   27 2
    34   39   28 2
    35   40   28 2
    36   41   29 2
    37   42   29 2
    38   43   30 2
    39   44   30 2
    40   45   31 2
    41   46   31 2
    42   47   32 2
    43   48   32 2
    44   49   33 2
    45   50   33 2
    46   51   34 2
    47   52   34 2
    48   53   35 2
    49   54   35 2
    50   55   36 2
    51   56   36 2
    52   57   58 1
    53   59   57 1
    54   60   59 1
    55   61   62 1
    56   63   64 1
    57   65   61 1
    58   66   65 1
    59   67   63 1
    60   68   67 1
    61   69   70 1
    62   71   69 1
    63   72   69 1
    64   73   74 1
    65   75   73 1
    66   76   73 1
    67   77   57 1
    68   78   59 1
    69   79   61 1
    70   80   57 1
    71   81   59 1
    72   82   65 1
    73   83   77 1
    74   84   78 1
    75   85   80 1
    76   86   81 1
    77   87   72 1
    78   88   72 1
    79   89   72 1
    80   90   76 1
    81   91   76 1
    82   92   76 1
    83   93   83 2
    84   94   83 2
    85   95   84 2
    86   96   84 2
    87   97   85 2
    88   98   85 2
    89   99   86 2
    90  100   86 2
    91  101   87 2
    92  102   87 2
    93  103   88 2
    94  104   88 2
    95  105   89 2
    96  106   89 2
    97  107   90 2
    98  108   90 2
    99  109   91 2
   100  110   91 2
   101  111   92 2
   102  112   92 2
   103    5   21 1
   104    7   22 1
   105    7   23 1
   106    9   24 1
   107   11   25 1
   108   11   26 1
   109   13   23 1
   110   17   26 1
   111   61   77 1
   112   63   78 1
   113   63   79 1
   114   65   80 1
   115   67   81 1
   116   67   82 1
   117   69   79 1
   118   73   82 1
@<TRIPOS>SUBSTRUCTURE
     1 RES1 1
     2 RES2 57

@<TRIPOS>CRYSIN
   9.3747   15.0010   17.3880  87.0890  88.7850  89.9510   2 1

