# MOL2 file generated by ConQuest
# Please check atom types

@<TRIPOS>MOLECULE
LEQQUW
    46    47     1
SMALL
USER_CHARGES
****
Generated from CSD

@<TRIPOS>ATOM
      1 O1        13.1124    5.5860    2.6959 O.3       1 RES1    0.0000
      2 O2        14.5179    4.1370    1.6571 O.2       1 RES1   -1.0000
      3 O3         9.7960    5.7581    0.0823 O.2       1 RES1   -1.0000
      4 N1        13.3787    4.5416    1.7402 N.pl3     1 RES1    1.0000
      5 N2        11.7753    5.9303    2.5930 N.2       1 RES1    0.0000
      6 N3        12.2055    3.2648    0.1848 N.2       1 RES1    0.0000
      7 N4         9.9127    5.3301    1.2634 N.pl3     1 RES1    1.0000
      8 N5         9.0495    5.0218    2.1282 N.2       1 RES1    0.0000
      9 C1        12.2220    4.2615    1.1305 C.2       1 RES1    0.0000
     10 C2        11.2786    5.1535    1.6894 C.2       1 RES1    0.0000
     11 C3         7.6216    5.1478    1.7252 C.3       1 RES1    0.0000
     12 C4         7.3256    4.2078    0.5589 C.3       1 RES1    0.0000
     13 H1         7.6428    3.3065    0.7775 H         1 RES1    0.0000
     14 H2         7.7846    4.5297   -0.2446 H         1 RES1    0.0000
     15 H3         6.3595    4.1834    0.3965 H         1 RES1    0.0000
     16 C5         7.2773    6.6017    1.3937 C.3       1 RES1    0.0000
     17 H4         7.5909    7.1842    2.1162 H         1 RES1    0.0000
     18 H5         6.3066    6.6936    1.2975 H         1 RES1    0.0000
     19 H6         7.7140    6.8573    0.5548 H         1 RES1    0.0000
     20 C6         6.8508    4.6997    2.9627 C.3       1 RES1    0.0000
     21 H7         7.1116    3.7846    3.1962 H         1 RES1    0.0000
     22 H8         5.8895    4.7278    2.7766 H         1 RES1    0.0000
     23 H9         7.0563    5.2991    3.7098 H         1 RES1    0.0000
     24 O1B       10.1070    0.6644   -2.6959 O.3       1 RES1    0.0000
     25 O2B        8.7015    2.1134   -1.6571 O.2       1 RES1   -1.0000
     26 O3B       13.4234    0.4923   -0.0823 O.2       1 RES1   -1.0000
     27 N1B        9.8407    1.7088   -1.7402 N.pl3     1 RES1    1.0000
     28 N2B       11.4441    0.3201   -2.5930 N.2       1 RES1    0.0000
     29 N3B       11.0139    2.9856   -0.1848 N.2       1 RES1    0.0000
     30 N4B       13.3067    0.9203   -1.2634 N.pl3     1 RES1    1.0000
     31 N5B       14.1699    1.2286   -2.1282 N.2       1 RES1    0.0000
     32 C1B       10.9974    1.9889   -1.1305 C.2       1 RES1    0.0000
     33 C2B       11.9408    1.0969   -1.6894 C.2       1 RES1    0.0000
     34 C3B       15.5978    1.1026   -1.7252 C.3       1 RES1    0.0000
     35 C4B       15.8938    2.0426   -0.5589 C.3       1 RES1    0.0000
     36 H1B       15.5766    2.9439   -0.7775 H         1 RES1    0.0000
     37 H2B       15.4348    1.7207    0.2446 H         1 RES1    0.0000
     38 H3B       16.8599    2.0670   -0.3965 H         1 RES1    0.0000
     39 C5B       15.9421   -0.3513   -1.3937 C.3       1 RES1    0.0000
     40 H4B       15.6285   -0.9338   -2.1162 H         1 RES1    0.0000
     41 H5B       16.9128   -0.4432   -1.2975 H         1 RES1    0.0000
     42 H6B       15.5054   -0.6069   -0.5548 H         1 RES1    0.0000
     43 C6B       16.3686    1.5507   -2.9627 C.3       1 RES1    0.0000
     44 H7B       16.1078    2.4658   -3.1962 H         1 RES1    0.0000
     45 H8B       17.3299    1.5226   -2.7766 H         1 RES1    0.0000
     46 H9B       16.1631    0.9513   -3.7098 H         1 RES1    0.0000
@<TRIPOS>BOND
     1    1    4 1
     2    2    4 1
     3    3    7 1
     4    4    9 2
     5    5    1 1
     6    6    9 1
     7    7    8 2
     8    8   11 1
     9    9   10 1
    10   10    5 2
    11   11   12 1
    12   12   13 1
    13   14   12 1
    14   15   12 1
    15   16   11 1
    16   17   16 1
    17   18   16 1
    18   19   16 1
    19   20   11 1
    20   21   20 1
    21   22   20 1
    22   23   20 1
    23   24   27 1
    24   25   27 1
    25   26   30 1
    26   27   32 2
    27   28   24 1
    28   29    6 2
    29   30   31 2
    30   31   34 1
    31   32   29 1
    32   33   28 2
    33   34   35 1
    34   35   36 1
    35   37   35 1
    36   38   35 1
    37   39   34 1
    38   40   39 1
    39   41   39 1
    40   42   39 1
    41   43   34 1
    42   44   43 1
    43   45   43 1
    44   46   43 1
    45    7   10 1
    46   30   33 1
    47   32   33 1
@<TRIPOS>SUBSTRUCTURE
     1 RES1 1

@<TRIPOS>CRYSIN
  11.6097    6.2504   12.8909  90.0000  93.0650  90.0000  14 1

