# MOL2 file generated by ConQuest
# Please check atom types

@<TRIPOS>MOLECULE
LEQXEL
   152   156     1
SMALL
NO_CHARGES
****
Generated from CSD

@<TRIPOS>ATOM
      1 O1        15.1461    7.6868   -0.6382 O.2       1 RES1    0.0000
      2 O2         9.2309    6.7763    0.5832 O.3       1 RES1    0.0000
      3 O3         6.8458    7.1895   -1.2581 O.3       1 RES1    0.0000
      4 O4         6.4116    1.4865   -1.4079 O.2       1 RES1    0.0000
      5 O5        12.1733    3.2354   -0.2568 O.3       1 RES1    0.0000
      6 O6        14.6669    1.6465   -0.5594 O.3       1 RES1    0.0000
      7 O7        15.2612    3.8659    4.0536 O.2       1 RES1    0.0000
      8 O8         9.3550    2.1343    3.2581 O.3       1 RES1    0.0000
      9 O9         7.5747    1.4095    5.5030 O.3       1 RES1    0.0000
     10 O10        5.5766    6.6434    3.1349 O.2       1 RES1    0.0000
     11 O11       11.6149    6.0107    4.6035 O.3       1 RES1    0.0000
     12 O12       13.3967    5.3535    6.9127 O.3       1 RES1    0.0000
     13 N1        14.7569    7.4023    0.5649 N.3       1 RES1    0.0000
     14 N2         6.6872    2.5668   -0.7529 N.3       1 RES1    0.0000
     15 N3        14.8797    2.6745    3.7385 N.3       1 RES1    0.0000
     16 N4         6.0937    5.8247    3.9852 N.3       1 RES1    0.0000
     17 C1        11.2157    7.4579    1.7587 C.ar      1 RES1    0.0000
     18 C2        12.5961    7.5929    1.7633 C.ar      1 RES1    0.0000
     19 H1        13.0259    8.0181    2.4966 H         1 RES1    0.0000
     20 C3        13.3581    7.1101    0.6983 C.ar      1 RES1    0.0000
     21 C4        12.7461    6.4078   -0.3378 C.ar      1 RES1    0.0000
     22 H2        13.2751    6.0452   -1.0388 H         1 RES1    0.0000
     23 C5        11.3701    6.2362   -0.3526 C.ar      1 RES1    0.0000
     24 C6        10.6118    6.8203    0.6717 C.ar      1 RES1    0.0000
     25 C7        10.6960    5.4189   -1.4321 C.3       1 RES1    0.0000
     26 H3        11.3670    5.1695   -2.1152 H         1 RES1    0.0000
     27 H4        10.0055    5.9749   -1.8745 H         1 RES1    0.0000
     28 C8        10.0439    4.1539   -0.8875 C.ar      1 RES1    0.0000
     29 C9         8.6727    3.9848   -0.9744 C.ar      1 RES1    0.0000
     30 H5         8.1353    4.6737   -1.3493 H         1 RES1    0.0000
     31 C10        8.0770    2.8148   -0.5161 C.ar      1 RES1    0.0000
     32 C11        8.8271    1.8392    0.1281 C.ar      1 RES1    0.0000
     33 H6         8.4061    1.0550    0.4553 H         1 RES1    0.0000
     34 C12       10.1882    2.0140    0.2914 C.ar      1 RES1    0.0000
     35 C13       10.7929    3.1425   -0.2839 C.ar      1 RES1    0.0000
     36 C14       11.0152    1.0385    1.0978 C.3       1 RES1    0.0000
     37 H7        11.7692    0.7174    0.5439 H         1 RES1    0.0000
     38 H8        10.4562    0.2567    1.3348 H         1 RES1    0.0000
     39 C15       11.5633    1.6662    2.3730 C.ar      1 RES1    0.0000
     40 C16       12.9359    1.8058    2.5142 C.ar      1 RES1    0.0000
     41 H9        13.5176    1.4418    1.8568 H         1 RES1    0.0000
     42 C17       13.4673    2.4758    3.6164 C.ar      1 RES1    0.0000
     43 C18       12.6279    3.0683    4.5516 C.ar      1 RES1    0.0000
     44 H10       12.9995    3.5624    5.2724 H         1 RES1    0.0000
     45 C19       11.2532    2.9431    4.4398 C.ar      1 RES1    0.0000
     46 C20       10.7276    2.2071    3.3710 C.ar      1 RES1    0.0000
     47 C21       10.3459    3.6437    5.4377 C.3       1 RES1    0.0000
     48 H11        9.7066    2.9857    5.8100 H         1 RES1    0.0000
     49 H12       10.8942    3.9915    6.1851 H         1 RES1    0.0000
     50 C22        9.5749    4.7869    4.8186 C.ar      1 RES1    0.0000
     51 C23        8.1999    4.7303    4.6897 C.ar      1 RES1    0.0000
     52 H13        7.7246    3.9774    5.0233 H         1 RES1    0.0000
     53 C24        7.5032    5.7765    4.0699 C.ar      1 RES1    0.0000
     54 C25        8.2294    6.8168    3.4832 C.ar      1 RES1    0.0000
     55 H14        7.7693    7.4835    2.9873 H         1 RES1    0.0000
     56 C26        9.6014    6.8966    3.6092 C.ar      1 RES1    0.0000
     57 C27       10.2606    5.9084    4.3411 C.ar      1 RES1    0.0000
     58 C28       10.3871    7.9956    2.9151 C.3       1 RES1    0.0000
     59 H15       10.9866    8.4330    3.5708 H         1 RES1    0.0000
     60 H16        9.7591    8.6792    2.5747 H         1 RES1    0.0000
     61 C29       15.8097    6.8787    1.4969 C.3       1 RES1    0.0000
     62 C30       15.3459    6.9145    2.9469 C.3       1 RES1    0.0000
     63 H17       15.1351    7.8387    3.1999 H         1 RES1    0.0000
     64 H18       16.0571    6.5692    3.5260 H         1 RES1    0.0000
     65 H19       14.5453    6.3582    3.0478 H         1 RES1    0.0000
     66 C31       16.0854    5.4298    1.0686 C.3       1 RES1    0.0000
     67 H20       16.3574    5.4122    0.1271 H         1 RES1    0.0000
     68 H21       15.2717    4.8952    1.1837 H         1 RES1    0.0000
     69 H22       16.8027    5.0570    1.6223 H         1 RES1    0.0000
     70 C32       17.0463    7.7452    1.3098 C.3       1 RES1    0.0000
     71 H23       16.8352    8.6722    1.5504 H         1 RES1    0.0000
     72 H24       17.3329    7.7086    0.3730 H         1 RES1    0.0000
     73 H25       17.7676    7.4132    1.8849 H         1 RES1    0.0000
     74 C33        8.7419    7.9741   -0.0530 C.3       1 RES1    0.0000
     75 H26        9.1268    8.0427   -0.9628 H         1 RES1    0.0000
     76 H27        9.0355    8.7636    0.4647 H         1 RES1    0.0000
     77 C34        7.2499    7.9688   -0.1457 C.3       1 RES1    0.0000
     78 H28        6.8646    7.5926    0.6846 H         1 RES1    0.0000
     79 H29        6.9176    8.8973   -0.2480 H         1 RES1    0.0000
     80 C35        5.4818    7.4206   -1.5619 C.3       1 RES1    0.0000
     81 H30        5.2258    6.8857   -2.3423 H         1 RES1    0.0000
     82 H31        5.3472    8.3697   -1.7588 H         1 RES1    0.0000
     83 H32        4.9290    7.1635   -0.7950 H         1 RES1    0.0000
     84 C36        5.5706    3.2048    0.0005 C.3       1 RES1    0.0000
     85 C37        5.0380    2.1596    0.9742 C.3       1 RES1    0.0000
     86 H33        5.7344    1.9342    1.6255 H         1 RES1    0.0000
     87 H34        4.7789    1.3539    0.4803 H         1 RES1    0.0000
     88 H35        4.2563    2.5180    1.4442 H         1 RES1    0.0000
     89 C38        4.5154    3.5891   -1.0295 C.3       1 RES1    0.0000
     90 H36        4.8930    4.2376   -1.6578 H         1 RES1    0.0000
     91 H37        3.7428    3.9844   -0.5752 H         1 RES1    0.0000
     92 H38        4.2307    2.7887   -1.5202 H         1 RES1    0.0000
     93 C39        6.0623    4.4261    0.7611 C.3       1 RES1    0.0000
     94 H39        6.7672    4.1603    1.3879 H         1 RES1    0.0000
     95 H40        5.3169    4.8249    1.2577 H         1 RES1    0.0000
     96 H41        6.4205    5.0816    0.1282 H         1 RES1    0.0000
     97 C40       12.7405    2.6794   -1.4568 C.3       1 RES1    0.0000
     98 H42       12.4360    3.2002   -2.2413 H         1 RES1    0.0000
     99 H43       12.4321    1.7443   -1.5682 H         1 RES1    0.0000
    100 C41       14.2327    2.7110   -1.3821 C.3       1 RES1    0.0000
    101 H44       14.6186    2.6164   -2.2892 H         1 RES1    0.0000
    102 H45       14.5338    3.5765   -1.0034 H         1 RES1    0.0000
    103 C42       16.0739    1.5846   -0.4976 C.3       1 RES1    0.0000
    104 H46       16.3435    0.8299    0.0646 H         1 RES1    0.0000
    105 H47       16.4211    2.4160   -0.1146 H         1 RES1    0.0000
    106 H48       16.4357    1.4665   -1.4004 H         1 RES1    0.0000
    107 C43       15.8518    1.5867    4.0637 C.3       1 RES1    0.0000
    108 C44       16.1098    1.6560    5.5749 C.3       1 RES1    0.0000
    109 H49       16.5046    2.5250    5.7996 H         1 RES1    0.0000
    110 H50       16.7266    0.9390    5.8340 H         1 RES1    0.0000
    111 H51       15.2625    1.5473    6.0559 H         1 RES1    0.0000
    112 C45       15.3234    0.2135    3.6809 C.3       1 RES1    0.0000
    113 H52       15.2041    0.1688    2.7091 H         1 RES1    0.0000
    114 H53       14.4617    0.0598    4.1231 H         1 RES1    0.0000
    115 H54       15.9621   -0.4748    3.9636 H         1 RES1    0.0000
    116 C46       17.1201    1.8944    3.2721 C.3       1 RES1    0.0000
    117 H55       16.9343    1.8111    2.3132 H         1 RES1    0.0000
    118 H56       17.8240    1.2625    3.5239 H         1 RES1    0.0000
    119 H57       17.4160    2.8063    3.4708 H         1 RES1    0.0000
    120 C47        8.7766    0.8415    3.5106 C.3       1 RES1    0.0000
    121 H58        9.3668    0.1442    3.1280 H         1 RES1    0.0000
    122 H59        7.9029    0.7842    3.0478 H         1 RES1    0.0000
    123 C48        8.5729    0.5577    4.9756 C.3       1 RES1    0.0000
    124 H60        8.3019   -0.3868    5.0973 H         1 RES1    0.0000
    125 H61        9.4225    0.6998    5.4630 H         1 RES1    0.0000
    126 C49        7.3827    1.2031    6.8983 C.3       1 RES1    0.0000
    127 H62        6.6051    1.7197    7.2010 H         1 RES1    0.0000
    128 H63        8.1797    1.4981    7.3855 H         1 RES1    0.0000
    129 H64        7.2304    0.2497    7.0697 H         1 RES1    0.0000
    130 C50        5.1565    5.1203    4.9408 C.3       1 RES1    0.0000
    131 C51        5.6047    5.3517    6.3767 C.3       1 RES1    0.0000
    132 H65        5.6636    6.3160    6.5498 H         1 RES1    0.0000
    133 H66        6.4830    4.9410    6.5154 H         1 RES1    0.0000
    134 H67        4.9562    4.9480    6.9906 H         1 RES1    0.0000
    135 C52        3.7665    5.7203    4.7541 C.3       1 RES1    0.0000
    136 H68        3.7955    6.6782    4.9535 H         1 RES1    0.0000
    137 H69        3.1360    5.2786    5.3609 H         1 RES1    0.0000
    138 H70        3.4750    5.5880    3.8282 H         1 RES1    0.0000
    139 C53        5.0954    3.6289    4.5930 C.3       1 RES1    0.0000
    140 H71        4.8315    3.5237    3.6552 H         1 RES1    0.0000
    141 H72        4.4392    3.1861    5.1702 H         1 RES1    0.0000
    142 H73        5.9772    3.2248    4.7316 H         1 RES1    0.0000
    143 C54       11.8426    6.7774    5.8072 C.3       1 RES1    0.0000
    144 H74       11.2229    6.4742    6.5165 H         1 RES1    0.0000
    145 H75       11.6628    7.7332    5.6297 H         1 RES1    0.0000
    146 C55       13.2496    6.6093    6.2682 C.3       1 RES1    0.0000
    147 H76       13.8632    6.6606    5.4933 H         1 RES1    0.0000
    148 H77       13.4837    7.3358    6.8968 H         1 RES1    0.0000
    149 C56       14.7340    5.1474    7.3083 C.3       1 RES1    0.0000
    150 H78       14.8137    4.2763    7.7491 H         1 RES1    0.0000
    151 H79       15.0026    5.8553    7.9315 H         1 RES1    0.0000
    152 H80       15.3149    5.1695    6.5196 H         1 RES1    0.0000
@<TRIPOS>BOND
     1    1   13 1
     2    2   24 1
     3    3   77 1
     4    4   14 1
     5    5   35 1
     6    6  100 1
     7    7   15 1
     8    8   46 1
     9    9  123 1
    10   10   16 1
    11   11   57 1
    12   12  146 1
    13   13   20 1
    14   14   31 1
    15   15   42 1
    16   16   53 1
    17   17   18 ar
    18   18   19 1
    19   20   18 ar
    20   21   20 ar
    21   22   21 1
    22   23   21 ar
    23   24   17 ar
    24   25   23 1
    25   26   25 1
    26   27   25 1
    27   28   25 1
    28   29   28 ar
    29   30   29 1
    30   31   29 ar
    31   32   31 ar
    32   33   32 1
    33   34   32 ar
    34   35   28 ar
    35   36   34 1
    36   37   36 1
    37   38   36 1
    38   39   36 1
    39   40   39 ar
    40   41   40 1
    41   42   40 ar
    42   43   42 ar
    43   44   43 1
    44   45   43 ar
    45   46   39 ar
    46   47   45 1
    47   48   47 1
    48   49   47 1
    49   50   47 1
    50   51   50 ar
    51   52   51 1
    52   53   51 ar
    53   54   53 ar
    54   55   54 1
    55   56   54 ar
    56   57   50 ar
    57   58   17 1
    58   59   58 1
    59   60   58 1
    60   61   13 1
    61   62   61 1
    62   63   62 1
    63   64   62 1
    64   65   62 1
    65   66   61 1
    66   67   66 1
    67   68   66 1
    68   69   66 1
    69   70   61 1
    70   71   70 1
    71   72   70 1
    72   73   70 1
    73   74    2 1
    74   75   74 1
    75   76   74 1
    76   77   74 1
    77   78   77 1
    78   79   77 1
    79   80    3 1
    80   81   80 1
    81   82   80 1
    82   83   80 1
    83   84   14 1
    84   85   84 1
    85   86   85 1
    86   87   85 1
    87   88   85 1
    88   89   84 1
    89   90   89 1
    90   91   89 1
    91   92   89 1
    92   93   84 1
    93   94   93 1
    94   95   93 1
    95   96   93 1
    96   97    5 1
    97   98   97 1
    98   99   97 1
    99  100   97 1
   100  101  100 1
   101  102  100 1
   102  103    6 1
   103  104  103 1
   104  105  103 1
   105  106  103 1
   106  107   15 1
   107  108  107 1
   108  109  108 1
   109  110  108 1
   110  111  108 1
   111  112  107 1
   112  113  112 1
   113  114  112 1
   114  115  112 1
   115  116  107 1
   116  117  116 1
   117  118  116 1
   118  119  116 1
   119  120    8 1
   120  121  120 1
   121  122  120 1
   122  123  120 1
   123  124  123 1
   124  125  123 1
   125  126    9 1
   126  127  126 1
   127  128  126 1
   128  129  126 1
   129  130   16 1
   130  131  130 1
   131  132  131 1
   132  133  131 1
   133  134  131 1
   134  135  130 1
   135  136  135 1
   136  137  135 1
   137  138  135 1
   138  139  130 1
   139  140  139 1
   140  141  139 1
   141  142  139 1
   142  143   11 1
   143  144  143 1
   144  145  143 1
   145  146  143 1
   146  147  146 1
   147  148  146 1
   148  149   12 1
   149  150  149 1
   150  151  149 1
   151  152  149 1
   152   23   24 ar
   153   34   35 ar
   154   45   46 ar
   155   56   57 ar
   156   56   58 1
@<TRIPOS>SUBSTRUCTURE
     1 RES1 1

@<TRIPOS>CRYSIN
  14.9200   35.1670   10.5930  90.0000 100.3790  90.0000  14 1

