# MOL2 file generated by ConQuest
# Please check atom types

@<TRIPOS>MOLECULE
LERBAM
    76    81     1
SMALL
NO_CHARGES
****
Generated from CSD

@<TRIPOS>ATOM
      1 C1         7.5784    7.0446    2.7868 C.ar      1 RES1    0.0000
      2 C2         8.4960    6.2075    5.0725 C.3       1 RES1    0.0000
      3 C3         8.2815    5.9696    3.5626 C.3       1 RES1    0.0000
      4 H1         7.7966    5.1262    3.4424 H         1 RES1    0.0000
      5 C4         7.2361    5.8708    5.8638 C.2       1 RES1    0.0000
      6 C5        11.5058    4.6280    3.7719 C.ar      1 RES1    0.0000
      7 C6         8.9560    7.6313    5.4037 C.3       1 RES1    0.0000
      8 H2         9.7838    7.8298    4.9392 H         1 RES1    0.0000
      9 H3         8.2846    8.2723    5.1213 H         1 RES1    0.0000
     10 C7         7.0443    6.5428    7.1839 C.2       1 RES1    0.0000
     11 C8         7.5214    9.1311    1.5750 C.ar      1 RES1    0.0000
     12 H4         7.9689    9.8732    1.2394 H         1 RES1    0.0000
     13 C9        12.0989    5.0255    2.5695 C.ar      1 RES1    0.0000
     14 H5        11.6024    5.4864    1.9327 H         1 RES1    0.0000
     15 C10        8.2319    8.1686    2.2868 C.ar      1 RES1    0.0000
     16 H6         9.1443    8.2767    2.4292 H         1 RES1    0.0000
     17 C11        5.5085    7.8786    1.8598 C.ar      1 RES1    0.0000
     18 H7         4.5939    7.7768    1.7249 H         1 RES1    0.0000
     19 C12        6.2087    6.9062    2.5605 C.ar      1 RES1    0.0000
     20 H8         5.7613    6.1568    2.8815 H         1 RES1    0.0000
     21 C13        6.1536    9.0025    1.3569 C.ar      1 RES1    0.0000
     22 C14        6.1717    5.9571    8.0278 C.2       1 RES1    0.0000
     23 H9         5.7590    5.1865    7.7123 H         1 RES1    0.0000
     24 C15        7.8633    7.7615    7.5135 C.3       1 RES1    0.0000
     25 H10        7.3835    8.5575    7.2360 H         1 RES1    0.0000
     26 H11        7.9967    7.8106    8.4735 H         1 RES1    0.0000
     27 C16       12.2635    3.9391    4.7217 C.ar      1 RES1    0.0000
     28 H12       11.8794    3.6811    5.5277 H         1 RES1    0.0000
     29 C17       13.4356    4.7271    2.3304 C.ar      1 RES1    0.0000
     30 H13       13.8300    4.9969    1.5318 H         1 RES1    0.0000
     31 C18       13.5938    3.6425    4.4562 C.ar      1 RES1    0.0000
     32 H14       14.0939    3.1754    5.0845 H         1 RES1    0.0000
     33 C19        5.3853   10.0496    0.5995 C.3       1 RES1    0.0000
     34 H15        5.9207   10.8420    0.5167 H         1 RES1    0.0000
     35 H16        4.5771   10.2584    1.0739 H         1 RES1    0.0000
     36 H17        5.1674    9.7174   -0.2740 H         1 RES1    0.0000
     37 C20        5.7890    6.3776    9.3772 C.ar      1 RES1    0.0000
     38 C21       14.1861    4.0348    3.2640 C.ar      1 RES1    0.0000
     39 H18       15.0787    3.8340    3.0948 H         1 RES1    0.0000
     40 C22        5.4667    5.3909   10.3133 C.ar      1 RES1    0.0000
     41 H19        5.5201    4.4941   10.0715 H         1 RES1    0.0000
     42 C23        4.9578    7.0638   11.9884 C.ar      1 RES1    0.0000
     43 C24        5.6916    7.7143    9.7729 C.ar      1 RES1    0.0000
     44 H20        5.9013    8.3884    9.1668 H         1 RES1    0.0000
     45 C25        5.2834    8.0547   11.0658 C.ar      1 RES1    0.0000
     46 H21        5.2293    8.9500   11.3128 H         1 RES1    0.0000
     47 C26        5.0679    5.7319   11.6042 C.ar      1 RES1    0.0000
     48 H22        4.8727    5.0601   12.2175 H         1 RES1    0.0000
     49 C27        4.4672    7.4490   13.3631 C.3       1 RES1    0.0000
     50 H23        4.1629    6.6640   13.8265 H         1 RES1    0.0000
     51 H24        3.7418    8.0723   13.2804 H         1 RES1    0.0000
     52 H25        5.1833    7.8547   13.8559 H         1 RES1    0.0000
     53 C28        9.2988    4.0209    6.1985 C.ar      1 RES1    0.0000
     54 C29        9.4220    4.1222    7.5835 C.ar      1 RES1    0.0000
     55 H26        9.8350    4.8675    7.9568 H         1 RES1    0.0000
     56 C30        8.3160    1.9870    7.8750 C.ar      1 RES1    0.0000
     57 C31        8.7175    2.8817    5.6540 C.ar      1 RES1    0.0000
     58 H27        8.6500    2.7917    4.7314 H         1 RES1    0.0000
     59 C32        8.9315    3.1157    8.4097 C.ar      1 RES1    0.0000
     60 H28        9.0156    3.1975    9.3323 H         1 RES1    0.0000
     61 C33        8.2352    1.8731    6.4855 C.ar      1 RES1    0.0000
     62 H29        7.8539    1.1129    6.1087 H         1 RES1    0.0000
     63 C34        7.7407    0.9306    8.7803 C.3       1 RES1    0.0000
     64 H30        6.9397    1.2628    9.1907 H         1 RES1    0.0000
     65 H31        8.3806    0.7086    9.4610 H         1 RES1    0.0000
     66 H32        7.5350    0.1470    8.2658 H         1 RES1    0.0000
     67 C35        9.9498    8.8943    7.2001 C.3       1 RES1    0.0000
     68 H33        9.4855    9.6880    6.9252 H         1 RES1    0.0000
     69 H34       10.8003    8.8515    6.7579 H         1 RES1    0.0000
     70 H35       10.0845    8.9147    8.1499 H         1 RES1    0.0000
     71 N1         9.1584    7.7207    6.8465 N.3       1 RES1    0.0000
     72 O1         6.4228    5.0770    5.4216 O.2       1 RES1    0.0000
     73 C36        9.6876    5.2171    5.3589 C.3       1 RES1    0.0000
     74 H36       10.4141    5.7025    5.8017 H         1 RES1    0.0000
     75 N2        10.1263    4.8106    3.9953 N.3       1 RES1    0.0000
     76 O2         9.6136    5.8066    3.0741 O.3       1 RES1    0.0000
@<TRIPOS>BOND
     1    1    3 1
     2    2    3 1
     3    3    4 1
     4    5    2 1
     5    6   13 ar
     6    7    2 1
     7    8    7 1
     8    9    7 1
     9   10    5 1
    10   11   12 1
    11   13   14 1
    12   15    1 ar
    13   16   15 1
    14   17   18 1
    15   19    1 ar
    16   20   19 1
    17   21   11 ar
    18   22   10 2
    19   23   22 1
    20   24   10 1
    21   25   24 1
    22   26   24 1
    23   27    6 ar
    24   28   27 1
    25   29   13 ar
    26   30   29 1
    27   31   27 ar
    28   32   31 1
    29   33   21 1
    30   34   33 1
    31   35   33 1
    32   36   33 1
    33   37   22 1
    34   38   29 ar
    35   39   38 1
    36   40   37 ar
    37   41   40 1
    38   42   45 ar
    39   43   37 ar
    40   44   43 1
    41   45   43 ar
    42   46   45 1
    43   47   40 ar
    44   48   47 1
    45   49   42 1
    46   50   49 1
    47   51   49 1
    48   52   49 1
    49   53   54 ar
    50   54   55 1
    51   56   59 ar
    52   57   53 ar
    53   58   57 1
    54   59   54 ar
    55   60   59 1
    56   61   56 ar
    57   62   61 1
    58   63   56 1
    59   64   63 1
    60   65   63 1
    61   66   63 1
    62   67   68 1
    63   69   67 1
    64   70   67 1
    65   71    7 1
    66   72    5 2
    67   73    2 1
    68   74   73 1
    69   75    6 1
    70   76    3 1
    71   11   15 ar
    72   17   19 ar
    73   17   21 ar
    74   24   71 1
    75   31   38 ar
    76   42   47 ar
    77   53   73 1
    78   57   61 ar
    79   67   71 1
    80   73   75 1
    81   75   76 1
@<TRIPOS>SUBSTRUCTURE
     1 RES1 1

@<TRIPOS>CRYSIN
  10.7182   14.7010   18.5820  90.0000  98.2700  90.0000  14 1

