# MOL2 file generated by ConQuest
# Please check atom types

@<TRIPOS>MOLECULE
LERPON
    61    64     1
SMALL
NO_CHARGES
****
Generated from CSD

@<TRIPOS>ATOM
      1 C1         3.2810    6.1012    8.6107 C.1       1 RES1    0.0000
      2 C2         2.5571    5.7760    7.4049 C.2       1 RES1    0.0000
      3 C3         2.2647    4.4898    7.1139 C.2       1 RES1    0.0000
      4 C4         1.6402    4.0379    5.8284 C.2       1 RES1    0.0000
      5 C5         2.1828    4.2565    4.6188 C.2       1 RES1    0.0000
      6 C6         1.5224    3.7282    3.3601 C.3       1 RES1    0.0000
      7 C7         0.2859    4.4497    2.8619 C.2       1 RES1    0.0000
      8 C8         0.3421    3.2919    6.0241 C.3       1 RES1    0.0000
      9 C9        -0.3891    3.8823    1.6479 C.ar      1 RES1    0.0000
     10 C10       -1.4750    4.5598    1.1125 C.ar      1 RES1    0.0000
     11 C11       -2.1662    4.0361    0.0395 C.ar      1 RES1    0.0000
     12 C12       -1.7753    2.8410   -0.5183 C.ar      1 RES1    0.0000
     13 C13       -0.6874    2.1607   -0.0086 C.ar      1 RES1    0.0000
     14 C14        0.0076    2.6828    1.0673 C.ar      1 RES1    0.0000
     15 C15        3.4532    5.0004    4.4085 C.ar      1 RES1    0.0000
     16 C16        3.5032    6.0067    3.4471 C.ar      1 RES1    0.0000
     17 C17        4.6548    6.7342    3.2395 C.ar      1 RES1    0.0000
     18 C18        5.7944    6.4524    3.9699 C.ar      1 RES1    0.0000
     19 C19        5.7669    5.4463    4.9136 C.ar      1 RES1    0.0000
     20 C20        4.6108    4.7238    5.1325 C.ar      1 RES1    0.0000
     21 C21        2.5822    3.3777    8.0597 C.ar      1 RES1    0.0000
     22 C22        3.1364    2.2017    7.5722 C.ar      1 RES1    0.0000
     23 C23        3.5291    1.2000    8.4295 C.ar      1 RES1    0.0000
     24 C24        3.3510    1.3403    9.7964 C.ar      1 RES1    0.0000
     25 C25        2.7561    2.4756   10.2886 C.ar      1 RES1    0.0000
     26 C26        2.3540    3.4889    9.4367 C.ar      1 RES1    0.0000
     27 C27        2.3468    6.9535    6.5231 C.ar      1 RES1    0.0000
     28 C28        1.2058    7.1028    5.7390 C.ar      1 RES1    0.0000
     29 C29        1.0975    8.1643    4.8679 C.ar      1 RES1    0.0000
     30 C30        2.0968    9.1003    4.8162 C.ar      1 RES1    0.0000
     31 C31        3.2304    9.0058    5.6085 C.ar      1 RES1    0.0000
     32 C32        3.3441    7.9282    6.4534 C.ar      1 RES1    0.0000
     33 O1        -0.1550    5.4375    3.4160 O.2       1 RES1    0.0000
     34 O2         1.1208   10.1865    3.0215 O.2       1 RES1    0.0000
     35 O3         2.7918   11.1459    3.9816 O.2       1 RES1    0.0000
     36 N1         3.8532    6.4598    9.5412 N.1       1 RES1    0.0000
     37 N2         1.9944   10.2155    3.8822 N.pl3     1 RES1    0.0000
     38 H1         2.1724    3.7399    2.6533 H         1 RES1    0.0000
     39 H2         1.2838    2.8119    3.5162 H         1 RES1    0.0000
     40 H3         0.2692    2.6172    5.3451 H         1 RES1    0.0000
     41 H4         0.2906    2.8813    6.8910 H         1 RES1    0.0000
     42 H5        -0.3740    3.9232    5.9250 H         1 RES1    0.0000
     43 H6        -1.7477    5.3939    1.5005 H         1 RES1    0.0000
     44 H7        -2.9146    4.5115   -0.3266 H         1 RES1    0.0000
     45 H8        -2.2669    2.4774   -1.2577 H         1 RES1    0.0000
     46 H9        -0.4126    1.3298   -0.4018 H         1 RES1    0.0000
     47 H10        0.7722    2.2205    1.4184 H         1 RES1    0.0000
     48 H11        2.7200    6.1935    2.9241 H         1 RES1    0.0000
     49 H12        4.6662    7.4374    2.5852 H         1 RES1    0.0000
     50 H13        6.6000    6.9537    3.8237 H         1 RES1    0.0000
     51 H14        6.5573    5.2479    5.4219 H         1 RES1    0.0000
     52 H15        4.5981    4.0247    5.7905 H         1 RES1    0.0000
     53 H16        3.2497    2.0983    6.6237 H         1 RES1    0.0000
     54 H17        3.9258    0.4008    8.0770 H         1 RES1    0.0000
     55 H18        3.6385    0.6483   10.3967 H         1 RES1    0.0000
     56 H19        2.6182    2.5665   11.2334 H         1 RES1    0.0000
     57 H20        1.9191    4.2702    9.7854 H         1 RES1    0.0000
     58 H21        0.4959    6.4597    5.8115 H         1 RES1    0.0000
     59 H22        0.3231    8.2566    4.3093 H         1 RES1    0.0000
     60 H23        3.9153    9.6776    5.5652 H         1 RES1    0.0000
     61 H24        4.1204    7.8361    7.0098 H         1 RES1    0.0000
@<TRIPOS>BOND
     1    1    2 1
     2    2    3 2
     3    3    4 1
     4    4    5 2
     5    5    6 1
     6    6    7 1
     7    7    9 1
     8    8    4 1
     9    9   10 ar
    10   10   11 ar
    11   11   12 ar
    12   12   13 ar
    13   13   14 ar
    14   14    9 ar
    15   15    5 1
    16   16   15 ar
    17   17   16 ar
    18   18   17 ar
    19   19   18 ar
    20   20   15 ar
    21   21    3 1
    22   22   21 ar
    23   23   22 ar
    24   24   23 ar
    25   25   24 ar
    26   26   21 ar
    27   27    2 1
    28   28   27 ar
    29   29   28 ar
    30   30   29 ar
    31   31   30 ar
    32   32   27 ar
    33   33    7 2
    34   34   37 2
    35   35   37 2
    36   36    1 3
    37   37   30 1
    38   38    6 1
    39   39    6 1
    40   40    8 1
    41   41    8 1
    42   42    8 1
    43   43   10 1
    44   44   11 1
    45   45   12 1
    46   46   13 1
    47   47   14 1
    48   48   16 1
    49   49   17 1
    50   50   18 1
    51   51   19 1
    52   52   20 1
    53   53   22 1
    54   54   23 1
    55   55   24 1
    56   56   25 1
    57   57   26 1
    58   58   28 1
    59   59   29 1
    60   60   31 1
    61   61   32 1
    62   19   20 ar
    63   25   26 ar
    64   31   32 ar
@<TRIPOS>SUBSTRUCTURE
     1 RES1 1

@<TRIPOS>CRYSIN
  13.7010   10.3570   17.8280  90.0000 101.5400  90.0000  14 1

