# MOL2 file generated by ConQuest
# Please check atom types

@<TRIPOS>MOLECULE
LERWOX
    46    47     1
SMALL
NO_CHARGES
****
Generated from CSD

@<TRIPOS>ATOM
      1 O1         5.2884    4.3189    6.5498 O.2       1 RES1    0.0000
      2 O2         2.4269    4.8388    6.2293 O.3       1 RES1    0.0000
      3 O3         4.9616    1.7434    4.1623 O.3       1 RES1    0.0000
      4 N1         1.1011    2.0626    6.5299 N.3       1 RES1    0.0000
      5 N2         2.2440    2.6762    7.0224 N.3       1 RES1    0.0000
      6 O4         3.1245    0.7232    4.9324 O.2       1 RES1    0.0000
      7 C1        -0.1183    2.6227    6.7397 C.ar      1 RES1    0.0000
      8 O5        -0.2464    0.2447    5.2677 O.2       1 RES1    0.0000
      9 C2         3.1147    1.9422    7.8219 C.2       1 RES1    0.0000
     10 C3        -0.2354    3.8193    7.4754 C.ar      1 RES1    0.0000
     11 C4        -1.4513    4.4310    7.6574 C.ar      1 RES1    0.0000
     12 N3        -1.3204    0.7978    5.5212 N.pl3     1 RES1    0.0000
     13 O6        -2.3959    0.3090    5.1907 O.2       1 RES1    0.0000
     14 C5        -2.5912    3.8518    7.1162 C.ar      1 RES1    0.0000
     15 C6         3.0189    3.5740    6.1707 C.3       1 RES1    0.0000
     16 C7         4.4069    3.5192    6.8443 C.2       1 RES1    0.0000
     17 C8         3.1273    3.0974    4.7147 C.3       1 RES1    0.0000
     18 H1         2.2444    3.0967    4.3139 H         1 RES1    0.0000
     19 H2         3.6808    3.7199    4.2160 H         1 RES1    0.0000
     20 C9         3.7140    1.7281    4.6098 C.2       1 RES1    0.0000
     21 C10        4.3799    2.4385    7.7653 C.2       1 RES1    0.0000
     22 N4        -3.8781    4.5260    7.2826 N.pl3     1 RES1    0.0000
     23 C11        2.5987    0.8092    8.6284 C.3       1 RES1    0.0000
     24 H3         2.0946    0.2179    8.0473 H         1 RES1    0.0000
     25 H4         1.9885    1.1559    9.2976 H         1 RES1    0.0000
     26 C12       -1.3137    2.0498    6.2485 C.ar      1 RES1    0.0000
     27 C13       -2.5448    2.6800    6.4291 C.ar      1 RES1    0.0000
     28 C14        3.6757    0.0038    9.3232 C.3       1 RES1    0.0000
     29 H5         4.1645    0.5818    9.9306 H         1 RES1    0.0000
     30 H6         4.3015   -0.3313    8.6611 H         1 RES1    0.0000
     31 O7        -3.8989    5.5901    7.8901 O.2       1 RES1    0.0000
     32 O8        -4.8774    3.9888    6.8198 O.2       1 RES1    0.0000
     33 C15        3.0983   -1.1616   10.1001 C.3       1 RES1    0.0000
     34 H7         2.6155   -1.7363    9.5022 H         1 RES1    0.0000
     35 H8         2.5028   -0.8315   10.7770 H         1 RES1    0.0000
     36 H9         3.8108   -1.6554   10.5130 H         1 RES1    0.0000
     37 C16        5.6102    0.4479    4.0885 C.3       1 RES1    0.0000
     38 H10        5.1075   -0.1287    3.5078 H         1 RES1    0.0000
     39 H11        5.6516    0.0605    4.9662 H         1 RES1    0.0000
     40 H12        6.4988    0.5544    3.7421 H         1 RES1    0.0000
     41 H13        5.0763    2.1728    8.3324 H         1 RES1    0.0000
     42 H14        1.1693    1.3891    6.0171 H         1 RES1    0.0000
     43 H15        2.8626    5.4034    5.7828 H         1 RES1    0.0000
     44 H16        0.5284    4.2373    7.8008 H         1 RES1    0.0000
     45 H17       -1.4940    5.2823    8.1593 H         1 RES1    0.0000
     46 H18       -3.3149    2.2811    6.0801 H         1 RES1    0.0000
@<TRIPOS>BOND
     1    1   16 2
     2    2   15 1
     3    3   20 1
     4    4    5 1
     5    5    9 1
     6    6   20 2
     7    7    4 1
     8    8   12 2
     9    9   21 2
    10   10    7 ar
    11   11   10 ar
    12   12   13 2
    13   14   11 ar
    14   15    5 1
    15   16   15 1
    16   17   15 1
    17   18   17 1
    18   19   17 1
    19   20   17 1
    20   21   16 1
    21   22   14 1
    22   23    9 1
    23   24   23 1
    24   25   23 1
    25   26    7 ar
    26   27   14 ar
    27   28   23 1
    28   29   28 1
    29   30   28 1
    30   31   22 2
    31   32   22 2
    32   33   28 1
    33   34   33 1
    34   35   33 1
    35   36   33 1
    36   37    3 1
    37   38   37 1
    38   39   37 1
    39   40   37 1
    40   41   21 1
    41   42    4 1
    42   43    2 1
    43   44   10 1
    44   45   11 1
    45   46   27 1
    46   12   26 1
    47   26   27 ar
@<TRIPOS>SUBSTRUCTURE
     1 RES1 1

@<TRIPOS>CRYSIN
  16.0573    6.3719   18.1177  90.0000 105.1670  90.0000  14 1

