# MOL2 file generated by ConQuest
# Please check atom types

@<TRIPOS>MOLECULE
LERZEP
    56    59     1
SMALL
NO_CHARGES
****
Generated from CSD

@<TRIPOS>ATOM
      1 C1         2.7728    2.9686    6.4769 C.2       1 RES1    0.0000
      2 C2         1.6752    3.9207    6.8035 C.3       1 RES1    0.0000
      3 H1         2.0219    4.6164    7.3851 H         1 RES1    0.0000
      4 H2         0.9803    3.4491    7.2884 H         1 RES1    0.0000
      5 C3         1.0644    4.5684    5.5601 C.3       1 RES1    0.0000
      6 C4         0.7784    3.4618    4.5471 C.3       1 RES1    0.0000
      7 H3         0.0476    2.9194    4.8801 H         1 RES1    0.0000
      8 H4         0.4849    3.8709    3.7181 H         1 RES1    0.0000
      9 C5         1.9464    2.5621    4.2511 C.2       1 RES1    0.0000
     10 C6         2.9259    2.3329    5.3152 C.2       1 RES1    0.0000
     11 C7         4.0627    1.3728    5.0437 C.3       1 RES1    0.0000
     12 H5         3.6938    0.5199    4.7323 H         1 RES1    0.0000
     13 C8         4.8183    1.1432    6.3315 C.2       1 RES1    0.0000
     14 C9         5.8658    0.1144    6.3476 C.2       1 RES1    0.0000
     15 C10        6.6010   -0.1377    7.6368 C.3       1 RES1    0.0000
     16 H6         7.4972   -0.4454    7.4284 H         1 RES1    0.0000
     17 H7         6.1500   -0.8495    8.1183 H         1 RES1    0.0000
     18 C11        6.7016    1.0828    8.5488 C.3       1 RES1    0.0000
     19 C12        5.2890    1.6455    8.7417 C.3       1 RES1    0.0000
     20 H8         4.7783    1.0398    9.3024 H         1 RES1    0.0000
     21 H9         5.3458    2.4995    9.1991 H         1 RES1    0.0000
     22 C13        4.5782    1.8301    7.4493 C.2       1 RES1    0.0000
     23 C14        2.0348    5.5872    4.9694 C.3       1 RES1    0.0000
     24 H10        2.2100    6.2743    5.6166 H         1 RES1    0.0000
     25 H11        1.6473    5.9800    4.1835 H         1 RES1    0.0000
     26 H12        2.8566    5.1481    4.7368 H         1 RES1    0.0000
     27 C15       -0.2364    5.2623    5.9437 C.3       1 RES1    0.0000
     28 H13       -0.0532    5.9564    6.5819 H         1 RES1    0.0000
     29 H14       -0.8385    4.6223    6.3309 H         1 RES1    0.0000
     30 H15       -0.6375    5.6464    5.1600 H         1 RES1    0.0000
     31 C16        7.2734    0.6731    9.9054 C.3       1 RES1    0.0000
     32 H16        6.7023    0.0137   10.3078 H         1 RES1    0.0000
     33 H17        7.3254    1.4440   10.4766 H         1 RES1    0.0000
     34 H18        8.1514    0.3041    9.7846 H         1 RES1    0.0000
     35 C17        7.6127    2.1283    7.9222 C.3       1 RES1    0.0000
     36 H19        7.2581    2.3936    7.0707 H         1 RES1    0.0000
     37 H20        8.4901    1.7579    7.8017 H         1 RES1    0.0000
     38 H21        7.6650    2.8938    8.4993 H         1 RES1    0.0000
     39 C18        4.9864    1.9396    3.9666 C.ar      1 RES1    0.0000
     40 C19        5.0888    1.4977    2.6519 C.ar      1 RES1    0.0000
     41 C20        5.9216    2.0873    1.7225 C.ar      1 RES1    0.0000
     42 H22        5.9663    1.7736    0.8487 H         1 RES1    0.0000
     43 C21        6.6828    3.1567    2.1374 C.ar      1 RES1    0.0000
     44 C22        6.6104    3.6598    3.4070 C.ar      1 RES1    0.0000
     45 H23        7.1194    4.3967    3.6592 H         1 RES1    0.0000
     46 C23        5.7604    3.0431    4.3056 C.ar      1 RES1    0.0000
     47 H24        5.7043    3.3804    5.1711 H         1 RES1    0.0000
     48 N1         4.2968    0.3655    2.1322 N.pl3     1 RES1    0.0000
     49 N2         7.5816    3.7948    1.1699 N.pl3     1 RES1    0.0000
     50 O1         3.6160    2.8040    7.5444 O.3       1 RES1    0.0000
     51 O2         2.0700    2.0045    3.1700 O.2       1 RES1    0.0000
     52 O3         6.1034   -0.5289    5.3441 O.2       1 RES1    0.0000
     53 O4         4.1545   -0.6204    2.8186 O.2       1 RES1    0.0000
     54 O5         3.8412    0.4858    1.0106 O.2       1 RES1    0.0000
     55 O6         7.6177    3.3653    0.0429 O.2       1 RES1    0.0000
     56 O7         8.2146    4.7626    1.5371 O.2       1 RES1    0.0000
@<TRIPOS>BOND
     1    1    2 1
     2    2    3 1
     3    4    2 1
     4    5    2 1
     5    6    5 1
     6    7    6 1
     7    8    6 1
     8    9    6 1
     9   10    1 2
    10   11   10 1
    11   12   11 1
    12   13   11 1
    13   14   13 1
    14   15   14 1
    15   16   15 1
    16   17   15 1
    17   18   15 1
    18   19   18 1
    19   20   19 1
    20   21   19 1
    21   22   13 2
    22   23    5 1
    23   24   23 1
    24   25   23 1
    25   26   23 1
    26   27    5 1
    27   28   27 1
    28   29   27 1
    29   30   27 1
    30   31   18 1
    31   32   31 1
    32   33   31 1
    33   34   31 1
    34   35   18 1
    35   36   35 1
    36   37   35 1
    37   38   35 1
    38   39   11 1
    39   40   39 ar
    40   41   40 ar
    41   42   41 1
    42   43   41 ar
    43   44   43 ar
    44   45   44 1
    45   46   39 ar
    46   47   46 1
    47   48   40 1
    48   49   43 1
    49   50    1 1
    50   51    9 2
    51   52   14 2
    52   53   48 2
    53   54   48 2
    54   55   49 2
    55   56   49 2
    56    9   10 1
    57   19   22 1
    58   22   50 1
    59   44   46 ar
@<TRIPOS>SUBSTRUCTURE
     1 RES1 1

@<TRIPOS>CRYSIN
   9.7733   19.6193   11.7922  90.0000 109.6030  90.0000  14 1

