# MOL2 file generated by ConQuest
# Please check atom types

@<TRIPOS>MOLECULE
LESFOF
    23    23     1
SMALL
NO_CHARGES
****
Generated from CSD

@<TRIPOS>ATOM
      1 O1        -0.0898    0.6530    6.7795 O.2       1 RES1    0.0000
      2 O2         3.9624    3.2590    7.7142 O.2       1 RES1    0.0000
      3 O3         5.3966    3.8115    6.2052 O.2       1 RES1    0.0000
      4 O4         5.2076    2.5191    1.7666 O.2       1 RES1    0.0000
      5 O5         3.6552    1.1940    1.0318 O.2       1 RES1    0.0000
      6 N1         1.8202    1.8954    7.0415 N.am      1 RES1    0.0000
      7 H1         2.3275    2.3431    7.6402 H         1 RES1    0.0000
      8 N2         4.3661    3.2477    6.5468 N.pl3     1 RES1    0.0000
      9 N3         4.1811    1.8666    1.9163 N.pl3     1 RES1    0.0000
     10 C1         2.3604    1.9086    5.7665 C.ar      1 RES1    0.0000
     11 C2         3.6053    2.5351    5.5153 C.ar      1 RES1    0.0000
     12 C3         4.1980    2.5135    4.2609 C.ar      1 RES1    0.0000
     13 H2         5.0405    2.9088    4.1681 H         1 RES1    0.0000
     14 C4         3.5405    1.8814    3.2324 C.ar      1 RES1    0.0000
     15 C5         2.2984    1.2875    3.4114 C.ar      1 RES1    0.0000
     16 H3         1.8577    0.8266    2.6784 H         1 RES1    0.0000
     17 C6         1.7183    1.3043    4.6666 C.ar      1 RES1    0.0000
     18 H4         0.8778    0.8816    4.7741 H         1 RES1    0.0000
     19 C7         0.6467    1.3124    7.4872 C.2       1 RES1    0.0000
     20 C8         0.3697    1.5910    8.9350 C.3       1 RES1    0.0000
     21 H5        -0.4102    1.1519    9.2247 H         1 RES1    0.0000
     22 H6         1.1203    1.3813    9.4554 H         1 RES1    0.0000
     23 H7         0.2101    2.5270    9.0517 H         1 RES1    0.0000
@<TRIPOS>BOND
     1    1   19 2
     2    2    8 2
     3    3    8 2
     4    4    9 2
     5    5    9 2
     6    6    7 1
     7    8   11 1
     8    9   14 1
     9   10    6 1
    10   11   10 ar
    11   12   11 ar
    12   13   12 1
    13   14   12 ar
    14   15   14 ar
    15   16   15 1
    16   17   10 ar
    17   18   17 1
    18   19    6 1
    19   20   19 1
    20   21   20 1
    21   22   20 1
    22   23   20 1
    23   15   17 ar
@<TRIPOS>SUBSTRUCTURE
     1 RES1 1

@<TRIPOS>CRYSIN
   6.0813   15.7150    9.7811  90.0000  92.0180  90.0000 231 1

