# MOL2 file generated by ConQuest
# Please check atom types

@<TRIPOS>MOLECULE
LESFOF01
    23    23     1
SMALL
NO_CHARGES
****
Generated from CSD

@<TRIPOS>ATOM
      1 O1         3.3837   -2.2046    0.6490 O.2       1 RES1    0.0000
      2 O2         2.9757    1.0626    4.3027 O.2       1 RES1    0.0000
      3 O3         4.5678    2.3897    4.8955 O.2       1 RES1    0.0000
      4 O4         8.8677    2.2961    3.0503 O.2       1 RES1    0.0000
      5 O5         9.4051    0.8175    1.5518 O.2       1 RES1    0.0000
      6 N1         3.3235   -0.6759    2.3574 N.am      1 RES1    0.0000
      7 H1         2.7620   -0.2801    2.9705 H         1 RES1    0.0000
      8 N2         4.1436    1.4643    4.2203 N.pl3     1 RES1    0.0000
      9 N3         8.6089    1.3359    2.3264 N.pl3     1 RES1    0.0000
     10 C1         4.6325   -0.2086    2.3819 C.ar      1 RES1    0.0000
     11 C2         5.0477    0.8136    3.2677 C.ar      1 RES1    0.0000
     12 C3         6.3499    1.3070    3.2659 C.ar      1 RES1    0.0000
     13 H2         6.5632    2.0024    3.8629 H         1 RES1    0.0000
     14 C4         7.2544    0.7758    2.3806 C.ar      1 RES1    0.0000
     15 C5         6.9061   -0.2409    1.5083 C.ar      1 RES1    0.0000
     16 H3         7.4939   -0.6208    0.9035 H         1 RES1    0.0000
     17 C6         5.6159   -0.7272    1.5144 C.ar      1 RES1    0.0000
     18 H4         5.3953   -1.3956    0.9201 H         1 RES1    0.0000
     19 C7         2.7509   -1.5950    1.4876 C.2       1 RES1    0.0000
     20 C8         1.2787   -1.7863    1.6907 C.3       1 RES1    0.0000
     21 H5         0.8536   -2.2218    0.9367 H         1 RES1    0.0000
     22 H6         0.8289   -0.9709    1.8513 H         1 RES1    0.0000
     23 H7         1.1842   -2.3665    2.4929 H         1 RES1    0.0000
@<TRIPOS>BOND
     1    1   19 2
     2    2    8 2
     3    3    8 2
     4    4    9 2
     5    5    9 2
     6    6    7 1
     7    8   11 1
     8    9   14 1
     9   10    6 1
    10   11   10 ar
    11   12   11 ar
    12   13   12 1
    13   14   12 ar
    14   15   14 ar
    15   16   15 1
    16   17   10 ar
    17   18   17 1
    18   19    6 1
    19   20   19 1
    20   21   20 1
    21   22   20 1
    22   23   20 1
    23   15   17 ar
@<TRIPOS>SUBSTRUCTURE
     1 RES1 1

@<TRIPOS>CRYSIN
  10.6916    4.6677   18.5697  90.0000  96.8080  90.0000 231 1

