# MOL2 file generated by ConQuest
# Please check atom types

@<TRIPOS>MOLECULE
LESHUP
    44    48     1
SMALL
NO_CHARGES
****
Generated from CSD

@<TRIPOS>ATOM
      1 O1        -0.4577   17.9427    5.7263 O.2       1 RES1    0.0000
      2 O2         0.9920   19.5709    5.4758 O.2       1 RES1    0.0000
      3 O3         3.8992    9.3094    5.1275 O.3       1 RES1    0.0000
      4 N1         2.1999   13.7772    5.3441 N.ar      1 RES1    0.0000
      5 N2         4.8710   14.7232    5.1193 N.ar      1 RES1    0.0000
      6 N3         0.6929   18.3605    5.5518 N.pl3     1 RES1    0.0000
      7 C1         1.7788   17.3931    5.4249 C.ar      1 RES1    0.0000
      8 C2         1.4525   16.0449    5.4412 C.ar      1 RES1    0.0000
      9 H1         0.5496   15.7609    5.5227 H         1 RES1    0.0000
     10 C3         2.5052   15.1054    5.3325 C.ar      1 RES1    0.0000
     11 C4         3.2335   12.9331    5.2443 C.ar      1 RES1    0.0000
     12 C5         4.5875   13.4302    5.1295 C.ar      1 RES1    0.0000
     13 C6         3.8315   15.5761    5.2158 C.ar      1 RES1    0.0000
     14 C7         4.0877   16.9593    5.1927 C.ar      1 RES1    0.0000
     15 H2         4.9841   17.2621    5.1037 H         1 RES1    0.0000
     16 C8         3.0846   17.8757    5.2945 C.ar      1 RES1    0.0000
     17 H3         3.2652   18.8083    5.2772 H         1 RES1    0.0000
     18 C9         5.6818   12.4842    5.0229 C.ar      1 RES1    0.0000
     19 C10        5.3949   11.1046    5.0107 C.ar      1 RES1    0.0000
     20 C11        4.0289   10.6567    5.1289 C.ar      1 RES1    0.0000
     21 C12        2.5562    8.7224    5.0908 C.3       1 RES1    0.0000
     22 C13        1.6263    9.5640    5.9436 C.3       1 RES1    0.0000
     23 H4         1.9365    9.5443    6.8837 H         1 RES1    0.0000
     24 H5         0.7153    9.1782    5.9143 H         1 RES1    0.0000
     25 C14        1.5788   11.0097    5.4575 C.3       1 RES1    0.0000
     26 H6         1.0777   11.0598    4.6055 H         1 RES1    0.0000
     27 H7         1.1114   11.5718    6.1253 H         1 RES1    0.0000
     28 C15        2.9678   11.5168    5.2558 C.ar      1 RES1    0.0000
     29 C16        2.1034    8.6391    3.6494 C.3       1 RES1    0.0000
     30 H8         1.2205    8.2152    3.6083 H         1 RES1    0.0000
     31 H9         2.7456    8.1063    3.1357 H         1 RES1    0.0000
     32 H10        2.0503    9.5414    3.2709 H         1 RES1    0.0000
     33 C17        2.7497    7.3317    5.6734 C.3       1 RES1    0.0000
     34 H11        1.9090    6.8316    5.6107 H         1 RES1    0.0000
     35 H12        3.0166    7.4055    6.6132 H         1 RES1    0.0000
     36 H13        3.4474    6.8617    5.1710 H         1 RES1    0.0000
     37 C18        6.4697   10.1874    4.8933 C.ar      1 RES1    0.0000
     38 H14        6.2951    9.2537    4.8835 H         1 RES1    0.0000
     39 C19        7.7588   10.6403    4.7948 C.ar      1 RES1    0.0000
     40 H15        8.4712   10.0175    4.7141 H         1 RES1    0.0000
     41 C20        8.0347   12.0082    4.8104 C.ar      1 RES1    0.0000
     42 H16        8.9316   12.3148    4.7457 H         1 RES1    0.0000
     43 C21        7.0057   12.9078    4.9211 C.ar      1 RES1    0.0000
     44 H17        7.1990   13.8378    4.9281 H         1 RES1    0.0000
@<TRIPOS>BOND
     1    1    6 2
     2    2    6 2
     3    3   20 1
     4    4   10 ar
     5    5   12 ar
     6    6    7 1
     7    7    8 ar
     8    8    9 1
     9   10    8 ar
    10   11    4 ar
    11   12   11 ar
    12   13    5 ar
    13   14   13 ar
    14   15   14 1
    15   16    7 ar
    16   17   16 1
    17   18   12 ar
    18   19   18 ar
    19   20   19 ar
    20   21    3 1
    21   22   21 1
    22   23   22 1
    23   24   22 1
    24   25   22 1
    25   26   25 1
    26   27   25 1
    27   28   11 ar
    28   29   21 1
    29   30   29 1
    30   31   29 1
    31   32   29 1
    32   33   21 1
    33   34   33 1
    34   35   33 1
    35   36   33 1
    36   37   19 ar
    37   38   37 1
    38   39   37 ar
    39   40   39 1
    40   41   39 ar
    41   42   41 1
    42   43   18 ar
    43   44   43 1
    44   10   13 ar
    45   14   16 ar
    46   20   28 ar
    47   25   28 1
    48   41   43 ar
@<TRIPOS>SUBSTRUCTURE
     1 RES1 1

@<TRIPOS>CRYSIN
   9.9041   25.1070    6.7920  90.0000  91.5270  90.0000  14 1

