# MOL2 file generated by ConQuest
# Please check atom types

@<TRIPOS>MOLECULE
LESKAW
    61    64     1
SMALL
USER_CHARGES
****
Generated from CSD

@<TRIPOS>ATOM
      1 C1        11.5041    1.1246    4.7197 C.3       1 RES1    0.0000
      2 N1        12.8319    1.5040    4.1768 N.2       1 RES1    0.0000
      3 N2        13.7535    0.7444    4.4652 N.1       1 RES1    1.0000
      4 N3        14.6892    0.1427    4.6319 N.2       1 RES1   -1.0000
      5 C2        11.3896    1.4793    6.1804 C.3       1 RES1    0.0000
      6 O1        12.2569    0.5683    6.8968 O.3       1 RES1    0.0000
      7 C3        13.2407    1.0632    7.6652 C.2       1 RES1    0.0000
      8 O2        13.3846    2.2317    7.9061 O.2       1 RES1    0.0000
      9 C4        14.1372   -0.0183    8.1372 C.ar      1 RES1    0.0000
     10 C5        13.7721   -1.3502    8.0892 C.ar      1 RES1    0.0000
     11 C6        14.6412   -2.3313    8.5022 C.ar      1 RES1    0.0000
     12 C7        15.8878   -1.9607    8.9269 C.ar      1 RES1    0.0000
     13 C8        16.2816   -0.6488    8.9948 C.ar      1 RES1    0.0000
     14 C9        15.3921    0.3260    8.6129 C.ar      1 RES1    0.0000
     15 N4        16.8546   -3.0072    9.2971 N.pl3     1 RES1    0.0000
     16 O3        16.4693   -4.1557    9.3582 O.2       1 RES1    0.0000
     17 O4        18.0054   -2.6708    9.5143 O.2       1 RES1    0.0000
     18 C10        9.9682    1.3159    6.6809 C.3       1 RES1    0.0000
     19 O5        10.0080    1.6116    8.0703 O.3       1 RES1    0.0000
     20 C11        8.9199    1.1135    8.8493 C.3       1 RES1    0.0000
     21 C12        8.8356   -0.3834    8.8981 C.ar      1 RES1    0.0000
     22 C13        7.6236   -1.0074    8.7652 C.ar      1 RES1    0.0000
     23 C14        7.5169   -2.3751    8.8755 C.ar      1 RES1    0.0000
     24 C15        8.6334   -3.1156    9.0869 C.ar      1 RES1    0.0000
     25 C16        9.8632   -2.5106    9.2048 C.ar      1 RES1    0.0000
     26 C17        9.9567   -1.1477    9.1101 C.ar      1 RES1    0.0000
     27 C18        9.0460    2.2381    5.9119 C.3       1 RES1    0.0000
     28 O6         7.6987    1.7590    6.0887 O.3       1 RES1    0.0000
     29 C19        6.7392    2.8143    5.9976 C.3       1 RES1    0.0000
     30 C20        5.3630    2.2205    6.0115 C.ar      1 RES1    0.0000
     31 C21        4.6481    2.1719    7.1846 C.ar      1 RES1    0.0000
     32 C22        3.3782    1.7096    7.2130 C.ar      1 RES1    0.0000
     33 C23        2.7866    1.2609    6.0891 C.ar      1 RES1    0.0000
     34 C24        3.4755    1.2872    4.8920 C.ar      1 RES1    0.0000
     35 C25        4.7779    1.7814    4.8575 C.ar      1 RES1    0.0000
     36 C26        9.3828    2.3114    4.4620 C.2       1 RES1    0.0000
     37 C27       10.4638    1.8236    3.9248 C.2       1 RES1    0.0000
     38 H1        11.4209    0.2168    4.6319 H         1 RES1    0.0000
     39 H2        11.6972    2.3991    6.3431 H         1 RES1    0.0000
     40 H3        12.8870   -1.5821    7.7353 H         1 RES1    0.0000
     41 H4        14.4412   -3.1985    8.4690 H         1 RES1    0.0000
     42 H5        17.1583   -0.4137    9.2901 H         1 RES1    0.0000
     43 H6        15.6172    1.2179    8.6601 H         1 RES1    0.0000
     44 H7         9.6955    0.3794    6.5545 H         1 RES1    0.0000
     45 H8         9.1436    1.4721    9.7434 H         1 RES1    0.0000
     46 H9         8.0474    1.4889    8.5361 H         1 RES1    0.0000
     47 H10        6.8758   -0.5085    8.6540 H         1 RES1    0.0000
     48 H11        6.6612   -2.8000    8.7983 H         1 RES1    0.0000
     49 H12        8.6800   -3.9294    9.1479 H         1 RES1    0.0000
     50 H13       10.6900   -2.9299    9.3958 H         1 RES1    0.0000
     51 H14       10.7753   -0.6536    9.1682 H         1 RES1    0.0000
     52 H15        9.0990    3.1291    6.3310 H         1 RES1    0.0000
     53 H16        6.8874    3.2065    5.1542 H         1 RES1    0.0000
     54 H17        6.9267    3.5061    6.7639 H         1 RES1    0.0000
     55 H18        5.0652    2.4748    8.0483 H         1 RES1    0.0000
     56 H19        2.8008    1.6929    7.9894 H         1 RES1    0.0000
     57 H20        1.9131    0.9254    6.0972 H         1 RES1    0.0000
     58 H21        3.1559    1.0098    4.0831 H         1 RES1    0.0000
     59 H22        5.2707    1.7957    4.0384 H         1 RES1    0.0000
     60 H23        8.7964    2.7410    3.9896 H         1 RES1    0.0000
     61 H24       10.6603    1.8643    2.9754 H         1 RES1    0.0000
@<TRIPOS>BOND
     1    1    2 1
     2    2    3 2
     3    3    4 2
     4    5    1 1
     5    6    5 1
     6    7    6 1
     7    8    7 2
     8    9    7 1
     9   10    9 ar
    10   11   10 ar
    11   12   11 ar
    12   13   12 ar
    13   14    9 ar
    14   15   12 1
    15   16   15 2
    16   17   15 2
    17   18    5 1
    18   19   18 1
    19   20   19 1
    20   21   20 1
    21   22   21 ar
    22   23   22 ar
    23   24   23 ar
    24   25   24 ar
    25   26   21 ar
    26   27   18 1
    27   28   27 1
    28   29   28 1
    29   30   29 1
    30   31   30 ar
    31   32   31 ar
    32   33   32 ar
    33   34   33 ar
    34   35   30 ar
    35   36   27 1
    36   37    1 1
    37   38    1 1
    38   39    5 1
    39   40   10 1
    40   41   11 1
    41   42   13 1
    42   43   14 1
    43   44   18 1
    44   45   20 1
    45   46   20 1
    46   47   22 1
    47   48   23 1
    48   49   24 1
    49   50   25 1
    50   51   26 1
    51   52   27 1
    52   53   29 1
    53   54   29 1
    54   55   31 1
    55   56   32 1
    56   57   33 1
    57   58   34 1
    58   59   35 1
    59   60   36 1
    60   61   37 1
    61   13   14 ar
    62   25   26 ar
    63   34   35 ar
    64   36   37 2
@<TRIPOS>SUBSTRUCTURE
     1 RES1 1

@<TRIPOS>CRYSIN
  15.3150    7.9703   20.3670  90.0000  93.7200  90.0000  14 1

