# MOL2 file generated by ConQuest
# Please check atom types

@<TRIPOS>MOLECULE
LESLIG
    36    37     1
SMALL
NO_CHARGES
****
Generated from CSD

@<TRIPOS>ATOM
      1 O1         1.3534    0.8007    4.4423 O.3       1 RES1    0.0000
      2 O2        -0.5106    0.9303    5.6599 O.2       1 RES1    0.0000
      3 O3        -0.3274    0.8582    8.2714 O.3       1 RES1    0.0000
      4 O4         3.9671    0.0139   10.0768 O.3       1 RES1    0.0000
      5 O5         5.5895   -0.1497    5.5492 O.2       1 RES1    0.0000
      6 O6        12.1955   -1.5182    6.9803 O.2       1 RES1    0.0000
      7 O7        11.8665   -1.0655    9.0390 O.2       1 RES1    0.0000
      8 N1         5.1120   -0.0624    7.7490 N.am      1 RES1    0.0000
      9 N2        11.4768   -1.2007    7.9004 N.pl3     1 RES1    0.0000
     10 C1         1.5536    0.5955    6.7708 C.ar      1 RES1    0.0000
     11 C2         0.9811    0.6267    8.0534 C.ar      1 RES1    0.0000
     12 C3         1.7806    0.4270    9.1633 C.ar      1 RES1    0.0000
     13 C4         3.1219    0.2087    9.0289 C.ar      1 RES1    0.0000
     14 C5         3.7207    0.1726    7.7496 C.ar      1 RES1    0.0000
     15 C6         2.9258    0.3681    6.6441 C.ar      1 RES1    0.0000
     16 C7         0.6987    0.7945    5.5977 C.2       1 RES1    0.0000
     17 C8         0.5289    0.9761    3.2594 C.3       1 RES1    0.0000
     18 C9         5.9655   -0.2170    6.7236 C.2       1 RES1    0.0000
     19 C10        7.3969   -0.4714    7.0876 C.ar      1 RES1    0.0000
     20 C11        7.8341   -0.7099    8.3824 C.ar      1 RES1    0.0000
     21 C12        9.1600   -0.9310    8.6632 C.ar      1 RES1    0.0000
     22 C13       10.0556   -0.9324    7.6282 C.ar      1 RES1    0.0000
     23 C14        9.6716   -0.7043    6.3319 C.ar      1 RES1    0.0000
     24 C15        8.3318   -0.4763    6.0700 C.ar      1 RES1    0.0000
     25 H1         5.4704   -0.1154    8.5290 H         1 RES1    0.0000
     26 H2         1.4003    0.4408   10.0120 H         1 RES1    0.0000
     27 H3        -0.6976    1.0253    7.5591 H         1 RES1    0.0000
     28 H4         3.5613    0.1275   10.7802 H         1 RES1    0.0000
     29 H5         3.3092    0.3488    5.7970 H         1 RES1    0.0000
     30 H6         1.0778    0.9125    2.4744 H         1 RES1    0.0000
     31 H7         0.1088    1.8386    3.2870 H         1 RES1    0.0000
     32 H8        -0.1447    0.2924    3.2347 H         1 RES1    0.0000
     33 H9         7.2150   -0.7210    9.0762 H         1 RES1    0.0000
     34 H10        9.4432   -1.0759    9.5371 H         1 RES1    0.0000
     35 H11       10.2978   -0.7021    5.6439 H         1 RES1    0.0000
     36 H12        8.0563   -0.3242    5.1950 H         1 RES1    0.0000
@<TRIPOS>BOND
     1    1   16 1
     2    2   16 2
     3    3   11 1
     4    4   13 1
     5    5   18 2
     6    6    9 2
     7    7    9 2
     8    8   14 1
     9    9   22 1
    10   10   11 ar
    11   11   12 ar
    12   12   13 ar
    13   13   14 ar
    14   14   15 ar
    15   15   10 ar
    16   16   10 1
    17   17    1 1
    18   18    8 1
    19   19   18 1
    20   20   19 ar
    21   21   20 ar
    22   22   21 ar
    23   23   22 ar
    24   24   19 ar
    25   25    8 1
    26   26   12 1
    27   27    3 1
    28   28    4 1
    29   29   15 1
    30   30   17 1
    31   31   17 1
    32   32   17 1
    33   33   20 1
    34   34   21 1
    35   35   23 1
    36   36   24 1
    37   23   24 ar
@<TRIPOS>SUBSTRUCTURE
     1 RES1 1

@<TRIPOS>CRYSIN
  30.4120    6.9325   14.9360  90.0000 111.7370  90.0000  15 1

