# MOL2 file generated by ConQuest
# Please check atom types

@<TRIPOS>MOLECULE
LESQAD
    72    72     3
SMALL
NO_CHARGES
****
Generated from CSD

@<TRIPOS>ATOM
      1 C1         4.7654    0.0271    7.5901 C.3       1 RES1    0.0000
      2 H1         5.6126    0.3070    7.9444 H         1 RES1    0.0000
      3 H2         4.7529   -0.9293    7.5055 H         1 RES1    0.0000
      4 H3         4.0631    0.3049    8.1836 H         1 RES1    0.0000
      5 C2         4.5656    0.6238    6.3077 C.ar      1 RES1    0.0000
      6 C3         4.8459   -0.1441    5.1512 C.ar      1 RES1    0.0000
      7 H4         5.1624   -1.0149    5.2177 H         1 RES1    0.0000
      8 C4         4.6416    0.4260    3.9659 C.ar      1 RES1    0.0000
      9 H5         4.8575   -0.0731    3.2105 H         1 RES1    0.0000
     10 C5         4.1288    1.7103    3.7609 C.ar      1 RES1    0.0000
     11 H6         3.9635    2.0402    2.9065 H         1 RES1    0.0000
     12 C6         3.8850    2.4495    4.8724 C.ar      1 RES1    0.0000
     13 H7         3.5898    3.3266    4.7879 H         1 RES1    0.0000
     14 C7         4.0805    1.8855    6.1703 C.ar      1 RES1    0.0000
     15 C8         2.6103    3.2420    7.6394 C.2       1 RES1    0.0000
     16 C9         0.2855    2.9611    7.4768 C.3       1 RES1    0.0000
     17 H8         0.1700    2.8442    8.4228 H         1 RES1    0.0000
     18 H9        -0.3632    2.4307    7.0073 H         1 RES1    0.0000
     19 H10        0.1663    3.8862    7.2519 H         1 RES1    0.0000
     20 N1         3.8099    2.7362    7.2811 N.am      1 RES1    0.0000
     21 O1         4.9091    3.5160    7.6958 O.3       1 RES1    0.0000
     22 H11        5.1093    3.3182    8.4660 H         1 RES1    0.0000
     23 O2         2.4603    4.1790    8.3926 O.2       1 RES1    0.0000
     24 O3         1.6157    2.5401    7.0992 O.3       1 RES1    0.0000
     25 C10        5.9493    4.1454   14.1148 C.3       2 RES2    0.0000
     26 H12        5.3943    4.6902   13.5524 H         2 RES2    0.0000
     27 H13        5.9967    4.5336   14.9913 H         2 RES2    0.0000
     28 H14        5.5755    3.2639   14.1747 H         2 RES2    0.0000
     29 C11        7.3382    4.0644   13.5247 C.ar      2 RES2    0.0000
     30 C12        8.4672    4.1636   14.3296 C.ar      2 RES2    0.0000
     31 H15        8.3614    4.2496   15.2503 H         2 RES2    0.0000
     32 C13        9.7346    4.1366   13.7988 C.ar      2 RES2    0.0000
     33 H16       10.4731    4.1932   14.3600 H         2 RES2    0.0000
     34 C14        9.9110    4.0259   12.4463 C.ar      2 RES2    0.0000
     35 H17       10.7690    4.0303   12.0884 H         2 RES2    0.0000
     36 C15        8.8191    3.9098   11.6162 C.ar      2 RES2    0.0000
     37 H18        8.9356    3.8319   10.6962 H         2 RES2    0.0000
     38 C16        7.5454    3.9102   12.1601 C.ar      2 RES2    0.0000
     39 C17        5.7278    2.6205   11.0930 C.2       2 RES2    0.0000
     40 C18        5.1531    0.5567   12.0776 C.3       2 RES2    0.0000
     41 H19        4.2230    0.7894   12.1081 H         2 RES2    0.0000
     42 H20        5.3745    0.0188   12.8402 H         2 RES2    0.0000
     43 H21        5.3331    0.0626   11.2736 H         2 RES2    0.0000
     44 N2         6.4220    3.7626   11.2840 N.am      2 RES2    0.0000
     45 O4         6.4190    4.6125   10.1624 O.3       2 RES2    0.0000
     46 H22        5.8751    5.2144   10.2772 H         2 RES2    0.0000
     47 O5         4.9657    2.4107   10.1795 O.2       2 RES2    0.0000
     48 O6         5.9522    1.7614   12.0903 O.3       2 RES2    0.0000
     49 C19        3.7832    9.1808    7.7196 C.3       3 RES3    0.0000
     50 H23        4.3112    9.2677    8.5181 H         3 RES3    0.0000
     51 H24        3.7034   10.0382    7.2951 H         3 RES3    0.0000
     52 H25        4.2086    8.5639    7.1188 H         3 RES3    0.0000
     53 C20        2.4514    8.6827    8.0685 C.ar      3 RES3    0.0000
     54 C21        1.2730    9.2551    7.5127 C.ar      3 RES3    0.0000
     55 H26        1.3467    9.9630    6.9138 H         3 RES3    0.0000
     56 C22        0.0648    8.7915    7.8347 C.ar      3 RES3    0.0000
     57 H27       -0.6889    9.1946    7.4678 H         3 RES3    0.0000
     58 C23       -0.0961    7.7223    8.7070 C.ar      3 RES3    0.0000
     59 H28       -0.9468    7.4112    8.9138 H         3 RES3    0.0000
     60 C24        0.9837    7.1441    9.2430 C.ar      3 RES3    0.0000
     61 H29        0.8922    6.4172    9.8149 H         3 RES3    0.0000
     62 C25        3.2117    7.8372   12.9305 C.3       3 RES3    0.0000
     63 H30        3.1222    6.9455   13.2718 H         3 RES3    0.0000
     64 H31        2.5706    8.4094   13.3582 H         3 RES3    0.0000
     65 H32        4.0979    8.1609   13.1082 H         3 RES3    0.0000
     66 C26        2.2792    7.6564    8.9284 C.ar      3 RES3    0.0000
     67 C27        3.7718    7.0169   10.8070 C.2       3 RES3    0.0000
     68 N3         3.4033    6.9973    9.5225 N.am      3 RES3    0.0000
     69 O7         4.2467    6.2593    8.6782 O.3       3 RES3    0.0000
     70 H33        3.9236    5.5172    8.5505 H         3 RES3    0.0000
     71 O8         4.7000    6.3961   11.2779 O.2       3 RES3    0.0000
     72 O9         2.9784    7.8343   11.5112 O.3       3 RES3    0.0000
@<TRIPOS>BOND
     1    1    2 1
     2    3    1 1
     3    4    1 1
     4    5    1 1
     5    6    5 ar
     6    7    6 1
     7    8    6 ar
     8    9    8 1
     9   10    8 ar
    10   11   10 1
    11   12   10 ar
    12   13   12 1
    13   14    5 ar
    14   15   20 1
    15   16   17 1
    16   18   16 1
    17   19   16 1
    18   20   14 1
    19   21   20 1
    20   22   21 1
    21   23   15 2
    22   24   15 1
    23   25   26 1
    24   27   25 1
    25   28   25 1
    26   29   25 1
    27   30   29 ar
    28   31   30 1
    29   32   30 ar
    30   33   32 1
    31   34   32 ar
    32   35   34 1
    33   36   34 ar
    34   37   36 1
    35   38   29 ar
    36   39   44 1
    37   40   41 1
    38   42   40 1
    39   43   40 1
    40   44   38 1
    41   45   44 1
    42   46   45 1
    43   47   39 2
    44   48   39 1
    45   49   50 1
    46   51   49 1
    47   52   49 1
    48   53   49 1
    49   54   53 ar
    50   55   54 1
    51   56   54 ar
    52   57   56 1
    53   58   56 ar
    54   59   58 1
    55   60   58 ar
    56   61   60 1
    57   62   63 1
    58   64   62 1
    59   65   62 1
    60   66   53 ar
    61   67   68 1
    62   68   66 1
    63   69   68 1
    64   70   69 1
    65   71   67 2
    66   72   62 1
    67   12   14 ar
    68   16   24 1
    69   36   38 ar
    70   40   48 1
    71   60   66 ar
    72   67   72 1
@<TRIPOS>SUBSTRUCTURE
     1 RES1 1
     2 RES2 25
     3 RES3 49

@<TRIPOS>CRYSIN
   7.6418   20.8825   18.0412  90.0000  94.4850  90.0000 231 1

