# MOL2 file generated by ConQuest
# Please check atom types

@<TRIPOS>MOLECULE
LESYEN
    24    25     1
SMALL
NO_CHARGES
****
Generated from CSD

@<TRIPOS>ATOM
      1 C1         0.7045    1.1919    2.1646 C.ar      1 RES1    0.0000
      2 C2        -0.2279    2.1232    1.7177 C.ar      1 RES1    0.0000
      3 H1        -0.9467    1.8747    1.0687 H         1 RES1    0.0000
      4 C3        -0.0771    3.4306    2.1007 C.ar      1 RES1    0.0000
      5 H2        -0.8032    4.0485    1.7988 H         1 RES1    0.0000
      6 C4         0.9813    3.7917    2.9096 C.ar      1 RES1    0.0000
      7 H3         1.0594    4.7607    3.1460 H         1 RES1    0.0000
      8 C5         1.8840    2.8400    3.3597 C.ar      1 RES1    0.0000
      9 H4         2.7411    3.0892    3.8106 H         1 RES1    0.0000
     10 C6         1.7586    1.5000    3.0016 C.ar      1 RES1    0.0000
     11 C7         2.7118    0.4977    3.5539 C.ar      1 RES1    0.0000
     12 C8         2.2501   -0.5061    4.4018 C.ar      1 RES1    0.0000
     13 H5         1.2902   -0.5265    4.6811 H         1 RES1    0.0000
     14 C9         3.1275   -1.4321    4.9409 C.ar      1 RES1    0.0000
     15 H6         2.8490   -2.1685    5.5571 H         1 RES1    0.0000
     16 C10        4.4686   -1.3837    4.6413 C.ar      1 RES1    0.0000
     17 H7         5.1283   -2.0378    5.0095 H         1 RES1    0.0000
     18 C11        4.9351   -0.3822    3.8168 C.ar      1 RES1    0.0000
     19 H8         5.8948   -0.1692    3.6343 H         1 RES1    0.0000
     20 C12        4.0584    0.5627    3.2653 C.ar      1 RES1    0.0000
     21 H9         4.4242    1.2954    2.6904 H         1 RES1    0.0000
     22 N1         0.5526   -0.1790    1.6584 N.pl3     1 RES1    0.0000
     23 O1         1.5278   -0.7598    1.2543 O.2       1 RES1    0.0000
     24 O2        -0.5437   -0.6768    1.6373 O.2       1 RES1    0.0000
@<TRIPOS>BOND
     1    1    2 ar
     2    2    3 1
     3    4    2 ar
     4    5    4 1
     5    6    4 ar
     6    7    6 1
     7    8    6 ar
     8    9    8 1
     9   10    1 ar
    10   11   10 1
    11   12   11 ar
    12   13   12 1
    13   14   12 ar
    14   15   14 1
    15   16   14 ar
    16   17   16 1
    17   18   16 ar
    18   19   18 1
    19   20   11 ar
    20   21   20 1
    21   22    1 1
    22   23   22 2
    23   24   22 2
    24    8   10 ar
    25   18   20 ar
@<TRIPOS>SUBSTRUCTURE
     1 RES1 1

@<TRIPOS>CRYSIN
  17.4620    7.5531    7.8964  90.0000  98.9370  90.0000 231 1

