# MOL2 file generated by ConQuest
# Please check atom types

@<TRIPOS>MOLECULE
LETJID
    46    48     1
SMALL
NO_CHARGES
****
Generated from CSD

@<TRIPOS>ATOM
      1 O1         4.8575    1.4832    3.6624 O.2       1 RES1    0.0000
      2 O2         3.3089    0.2941    4.7608 O.3       1 RES1    0.0000
      3 O3         3.0650   -2.4241   -1.0694 O.2       1 RES1    0.0000
      4 O4         1.5994   -3.6031   -0.0308 O.2       1 RES1    0.0000
      5 N1         0.5543    1.4247    4.5943 N.2       1 RES1    0.0000
      6 N2         0.9616    1.9428    5.6402 N.2       1 RES1    0.0000
      7 N3         3.5579    4.4471    2.6889 N.1       1 RES1    0.0000
      8 N4         2.2366   -2.5778   -0.1828 N.pl3     1 RES1    0.0000
      9 C1         2.1586    2.8076    5.4701 C.3       1 RES1    0.0000
     10 C2         2.6623    2.3973    4.0243 C.3       1 RES1    0.0000
     11 C3         1.3460    1.8066    3.3837 C.3       1 RES1    0.0000
     12 C4         3.7526    1.3520    4.1075 C.2       1 RES1    0.0000
     13 C5         4.2609   -0.7537    5.0539 C.3       1 RES1    0.0000
     14 C6         3.1837    3.5404    3.2788 C.1       1 RES1    0.0000
     15 C7         0.4729    2.8277    2.6256 C.3       1 RES1    0.0000
     16 C8         1.5933    0.6234    2.4808 C.ar      1 RES1    0.0000
     17 C9         2.4417    0.7579    1.3915 C.ar      1 RES1    0.0000
     18 C10        2.6725   -0.2824    0.5139 C.ar      1 RES1    0.0000
     19 C11        2.0035   -1.4506    0.7383 C.ar      1 RES1    0.0000
     20 C12        1.1396   -1.6353    1.7878 C.ar      1 RES1    0.0000
     21 C13        0.9477   -0.5841    2.6636 C.ar      1 RES1    0.0000
     22 C14        1.6571    4.2582    5.5714 C.3       1 RES1    0.0000
     23 C15        3.1778    2.5494    6.5703 C.ar      1 RES1    0.0000
     24 C16        2.9610    1.5977    7.5474 C.ar      1 RES1    0.0000
     25 C17        3.9209    1.3996    8.5390 C.ar      1 RES1    0.0000
     26 C18        5.0693    2.1450    8.5372 C.ar      1 RES1    0.0000
     27 C19        5.2816    3.0800    7.5673 C.ar      1 RES1    0.0000
     28 C20        4.3340    3.2856    6.5775 C.ar      1 RES1    0.0000
     29 H1         5.0788   -0.3510    5.4285 H         1 RES1    0.0000
     30 H2         3.8561   -1.3704    5.6275 H         1 RES1    0.0000
     31 H3         4.5479   -1.1364    4.2342 H         1 RES1    0.0000
     32 H4         0.9653    3.1836    1.7914 H         1 RES1    0.0000
     33 H5        -0.2934    2.3397    2.3161 H         1 RES1    0.0000
     34 H6         0.2650    3.6349    3.1485 H         1 RES1    0.0000
     35 H7         0.9862    4.4955    4.8856 H         1 RES1    0.0000
     36 H8         1.2540    4.3451    6.4237 H         1 RES1    0.0000
     37 H9         2.3601    4.8548    5.3561 H         1 RES1    0.0000
     38 H10        2.8910    1.6211    1.2305 H         1 RES1    0.0000
     39 H11        3.3676   -0.2256   -0.2533 H         1 RES1    0.0000
     40 H12        0.6736   -2.4817    1.8276 H         1 RES1    0.0000
     41 H13        0.3291   -0.6434    3.4742 H         1 RES1    0.0000
     42 H14        2.1267    1.1030    7.5818 H         1 RES1    0.0000
     43 H15        3.7164    0.5933    9.1560 H         1 RES1    0.0000
     44 H16        5.7287    1.8885    9.2827 H         1 RES1    0.0000
     45 H17        6.0747    3.6850    7.5094 H         1 RES1    0.0000
     46 H18        4.4660    4.0025    5.8808 H         1 RES1    0.0000
@<TRIPOS>BOND
     1    1   12 2
     2    2   12 1
     3    3    8 2
     4    4    8 2
     5    5    6 2
     6    6    9 1
     7    7   14 3
     8    8   19 1
     9    9   10 1
    10   10   11 1
    11   11    5 1
    12   12   10 1
    13   13    2 1
    14   14   10 1
    15   15   11 1
    16   16   11 1
    17   17   16 ar
    18   18   17 ar
    19   19   18 ar
    20   20   19 ar
    21   21   16 ar
    22   22    9 1
    23   23    9 1
    24   24   23 ar
    25   25   24 ar
    26   26   25 ar
    27   27   26 ar
    28   28   23 ar
    29   29   13 1
    30   30   13 1
    31   31   13 1
    32   32   15 1
    33   33   15 1
    34   34   15 1
    35   35   22 1
    36   36   22 1
    37   37   22 1
    38   38   17 1
    39   39   18 1
    40   40   20 1
    41   41   21 1
    42   42   24 1
    43   43   25 1
    44   44   26 1
    45   45   27 1
    46   46   28 1
    47   20   21 ar
    48   27   28 ar
@<TRIPOS>SUBSTRUCTURE
     1 RES1 1

@<TRIPOS>CRYSIN
  12.5080    8.3560   18.2050  90.0000  96.3050  90.0000  14 1

