# MOL2 file generated by ConQuest
# Please check atom types

@<TRIPOS>MOLECULE
LETNAZ
    10    10     1
SMALL
NO_CHARGES
****
Generated from CSD

@<TRIPOS>ATOM
      1 N1         1.9597    0.5823    1.6921 N.pl3     1 RES1    0.0000
      2 C1         4.0258    0.0000    1.3610 C.2       1 RES1    0.0000
      3 C2         3.2000    0.9666    1.9183 C.2       1 RES1    0.0000
      4 C3         3.5087    2.2424    2.6480 C.3       1 RES1    0.0000
      5 N2         5.4378    0.0000    1.3610 N.pl3     1 RES1    0.0000
      6 O1         6.0069   -0.9455    0.8673 O.2       1 RES1    0.0000
      7 N1D        1.9597   -0.5823    1.0301 N.2       1 RES1    0.0000
      8 C2D        3.2000   -0.9666    0.8039 C.2       1 RES1    0.0000
      9 O1D        6.0069    0.9455    1.8549 O.2       1 RES1    0.0000
     10 C3D        3.5087   -2.2424    0.0742 C.3       1 RES1    0.0000
@<TRIPOS>BOND
     1    1    3 1
     2    2    3 2
     3    3    4 1
     4    5    2 1
     5    6    5 2
     6    7    1 1
     7    8    2 1
     8    9    5 2
     9   10    8 1
    10    7    8 2
@<TRIPOS>SUBSTRUCTURE
     1 RES1 1

@<TRIPOS>CRYSIN
  12.2253   12.2253    4.0833  90.0000  90.0000 120.0000 152 1

