# MOL2 file generated by ConQuest
# Please check atom types

@<TRIPOS>MOLECULE
LETPIJ
    51    54     1
SMALL
NO_CHARGES
****
Generated from CSD

@<TRIPOS>ATOM
      1 C1         3.5968    3.7568    4.1537 C.2       1 RES1    0.0000
      2 C2         4.3349    2.7704    3.2939 C.3       1 RES1    0.0000
      3 C3         4.1428    1.3192    3.7607 C.3       1 RES1    0.0000
      4 C4         4.1931    0.5130    2.5158 C.3       1 RES1    0.0000
      5 C5         3.8783    1.3046    1.3357 C.3       1 RES1    0.0000
      6 C6         3.7616    2.7704    1.8415 C.3       1 RES1    0.0000
      7 C7         4.3478    3.7524    0.9078 C.3       1 RES1    0.0000
      8 C8         3.6538    3.7671   -0.4928 C.3       1 RES1    0.0000
      9 C9         3.2724    5.2476   -0.7392 C.3       1 RES1    0.0000
     10 C10        3.3218    5.8632    0.6614 C.3       1 RES1    0.0000
     11 C11        4.3252    5.2476    1.3876 C.3       1 RES1    0.0000
     12 C12        4.6920    5.6287    2.7881 C.3       1 RES1    0.0000
     13 C13        3.7687    5.2182    3.8904 C.3       1 RES1    0.0000
     14 N1         2.8453    3.2878    5.0601 N.2       1 RES1    0.0000
     15 N2         2.1770    4.2450    5.8110 N.3       1 RES1    0.0000
     16 C14        1.2634    3.8521    6.7460 C.ar      1 RES1    0.0000
     17 C15        0.4378    4.7272    7.5085 C.ar      1 RES1    0.0000
     18 C16       -0.4562    4.3241    8.4422 C.ar      1 RES1    0.0000
     19 C17       -0.6373    2.9756    8.6367 C.ar      1 RES1    0.0000
     20 C18        0.1378    2.0521    7.9494 C.ar      1 RES1    0.0000
     21 C19        1.0837    2.4625    7.0027 C.ar      1 RES1    0.0000
     22 N3         0.5922    6.1578    7.3399 N.pl3     1 RES1    0.0000
     23 O1         1.5355    6.6474    6.7032 O.2       1 RES1    0.0000
     24 O2        -0.2717    6.8966    7.8677 O.2       1 RES1    0.0000
     25 N4        -1.6772    2.4919    9.6093 N.pl3     1 RES1    0.0000
     26 O3        -2.3630    3.3420   10.0865 O.2       1 RES1    0.0000
     27 O4        -1.7086    1.3046    9.7519 O.2       1 RES1    0.0000
     28 H1         5.3522    2.9888    3.1992 H         1 RES1    0.0000
     29 H2         4.9040    1.0451    4.3793 H         1 RES1    0.0000
     30 H3         3.2887    1.2210    4.2146 H         1 RES1    0.0000
     31 H4         5.1073    0.0132    2.4017 H         1 RES1    0.0000
     32 H5         3.5143   -0.2976    2.5806 H         1 RES1    0.0000
     33 H6         4.6549    1.2577    0.6497 H         1 RES1    0.0000
     34 H7         3.0583    0.9850    0.8546 H         1 RES1    0.0000
     35 H8         2.7714    3.0914    1.9154 H         1 RES1    0.0000
     36 H9         5.3151    3.3801    1.0271 H         1 RES1    0.0000
     37 H10        4.2909    3.4138   -1.2657 H         1 RES1    0.0000
     38 H11        2.8405    3.1588   -0.5589 H         1 RES1    0.0000
     39 H12        3.9720    5.7430   -1.3279 H         1 RES1    0.0000
     40 H13        2.3865    5.3853   -1.1749 H         1 RES1    0.0000
     41 H14        3.4106    6.8746    0.7405 H         1 RES1    0.0000
     42 H15        2.4511    5.6477    1.2294 H         1 RES1    0.0000
     43 H16        5.0719    5.9365    1.0699 H         1 RES1    0.0000
     44 H17        4.9417    6.6020    2.8633 H         1 RES1    0.0000
     45 H18        5.6092    5.1200    3.0215 H         1 RES1    0.0000
     46 H19        4.0451    5.7298    4.7191 H         1 RES1    0.0000
     47 H20        2.8771    5.6331    3.5818 H         1 RES1    0.0000
     48 H21        2.3447    5.2827    5.7098 H         1 RES1    0.0000
     49 H22       -1.0062    4.9910    8.9959 H         1 RES1    0.0000
     50 H23       -0.0412    1.0246    8.1335 H         1 RES1    0.0000
     51 H24        1.5766    1.7472    6.4231 H         1 RES1    0.0000
@<TRIPOS>BOND
     1    1    2 1
     2    2    3 1
     3    3    4 1
     4    4    5 1
     5    5    6 1
     6    6    2 1
     7    7    6 1
     8    8    7 1
     9    9    8 1
    10   10    9 1
    11   11    7 1
    12   12   11 1
    13   13    1 1
    14   14    1 2
    15   15   14 1
    16   16   15 1
    17   17   16 ar
    18   18   17 ar
    19   19   18 ar
    20   20   19 ar
    21   21   16 ar
    22   22   17 1
    23   23   22 2
    24   24   22 2
    25   25   19 1
    26   26   25 2
    27   27   25 2
    28   28    2 1
    29   29    3 1
    30   30    3 1
    31   31    4 1
    32   32    4 1
    33   33    5 1
    34   34    5 1
    35   35    6 1
    36   36    7 1
    37   37    8 1
    38   38    8 1
    39   39    9 1
    40   40    9 1
    41   41   10 1
    42   42   10 1
    43   43   11 1
    44   44   12 1
    45   45   12 1
    46   46   13 1
    47   47   13 1
    48   48   15 1
    49   49   18 1
    50   50   20 1
    51   51   21 1
    52   10   11 1
    53   12   13 1
    54   20   21 ar
@<TRIPOS>SUBSTRUCTURE
     1 RES1 1

@<TRIPOS>CRYSIN
   9.6220   14.6580   13.4940  90.0000 106.0500  90.0000  14 2

