# MOL2 file generated by ConQuest
# Please check atom types

@<TRIPOS>MOLECULE
LETPIK
    37    39     1
SMALL
USER_CHARGES
****
Generated from CSD

@<TRIPOS>ATOM
      1 N1         8.6588    1.1960   20.9931 N.pl3     1 RES1    1.0000
      2 O1         8.4924    3.3694   22.8289 O.2       1 RES1    0.0000
      3 O2         8.6263    4.7093   21.0147 O.3       1 RES1    0.0000
      4 O3         8.5786    0.6231   22.0801 O.2       1 RES1   -1.0000
      5 O4         8.7954    0.3070   19.8737 O.3       1 RES1    0.0000
      6 C1         8.7397    2.6114   19.1607 C.3       1 RES1    0.0000
      7 H1         9.5207    3.1812   18.9163 H         1 RES1    0.0000
      8 C2         8.9392    1.1557   18.6762 C.3       1 RES1    0.0000
      9 H2         9.8323    1.0268   18.2393 H         1 RES1    0.0000
     10 C3         7.8194    0.9080   17.7301 C.2       1 RES1    0.0000
     11 H3         7.6981    0.0926   17.2572 H         1 RES1    0.0000
     12 C4         7.0172    1.9429   17.6184 C.2       1 RES1    0.0000
     13 C5         7.4349    3.1188   18.4707 C.3       1 RES1    0.0000
     14 H4         6.7387    3.3402   19.1391 H         1 RES1    0.0000
     15 H5         7.6139    3.9171   17.9126 H         1 RES1    0.0000
     16 C6         5.8264    2.0023   16.8030 C.1       1 RES1    0.0000
     17 C7         4.8319    2.0909   16.1389 C.1       1 RES1    0.0000
     18 C8         3.6180    2.1634   15.3753 C.ar      1 RES1    0.0000
     19 C9         3.1711    1.0570   14.6593 C.ar      1 RES1    0.0000
     20 H6         3.6922    0.2627   14.6312 H         1 RES1    0.0000
     21 C10        1.9545    1.1225   13.9866 C.ar      1 RES1    0.0000
     22 H7         1.6343    0.3654   13.5107 H         1 RES1    0.0000
     23 C11        1.2126    2.2842   14.0104 C.ar      1 RES1    0.0000
     24 H8         0.3746    2.3194   13.5648 H         1 RES1    0.0000
     25 C12        1.6814    3.3946   14.6788 C.ar      1 RES1    0.0000
     26 H9         1.1801    4.2020   14.6680 H         1 RES1    0.0000
     27 C13        2.8675    3.3352   15.3558 C.ar      1 RES1    0.0000
     28 H10        3.1824    4.1023   15.8188 H         1 RES1    0.0000
     29 C14        8.6309    2.4644   20.6187 C.2       1 RES1    0.0000
     30 C15        8.5792    3.5164   21.6353 C.2       1 RES1    0.0000
     31 C16        8.6415    5.8660   21.9100 C.3       1 RES1    0.0000
     32 H11        9.4365    5.8328   22.4984 H         1 RES1    0.0000
     33 H12        7.8300    5.8721   22.4768 H         1 RES1    0.0000
     34 C17        8.6840    7.0942   21.0535 C.3       1 RES1    0.0000
     35 H13        7.9016    7.1073   20.4629 H         1 RES1    0.0000
     36 H14        9.5015    7.0872   20.5127 H         1 RES1    0.0000
     37 H15        8.6760    7.8905   21.6245 H         1 RES1    0.0000
@<TRIPOS>BOND
     1    1    4 1
     2    2   30 2
     3    3   30 1
     4    5    1 1
     5    6    7 1
     6    8    5 1
     7    9    8 1
     8   10    8 1
     9   11   10 1
    10   12   10 2
    11   13    6 1
    12   14   13 1
    13   15   13 1
    14   16   12 1
    15   17   16 3
    16   18   17 1
    17   19   18 ar
    18   20   19 1
    19   21   19 ar
    20   22   21 1
    21   23   21 ar
    22   24   23 1
    23   25   23 ar
    24   26   25 1
    25   27   18 ar
    26   28   27 1
    27   29    1 2
    28   30   29 1
    29   31    3 1
    30   32   31 1
    31   33   31 1
    32   34   31 1
    33   35   34 1
    34   36   34 1
    35   37   34 1
    36    6    8 1
    37    6   29 1
    38   12   13 1
    39   25   27 ar
@<TRIPOS>SUBSTRUCTURE
     1 RES1 1

@<TRIPOS>CRYSIN
   6.6300   10.0670   21.6310  90.0000  90.0000  90.0000  19 1

