# MOL2 file generated by ConQuest
# Please check atom types

@<TRIPOS>MOLECULE
LEVKEE
    31    31     1
SMALL
NO_CHARGES
****
Generated from CSD

@<TRIPOS>ATOM
      1 O1         0.2677    0.9621    2.1733 O.2       1 RES1    0.0000
      2 O2         1.1013    2.5487    3.2903 O.2       1 RES1    0.0000
      3 O3         4.2055    0.4936    1.0174 O.2       1 RES1    0.0000
      4 O4         3.7776    0.9424    3.0517 O.2       1 RES1    0.0000
      5 N1         0.9771    1.8921    2.2538 N.pl3     1 RES1    0.0000
      6 N2         3.7833    1.2138    1.8821 N.pl3     1 RES1    0.0000
      7 C1         1.7661    2.3889    1.0246 C.3       1 RES1    0.0000
      8 C2         1.1647    3.7540    0.7138 C.3       1 RES1    0.0000
      9 H1         1.2696    4.3301    1.4741 H         1 RES1    0.0000
     10 H2         0.2315    3.6546    0.5138 H         1 RES1    0.0000
     11 H3         1.6148    4.1371   -0.0433 H         1 RES1    0.0000
     12 C3         1.5660    1.4175   -0.1072 C.3       1 RES1    0.0000
     13 H4         1.9146    0.5588    0.1424 H         1 RES1    0.0000
     14 H5         2.0272    1.7351   -0.8863 H         1 RES1    0.0000
     15 H6         0.6284    1.3395   -0.2996 H         1 RES1    0.0000
     16 C4         3.2238    2.5555    1.4859 C.3       1 RES1    0.0000
     17 H7         3.2136    3.1171    2.2887 H         1 RES1    0.0000
     18 C5         4.1473    3.2210    0.4796 C.3       1 RES1    0.0000
     19 H8         4.1431    2.7108   -0.3452 H         1 RES1    0.0000
     20 H9         3.8180    4.1120    0.2825 H         1 RES1    0.0000
     21 C6         5.5691    3.3163    1.0050 C.ar      1 RES1    0.0000
     22 C7         6.5753    2.5698    0.4339 C.ar      1 RES1    0.0000
     23 H10        6.3898    2.0227   -0.2951 H         1 RES1    0.0000
     24 C8         7.8631    2.6303    0.9411 C.ar      1 RES1    0.0000
     25 H11        8.5373    2.1289    0.5411 H         1 RES1    0.0000
     26 C9         8.1589    3.4155    2.0188 C.ar      1 RES1    0.0000
     27 H12        9.0181    3.4240    2.3741 H         1 RES1    0.0000
     28 C10        7.1671    4.1946    2.5712 C.ar      1 RES1    0.0000
     29 H13        7.3655    4.7557    3.2855 H         1 RES1    0.0000
     30 C11        5.8765    4.1494    2.0701 C.ar      1 RES1    0.0000
     31 H14        5.2136    4.6795    2.4493 H         1 RES1    0.0000
@<TRIPOS>BOND
     1    1    5 2
     2    2    5 2
     3    3    6 2
     4    4    6 2
     5    5    7 1
     6    6   16 1
     7    7    8 1
     8    8    9 1
     9   10    8 1
    10   11    8 1
    11   12    7 1
    12   13   12 1
    13   14   12 1
    14   15   12 1
    15   16    7 1
    16   17   16 1
    17   18   16 1
    18   19   18 1
    19   20   18 1
    20   21   18 1
    21   22   21 ar
    22   23   22 1
    23   24   22 ar
    24   25   24 1
    25   26   24 ar
    26   27   26 1
    27   28   26 ar
    28   29   28 1
    29   30   21 ar
    30   31   30 1
    31   28   30 ar
@<TRIPOS>SUBSTRUCTURE
     1 RES1 1

@<TRIPOS>CRYSIN
  11.0598    9.6504   12.3144  90.0000 112.3150  90.0000 231 1

