# MOL2 file generated by ConQuest
# Please check atom types

@<TRIPOS>MOLECULE
LEVNUW01
    28    29     1
SMALL
NO_CHARGES
****
Generated from CSD

@<TRIPOS>ATOM
      1 C1        -0.5404    3.1489    2.0631 C.ar      1 RES1    0.0000
      2 N1        -1.4084    2.1305    1.9255 N.3       1 RES1    0.0000
      3 H1        -1.6344    1.6973    2.6326 H         1 RES1    0.0000
      4 C2         1.2523    5.2326    2.4558 C.ar      1 RES1    0.0000
      5 C3        -0.0295    3.8778    0.9859 C.ar      1 RES1    0.0000
      6 H2        -0.2966    3.6617    0.1210 H         1 RES1    0.0000
      7 C4         0.8453    4.8911    1.1745 C.ar      1 RES1    0.0000
      8 H3         1.1758    5.3600    0.4425 H         1 RES1    0.0000
      9 C5        -0.1099    3.5200    3.3646 C.ar      1 RES1    0.0000
     10 H4        -0.4342    3.0592    4.1037 H         1 RES1    0.0000
     11 C6         0.7691    4.5373    3.5425 C.ar      1 RES1    0.0000
     12 H5         1.0459    4.7657    4.4015 H         1 RES1    0.0000
     13 C7        -1.0778    0.8471   -0.1625 C.ar      1 RES1    0.0000
     14 N2         2.1914    6.3009    2.6433 N.pl3     1 RES1    0.0000
     15 C8        -0.5447   -0.3252    0.3168 C.ar      1 RES1    0.0000
     16 H6        -0.7420   -0.6086    1.1793 H         1 RES1    0.0000
     17 C9        -1.9854    1.7187    0.6667 C.3       1 RES1    0.0000
     18 H7        -2.2129    2.5087    0.1530 H         1 RES1    0.0000
     19 H8        -2.8074    1.2345    0.8423 H         1 RES1    0.0000
     20 N3         0.6053   -0.7319   -1.7321 N.ar      1 RES1    0.0000
     21 C10        0.0719    0.3904   -2.1853 C.ar      1 RES1    0.0000
     22 H9         0.2777    0.6494   -3.0549 H         1 RES1    0.0000
     23 O1         2.5453    6.9676    1.6811 O.2       1 RES1    0.0000
     24 O2         2.6167    6.5109    3.7858 O.2       1 RES1    0.0000
     25 C11       -0.7622    1.1947   -1.4593 C.ar      1 RES1    0.0000
     26 H10       -1.1133    1.9685   -1.8365 H         1 RES1    0.0000
     27 C12        0.2769   -1.0744   -0.4781 C.ar      1 RES1    0.0000
     28 H11        0.6262   -1.8635   -0.1305 H         1 RES1    0.0000
@<TRIPOS>BOND
     1    1    2 1
     2    2    3 1
     3    4    7 ar
     4    5    1 ar
     5    6    5 1
     6    7    5 ar
     7    8    7 1
     8    9    1 ar
     9   10    9 1
    10   11    4 ar
    11   12   11 1
    12   13   15 ar
    13   14    4 1
    14   15   16 1
    15   17    2 1
    16   18   17 1
    17   19   17 1
    18   20   21 ar
    19   21   22 1
    20   23   14 2
    21   24   14 2
    22   25   13 ar
    23   26   25 1
    24   27   15 ar
    25   28   27 1
    26    9   11 ar
    27   13   17 1
    28   20   27 ar
    29   21   25 ar
@<TRIPOS>SUBSTRUCTURE
     1 RES1 1

