# MOL2 file generated by ConQuest
# Please check atom types

@<TRIPOS>MOLECULE
LEVNUW
    28    29     1
SMALL
NO_CHARGES
****
Generated from CSD

@<TRIPOS>ATOM
      1 C1         7.1837    0.9913   11.9317 C.ar      1 RES1    0.0000
      2 C2         6.8541    2.0004   14.4993 C.ar      1 RES1    0.0000
      3 C3         3.8612    2.4212   17.0976 C.ar      1 RES1    0.0000
      4 H1         3.6404    2.1548   16.2350 H         1 RES1    0.0000
      5 C4         7.9244    1.1434   14.1804 C.ar      1 RES1    0.0000
      6 H2         8.5322    0.9095   14.8449 H         1 RES1    0.0000
      7 C5         5.0138    3.1421   17.3322 C.ar      1 RES1    0.0000
      8 N1         7.3841    0.4949   10.5899 N.pl3     1 RES1    0.0000
      9 N2         6.7852    2.4992   15.7565 N.3       1 RES1    0.0000
     10 H3         7.3036    2.1456   16.3440 H         1 RES1    0.0000
     11 N3         3.2956    2.4343   19.4149 N.ar      1 RES1    0.0000
     12 C6         8.0894    0.6478   12.9199 C.ar      1 RES1    0.0000
     13 H4         8.8039    0.0842   12.7263 H         1 RES1    0.0000
     14 C7         6.0971    1.7927   12.2216 C.ar      1 RES1    0.0000
     15 H5         5.4805    1.9965   11.5568 H         1 RES1    0.0000
     16 O1         8.3403   -0.2532   10.3721 O.2       1 RES1    0.0000
     17 C8         5.2943    3.4743   18.6432 C.ar      1 RES1    0.0000
     18 H6         6.0681    3.9468   18.8516 H         1 RES1    0.0000
     19 C9         5.9251    2.2884   13.4843 C.ar      1 RES1    0.0000
     20 H7         5.1862    2.8219   13.6729 H         1 RES1    0.0000
     21 C10        4.4197    3.1014   19.6374 C.ar      1 RES1    0.0000
     22 H8         4.6281    3.3299   20.5143 H         1 RES1    0.0000
     23 C11        5.9216    3.5700   16.2058 C.3       1 RES1    0.0000
     24 H9         5.3817    3.8757   15.4619 H         1 RES1    0.0000
     25 H10        6.4671    4.3143   16.5026 H         1 RES1    0.0000
     26 C12        3.0449    2.1015   18.1519 C.ar      1 RES1    0.0000
     27 H11        2.2675    1.6229   17.9720 H         1 RES1    0.0000
     28 O2         6.6036    0.8377    9.7130 O.2       1 RES1    0.0000
@<TRIPOS>BOND
     1    1    8 1
     2    2    5 ar
     3    3    4 1
     4    5    6 1
     5    7    3 ar
     6    8   16 2
     7    9    2 1
     8   10    9 1
     9   11   21 ar
    10   12    1 ar
    11   13   12 1
    12   14    1 ar
    13   15   14 1
    14   17    7 ar
    15   18   17 1
    16   19    2 ar
    17   20   19 1
    18   21   17 ar
    19   22   21 1
    20   23    7 1
    21   24   23 1
    22   25   23 1
    23   26    3 ar
    24   27   26 1
    25   28    8 2
    26    5   12 ar
    27    9   23 1
    28   11   26 ar
    29   14   19 ar
@<TRIPOS>SUBSTRUCTURE
     1 RES1 1

@<TRIPOS>CRYSIN
  11.3657    7.7206   24.7787  90.0000  90.0000  90.0000  61 1

