# MOL2 file generated by ConQuest
# Please check atom types

@<TRIPOS>MOLECULE
LEVPIL
    36    39     1
SMALL
NO_CHARGES
****
Generated from CSD

@<TRIPOS>ATOM
      1 N1         0.6755    1.6853    5.1492 N.pl3     1 RES1    0.0000
      2 O1         0.3696    0.7138    5.8265 O.2       1 RES1    0.0000
      3 O2         0.5745    2.8539    5.4652 O.2       1 RES1    0.0000
      4 N2         2.3456    0.3173    4.0937 N.pl3     1 RES1    0.0000
      5 O3         2.1881   -0.8506    3.7759 O.2       1 RES1    0.0000
      6 O4         3.3136    0.7714    4.6952 O.2       1 RES1    0.0000
      7 N3         0.1417    0.6584    3.0646 N.3       1 RES1    0.0000
      8 O5        -0.7972    1.6853    2.7751 O.3       1 RES1    0.0000
      9 O6         0.5709    0.2475    1.7744 O.3       1 RES1    0.0000
     10 O7         1.2474    4.4558    1.6269 O.3       1 RES1    0.0000
     11 C1         2.8746    1.4673   -0.3651 C.ar      1 RES1    0.0000
     12 C2         4.2649    1.6141   -0.3821 C.ar      1 RES1    0.0000
     13 C3         4.9206    2.0357    0.7926 C.ar      1 RES1    0.0000
     14 C4         4.1643    2.3365    1.9258 C.ar      1 RES1    0.0000
     15 C5         1.9048    2.6021    3.1024 C.3       1 RES1    0.0000
     16 C6         0.7561    3.4699    2.5273 C.3       1 RES1    0.0000
     17 C7        -0.1364    2.5114    1.7574 C.3       1 RES1    0.0000
     18 C8         0.6818    1.4694    0.9326 C.3       1 RES1    0.0000
     19 C9         2.1355    1.7522    0.7718 C.ar      1 RES1    0.0000
     20 C10        2.7904    2.1984    1.9314 C.ar      1 RES1    0.0000
     21 C11        5.0585    1.2960   -1.6288 C.3       1 RES1    0.0000
     22 C12        6.4190    2.1725    0.8305 C.3       1 RES1    0.0000
     23 C13        1.2815    1.3629    3.7456 C.3       1 RES1    0.0000
     24 H1         1.2871    5.1977    2.0185 H         1 RES1    0.0000
     25 H2         2.4278    1.1679   -1.1483 H         1 RES1    0.0000
     26 H3         4.6041    2.6424    2.7089 H         1 RES1    0.0000
     27 H4         2.4320    3.1195    3.7759 H         1 RES1    0.0000
     28 H5         0.2465    3.9031    3.2708 H         1 RES1    0.0000
     29 H6        -0.7998    2.9979    1.1899 H         1 RES1    0.0000
     30 H7         0.2566    1.3183    0.0397 H         1 RES1    0.0000
     31 H8         5.8151    0.7189   -1.3923 H         1 RES1    0.0000
     32 H9         5.3938    2.1271   -2.0241 H         1 RES1    0.0000
     33 H10        4.4847    0.8340   -2.2738 H         1 RES1    0.0000
     34 H11        6.7109    2.7683    0.1097 H         1 RES1    0.0000
     35 H12        6.8330    1.2917    0.7151 H         1 RES1    0.0000
     36 H13        6.6897    2.5488    1.6950 H         1 RES1    0.0000
@<TRIPOS>BOND
     1    1    2 2
     2    3    1 2
     3    4    5 2
     4    6    4 2
     5    7    8 1
     6    8   17 1
     7    9    7 1
     8   10   16 1
     9   11   12 ar
    10   12   13 ar
    11   13   14 ar
    12   14   20 ar
    13   15   16 1
    14   16   17 1
    15   17   18 1
    16   18    9 1
    17   19   11 ar
    18   20   15 1
    19   21   12 1
    20   22   13 1
    21   23    1 1
    22   24   10 1
    23   25   11 1
    24   26   14 1
    25   27   15 1
    26   28   16 1
    27   29   17 1
    28   30   18 1
    29   31   21 1
    30   32   21 1
    31   33   21 1
    32   34   22 1
    33   35   22 1
    34   36   22 1
    35    4   23 1
    36    7   23 1
    37   15   23 1
    38   18   19 1
    39   19   20 ar
@<TRIPOS>SUBSTRUCTURE
     1 RES1 1

@<TRIPOS>CRYSIN
   9.9550    7.1960   19.3150  90.0000 101.6500  90.0000  14 1

