# MOL2 file generated by ConQuest
# Please check atom types

@<TRIPOS>MOLECULE
LEWJUS
    35    37     1
SMALL
NO_CHARGES
****
Generated from CSD

@<TRIPOS>ATOM
      1 O1         5.3907    9.7366    5.5757 O.2       1 RES1    0.0000
      2 O2         6.4312   10.8835    7.0568 O.2       1 RES1    0.0000
      3 O3        -2.4572   17.7342    7.2922 O.2       1 RES1    0.0000
      4 O4        -3.5414   16.1755    6.2596 O.2       1 RES1    0.0000
      5 O5        -0.9577   12.5365    4.1496 O.2       1 RES1    0.0000
      6 O6         1.3801   11.4433    3.5086 O.3       1 RES1    0.0000
      7 O7         0.1532   14.6132    2.3231 O.2       1 RES1    0.0000
      8 O8         1.6428   13.7992    1.1220 O.2       1 RES1    0.0000
      9 N1         5.4426   10.6639    6.3695 N.pl3     1 RES1    0.0000
     10 N2        -2.5219   16.6326    6.7802 N.pl3     1 RES1    0.0000
     11 N3         1.2830   14.0260    2.1719 N.pl3     1 RES1    0.0000
     12 C1         3.3756   11.5710    5.4365 C.ar      1 RES1    0.0000
     13 C2         4.3104   11.5734    6.4675 C.ar      1 RES1    0.0000
     14 C3         4.2104   12.4399    7.5328 C.ar      1 RES1    0.0000
     15 C4         3.1412   13.2956    7.5981 C.ar      1 RES1    0.0000
     16 C5         0.8201   15.2231    7.6341 C.ar      1 RES1    0.0000
     17 C6        -0.3038   16.0048    7.6840 C.ar      1 RES1    0.0000
     18 C7        -1.3281   15.7805    6.7716 C.ar      1 RES1    0.0000
     19 C8        -1.2235   14.8125    5.8162 C.ar      1 RES1    0.0000
     20 C9         0.0266   13.0390    4.6599 C.2       1 RES1    0.0000
     21 C10        1.3884   12.6117    4.2767 C.3       1 RES1    0.0000
     22 C11        2.3274   12.4649    5.4915 C.ar      1 RES1    0.0000
     23 C12        2.1699   13.3386    6.5912 C.ar      1 RES1    0.0000
     24 C13        0.9739   14.2313    6.6565 C.ar      1 RES1    0.0000
     25 C14       -0.0634   14.0403    5.7321 C.ar      1 RES1    0.0000
     26 C15        2.0327   13.8040    3.4210 C.3       1 RES1    0.0000
     27 H1         1.0332   10.9563    4.1753 H         1 RES1    0.0000
     28 H2         3.4456   10.9921    4.6908 H         1 RES1    0.0000
     29 H3         4.8917   12.4482    8.2304 H         1 RES1    0.0000
     30 H4         3.0792   13.8565    8.2647 H         1 RES1    0.0000
     31 H5         1.4947   15.3245    8.2991 H         1 RES1    0.0000
     32 H6        -0.5118   16.6135    8.3507 H         1 RES1    0.0000
     33 H7        -1.7923   14.6920    5.3609 H         1 RES1    0.0000
     34 H8         1.3805   14.4413    3.6255 H         1 RES1    0.0000
     35 H9         2.3836   13.1882    2.7148 H         1 RES1    0.0000
@<TRIPOS>BOND
     1    1    9 2
     2    2    9 2
     3    3   10 2
     4    4   10 2
     5    5   20 2
     6    6   21 1
     7    7   11 2
     8    8   11 2
     9    9   13 1
    10   10   18 1
    11   11   26 1
    12   12   13 ar
    13   13   14 ar
    14   14   15 ar
    15   15   23 ar
    16   16   17 ar
    17   17   18 ar
    18   18   19 ar
    19   19   25 ar
    20   20   21 1
    21   21   22 1
    22   22   12 ar
    23   23   22 ar
    24   24   16 ar
    25   25   20 1
    26   26   21 1
    27   27    6 1
    28   28   12 1
    29   29   14 1
    30   30   15 1
    31   31   16 1
    32   32   17 1
    33   33   19 1
    34   34   26 1
    35   35   26 1
    36   23   24 1
    37   24   25 ar
@<TRIPOS>SUBSTRUCTURE
     1 RES1 1

@<TRIPOS>CRYSIN
   7.1220   11.9350   17.2690  90.0000  95.7400  90.0000 231 1

