# MOL2 file generated by ConQuest
# Please check atom types

@<TRIPOS>MOLECULE
LEWXUH
    73    73     1
SMALL
NO_CHARGES
****
Generated from CSD

@<TRIPOS>ATOM
      1 O1        -2.2978   -7.3576   -6.5454 O.3       1 RES1    0.0000
      2 O2        -4.3678   -7.7903   -5.8812 O.2       1 RES1    0.0000
      3 O3        -6.7676   -3.9285   -3.8449 O.3       1 RES1    0.0000
      4 N1        -5.4600   -3.3004   -3.7233 N.3       1 RES1    0.0000
      5 C1        -1.5334   -9.4887   -6.0227 C.3       1 RES1    0.0000
      6 C2        -2.1370   -8.7104   -7.0147 C.3       1 RES1    0.0000
      7 C3        -3.4803   -7.0167   -6.0278 C.2       1 RES1    0.0000
      8 C4        -3.5354   -5.6007   -5.7018 C.2       1 RES1    0.0000
      9 C5        -4.6436   -5.0012   -5.3274 C.2       1 RES1    0.0000
     10 C6        -4.7893   -3.5495   -5.0220 C.3       1 RES1    0.0000
     11 C7        -5.5306   -2.8331   -6.1814 C.3       1 RES1    0.0000
     12 C8        -4.7176   -2.8892   -7.4442 C.3       1 RES1    0.0000
     13 C9        -5.8802   -1.4076   -5.8398 C.3       1 RES1    0.0000
     14 C10       -4.8090   -3.9666   -2.5792 C.3       1 RES1    0.0000
     15 C11       -5.6420   -3.7330   -1.3181 C.3       1 RES1    0.0000
     16 C12       -3.3522   -3.5328   -2.3842 C.ar      1 RES1    0.0000
     17 C13       -2.3460   -4.5280   -2.2738 C.ar      1 RES1    0.0000
     18 C14       -1.0382   -4.1466   -2.0288 C.ar      1 RES1    0.0000
     19 C15       -0.6719   -2.8451   -1.8805 C.ar      1 RES1    0.0000
     20 C16       -1.6563   -1.8844   -1.9719 C.ar      1 RES1    0.0000
     21 C17       -2.9995   -2.1931   -2.2203 C.ar      1 RES1    0.0000
     22 C18       -3.9842   -1.0286   -2.2790 C.3       1 RES1    0.0000
     23 C19       -3.5171    0.0524   -3.2451 C.3       1 RES1    0.0000
     24 C20       -4.2230   -0.4434   -0.8833 C.3       1 RES1    0.0000
     25 C21        0.7963   -2.4780   -1.6424 C.3       1 RES1    0.0000
     26 C22        1.4219   -1.7855   -2.7534 C.3       1 RES1    0.0000
     27 C23        1.0138   -1.9356   -0.2881 C.3       1 RES1    0.0000
     28 C24       -2.6285   -6.0262   -2.3238 C.3       1 RES1    0.0000
     29 C25       -1.4882   -6.8713   -2.8949 C.3       1 RES1    0.0000
     30 C26       -3.0382   -6.5411   -0.9437 C.3       1 RES1    0.0000
     31 H1        -7.3374   -3.1883   -3.5108 H         1 RES1    0.0000
     32 H2        -0.6826   -9.1252   -5.8087 H         1 RES1    0.0000
     33 H3        -2.0806   -9.4923   -5.2446 H         1 RES1    0.0000
     34 H4        -1.4291  -10.3791   -6.3384 H         1 RES1    0.0000
     35 H5        -1.5924   -8.7116   -7.7927 H         1 RES1    0.0000
     36 H6        -2.9905   -9.0739   -7.2251 H         1 RES1    0.0000
     37 H7        -2.7381   -5.0882   -5.7622 H         1 RES1    0.0000
     38 H8        -5.4212   -5.5411   -5.2429 H         1 RES1    0.0000
     39 H9        -3.9152   -3.1800   -4.9686 H         1 RES1    0.0000
     40 H10       -6.3411   -3.3004   -6.3384 H         1 RES1    0.0000
     41 H11       -5.2004   -2.4708   -8.1498 H         1 RES1    0.0000
     42 H12       -3.8946   -2.4351   -7.3114 H         1 RES1    0.0000
     43 H13       -4.5490   -3.7950   -7.6720 H         1 RES1    0.0000
     44 H14       -5.0848   -0.9154   -5.6811 H         1 RES1    0.0000
     45 H15       -6.4223   -1.3921   -5.0583 H         1 RES1    0.0000
     46 H16       -6.3569   -1.0167   -6.5626 H         1 RES1    0.0000
     47 H17       -4.8090   -4.9011   -2.7534 H         1 RES1    0.0000
     48 H18       -6.5156   -4.0811   -1.4474 H         1 RES1    0.0000
     49 H19       -5.6955   -2.8010   -1.1421 H         1 RES1    0.0000
     50 H20       -5.2322   -4.1717   -0.5814 H         1 RES1    0.0000
     51 H21       -0.3711   -4.8189   -1.9615 H         1 RES1    0.0000
     52 H22       -1.4130   -0.9726   -1.8615 H         1 RES1    0.0000
     53 H23       -4.8137   -1.3659   -2.5981 H         1 RES1    0.0000
     54 H24       -3.3897   -0.3254   -4.1077 H         1 RES1    0.0000
     55 H25       -4.1703    0.7390   -3.2934 H         1 RES1    0.0000
     56 H26       -2.6944    0.4184   -2.9380 H         1 RES1    0.0000
     57 H27       -4.8282    0.2849   -0.9437 H         1 RES1    0.0000
     58 H28       -3.3976   -0.1395   -0.5227 H         1 RES1    0.0000
     59 H29       -4.5865   -1.1132   -0.3174 H         1 RES1    0.0000
     60 H30        1.2397   -3.3182   -1.6217 H         1 RES1    0.0000
     61 H31        2.3195   -1.5721   -2.5291 H         1 RES1    0.0000
     62 H32        0.9436   -0.9857   -2.9397 H         1 RES1    0.0000
     63 H33        1.4106   -2.3457   -3.5211 H         1 RES1    0.0000
     64 H34        0.7545   -2.5828    0.3571 H         1 RES1    0.0000
     65 H35        1.9325   -1.7259   -0.1742 H         1 RES1    0.0000
     66 H36        0.4925   -1.1490   -0.1742 H         1 RES1    0.0000
     67 H37       -3.3754   -6.1478   -2.8983 H         1 RES1    0.0000
     68 H38       -0.7305   -6.8069   -2.3256 H         1 RES1    0.0000
     69 H39       -1.2632   -6.5543   -3.7609 H         1 RES1    0.0000
     70 H40       -1.7646   -7.7783   -2.9501 H         1 RES1    0.0000
     71 H41       -3.7975   -6.0584   -0.6383 H         1 RES1    0.0000
     72 H42       -3.2514   -7.4649   -1.0006 H         1 RES1    0.0000
     73 H43       -2.3193   -6.4196   -0.3330 H         1 RES1    0.0000
@<TRIPOS>BOND
     1    1    6 1
     2    2    7 2
     3    3    4 1
     4    4   10 1
     5    5    6 1
     6    6   35 1
     7    7    1 1
     8    8    7 1
     9    9    8 2
    10   10    9 1
    11   11   10 1
    12   12   11 1
    13   13   11 1
    14   14    4 1
    15   15   14 1
    16   16   14 1
    17   17   16 ar
    18   18   17 ar
    19   19   18 ar
    20   20   19 ar
    21   21   16 ar
    22   22   21 1
    23   23   22 1
    24   24   22 1
    25   25   19 1
    26   26   25 1
    27   27   25 1
    28   28   17 1
    29   29   28 1
    30   30   28 1
    31   31    3 1
    32   32    5 1
    33   33    5 1
    34   34    5 1
    35   36    6 1
    36   37    8 1
    37   38    9 1
    38   39   10 1
    39   40   11 1
    40   41   12 1
    41   42   12 1
    42   43   12 1
    43   44   13 1
    44   45   13 1
    45   46   13 1
    46   47   14 1
    47   48   15 1
    48   49   15 1
    49   50   15 1
    50   51   18 1
    51   52   20 1
    52   53   22 1
    53   54   23 1
    54   55   23 1
    55   56   23 1
    56   57   24 1
    57   58   24 1
    58   59   24 1
    59   60   25 1
    60   61   26 1
    61   62   26 1
    62   63   26 1
    63   64   27 1
    64   65   27 1
    65   66   27 1
    66   67   28 1
    67   68   29 1
    68   69   29 1
    69   70   29 1
    70   71   30 1
    71   72   30 1
    72   73   30 1
    73   20   21 ar
@<TRIPOS>SUBSTRUCTURE
     1 RES1 1

@<TRIPOS>CRYSIN
  26.3240   11.9190   17.2710  90.0000  92.6900  90.0000  15 1

