# MOL2 file generated by ConQuest
# Please check atom types

@<TRIPOS>MOLECULE
LEWXOB
    75    75     1
SMALL
NO_CHARGES
****
Generated from CSD

@<TRIPOS>ATOM
      1 O1         7.1499    2.6682   11.7427 O.3       1 RES1    0.0000
      2 O2         8.6586    1.1373   11.2294 O.2       1 RES1    0.0000
      3 O3         3.2858    1.0776   11.9757 O.3       1 RES1    0.0000
      4 N1         3.4265    0.0758   13.0205 N.3       1 RES1    0.0000
      5 C1         8.2043    3.6410   11.9027 C.3       1 RES1    0.0000
      6 C2         7.5039    1.4406   11.3972 C.2       1 RES1    0.0000
      7 C3         6.3480    0.5227   11.2704 C.3       1 RES1    0.0000
      8 C4         5.9476   -0.0952   12.6306 C.3       1 RES1    0.0000
      9 C5         4.5627   -0.7808   12.6326 C.3       1 RES1    0.0000
     10 C6         4.1877   -1.5454   11.3426 C.3       1 RES1    0.0000
     11 C7         5.1489   -2.6973   11.0576 C.3       1 RES1    0.0000
     12 C8         2.7637   -2.0826   11.3758 C.3       1 RES1    0.0000
     13 C9         7.0560   -0.9841   13.1868 C.3       1 RES1    0.0000
     14 C10        3.5892    0.8647   14.2641 C.3       1 RES1    0.0000
     15 C11        2.2644    1.5148   14.6134 C.3       1 RES1    0.0000
     16 C12        4.1596    0.1097   15.4624 C.ar      1 RES1    0.0000
     17 C13        5.1701    0.7276   16.2293 C.ar      1 RES1    0.0000
     18 C14        5.6782    0.0532   17.3476 C.ar      1 RES1    0.0000
     19 C15        5.2072   -1.1792   17.7594 C.ar      1 RES1    0.0000
     20 C16        4.1878   -1.7310   17.0236 C.ar      1 RES1    0.0000
     21 C17        3.6471   -1.1260   15.8995 C.ar      1 RES1    0.0000
     22 C18        2.4493   -1.8261   15.2613 C.3       1 RES1    0.0000
     23 C19        1.2333   -1.7374   16.1766 C.3       1 RES1    0.0000
     24 C20        2.7268   -3.2942   14.9296 C.3       1 RES1    0.0000
     25 C21        5.7493   -1.8390   19.0162 C.3       1 RES1    0.0000
     26 C22        5.3577   -1.2276   20.2262 C.3       1 RES1    0.0000
     27 C23        6.8455   -2.6231   18.8581 C.3       1 RES1    0.0000
     28 C24        5.7074    2.1375   15.9834 C.3       1 RES1    0.0000
     29 C25        5.3962    3.0602   17.1505 C.3       1 RES1    0.0000
     30 C26        7.1901    2.1585   15.6887 C.3       1 RES1    0.0000
     31 H1         2.3051    1.0034   11.6275 H         1 RES1    0.0000
     32 H2         8.6617    3.7523   11.0772 H         1 RES1    0.0000
     33 H3         7.8306    4.4718   12.1700 H         1 RES1    0.0000
     34 H4         8.8153    3.3409   12.5643 H         1 RES1    0.0000
     35 H5         5.6075    1.0083   10.9249 H         1 RES1    0.0000
     36 H6         6.5753   -0.1758   10.6693 H         1 RES1    0.0000
     37 H7         5.8752    0.6340   13.2337 H         1 RES1    0.0000
     38 H8         4.6159   -1.4454   13.3098 H         1 RES1    0.0000
     39 H9         4.2487   -0.9340   10.6185 H         1 RES1    0.0000
     40 H10        6.0356   -2.3601   10.9971 H         1 RES1    0.0000
     41 H11        4.9109   -3.1119   10.2360 H         1 RES1    0.0000
     42 H12        5.0982   -3.3329   11.7602 H         1 RES1    0.0000
     43 H13        2.1582   -1.3648   11.5163 H         1 RES1    0.0000
     44 H14        2.5669   -2.5053   10.5483 H         1 RES1    0.0000
     45 H15        2.6785   -2.7118   12.0822 H         1 RES1    0.0000
     46 H16        7.8768   -0.5049   13.1829 H         1 RES1    0.0000
     47 H17        7.1394   -1.7600   12.6462 H         1 RES1    0.0000
     48 H18        6.8407   -1.2373   14.0767 H         1 RES1    0.0000
     49 H19        4.1976    1.5680   14.0670 H         1 RES1    0.0000
     50 H20        1.9825    2.0665   13.8933 H         1 RES1    0.0000
     51 H21        2.3670    2.0423   15.3960 H         1 RES1    0.0000
     52 H22        1.6126    0.8405   14.7695 H         1 RES1    0.0000
     53 H23        6.3779    0.4598   17.8452 H         1 RES1    0.0000
     54 H24        3.8361   -2.5698   17.2988 H         1 RES1    0.0000
     55 H25        2.2415   -1.3761   14.4514 H         1 RES1    0.0000
     56 H26        1.0281   -0.8260   16.3425 H         1 RES1    0.0000
     57 H27        0.4901   -2.1585   15.7590 H         1 RES1    0.0000
     58 H28        1.4228   -2.1746   16.9983 H         1 RES1    0.0000
     59 H29        3.4671   -3.3506   14.3383 H         1 RES1    0.0000
     60 H30        1.9614   -3.6765   14.5178 H         1 RES1    0.0000
     61 H31        2.9242   -3.7668   15.7297 H         1 RES1    0.0000
     62 H32        5.1157   -2.5472   19.0455 H         1 RES1    0.0000
     63 H33        5.6632   -0.3275   20.2398 H         1 RES1    0.0000
     64 H34        4.4101   -1.2406   20.2964 H         1 RES1    0.0000
     65 H35        5.7352   -1.7019   20.9580 H         1 RES1    0.0000
     66 H36        7.5603   -2.1004   18.5127 H         1 RES1    0.0000
     67 H37        6.6466   -3.3280   18.2531 H         1 RES1    0.0000
     68 H38        7.0978   -2.9876   19.6973 H         1 RES1    0.0000
     69 H39        5.2608    2.4843   15.2184 H         1 RES1    0.0000
     70 H40        4.4605    3.0570   17.3164 H         1 RES1    0.0000
     71 H41        5.6777    3.9443   16.9397 H         1 RES1    0.0000
     72 H42        5.8556    2.7586   17.9253 H         1 RES1    0.0000
     73 H43        7.6664    1.8294   16.4421 H         1 RES1    0.0000
     74 H44        7.4645    3.0489   15.5033 H         1 RES1    0.0000
     75 H45        7.3706    1.6084   14.9354 H         1 RES1    0.0000
@<TRIPOS>BOND
     1    1    5 1
     2    2    6 2
     3    3    4 1
     4    4    9 1
     5    5   32 1
     6    6    1 1
     7    7    6 1
     8    8    7 1
     9    9    8 1
    10   10    9 1
    11   11   10 1
    12   12   10 1
    13   13    8 1
    14   14    4 1
    15   15   14 1
    16   16   14 1
    17   17   16 ar
    18   18   17 ar
    19   19   18 ar
    20   20   19 ar
    21   21   16 ar
    22   22   21 1
    23   23   22 1
    24   24   22 1
    25   25   19 1
    26   26   25 1
    27   27   25 1
    28   28   17 1
    29   29   28 1
    30   30   28 1
    31   31    3 1
    32   33    5 1
    33   34    5 1
    34   35    7 1
    35   36    7 1
    36   37    8 1
    37   38    9 1
    38   39   10 1
    39   40   11 1
    40   41   11 1
    41   42   11 1
    42   43   12 1
    43   44   12 1
    44   45   12 1
    45   46   13 1
    46   47   13 1
    47   48   13 1
    48   49   14 1
    49   50   15 1
    50   51   15 1
    51   52   15 1
    52   53   18 1
    53   54   20 1
    54   55   22 1
    55   56   23 1
    56   57   23 1
    57   58   23 1
    58   59   24 1
    59   60   24 1
    60   61   24 1
    61   62   25 1
    62   63   26 1
    63   64   26 1
    64   65   26 1
    65   66   27 1
    66   67   27 1
    67   68   27 1
    68   69   28 1
    69   70   29 1
    70   71   29 1
    71   72   29 1
    72   73   30 1
    73   74   30 1
    74   75   30 1
    75   20   21 ar
@<TRIPOS>SUBSTRUCTURE
     1 RES1 1

@<TRIPOS>CRYSIN
   8.1990   16.1320   19.5200  90.0000  91.1900  90.0000  14 2

