# MOL2 file generated by ConQuest
# Please check atom types

@<TRIPOS>MOLECULE
LEWYAO
    75    75     1
SMALL
NO_CHARGES
****
Generated from CSD

@<TRIPOS>ATOM
      1 O1         5.4776   -4.6768   -3.9137 O.3       1 RES1    0.0000
      2 O2         4.9099   -5.6335   -2.0400 O.2       1 RES1    0.0000
      3 O3         0.5165   -4.9151   -5.3207 O.3       1 RES1    0.0000
      4 N1         1.5539   -4.1390   -4.6603 N.3       1 RES1    0.0000
      5 C1         6.5732   -4.0282   -3.2026 C.3       1 RES1    0.0000
      6 C2         4.7097   -5.4769   -3.2259 C.2       1 RES1    0.0000
      7 C3         3.6681   -6.1504   -4.0436 C.3       1 RES1    0.0000
      8 C4         2.3218   -6.0634   -3.3801 C.3       1 RES1    0.0000
      9 C5         1.7050   -4.6892   -3.2807 C.3       1 RES1    0.0000
     10 C6         0.4646   -4.6171   -2.3626 C.3       1 RES1    0.0000
     11 C7         0.9172   -4.5848   -0.9140 C.3       1 RES1    0.0000
     12 C8        -0.5540   -5.7254   -2.5533 C.3       1 RES1    0.0000
     13 C9         4.0960   -7.5991   -4.2789 C.3       1 RES1    0.0000
     14 C10        1.1136   -2.7444   -4.7638 C.3       1 RES1    0.0000
     15 C11        1.8443   -1.8091   -3.8173 C.3       1 RES1    0.0000
     16 C12        1.1985   -2.2693   -6.2175 C.ar      1 RES1    0.0000
     17 C13        2.4072   -2.2437   -6.9104 C.ar      1 RES1    0.0000
     18 C14        2.4650   -1.7345   -8.2048 C.ar      1 RES1    0.0000
     19 C15        1.3330   -1.2450   -8.8571 C.ar      1 RES1    0.0000
     20 C16        0.1475   -1.2872   -8.1652 C.ar      1 RES1    0.0000
     21 C17        0.0451   -1.7519   -6.8627 C.ar      1 RES1    0.0000
     22 C18       -1.3214   -1.7246   -6.2266 C.3       1 RES1    0.0000
     23 C19       -2.0507   -2.9248   -6.5046 C.3       1 RES1    0.0000
     24 C20       -2.1644   -0.4871   -6.6334 C.3       1 RES1    0.0000
     25 C21        1.3988   -0.6610  -10.2570 C.3       1 RES1    0.0000
     26 C22        2.2159   -1.4686  -11.2228 C.3       1 RES1    0.0000
     27 C23        1.8941    0.7480  -10.2103 C.3       1 RES1    0.0000
     28 C24        3.7213   -2.7733   -6.3463 C.3       1 RES1    0.0000
     29 C25        4.3026   -3.8841   -7.1964 C.3       1 RES1    0.0000
     30 C26        4.7305   -1.6376   -6.1617 C.3       1 RES1    0.0000
     31 H1         1.1383   -4.9998   -6.2348 H         1 RES1    0.0000
     32 H2         6.2220   -3.4815   -2.5087 H         1 RES1    0.0000
     33 H3         7.1427   -4.6892   -2.8272 H         1 RES1    0.0000
     34 H4         7.0702   -3.4914   -3.8082 H         1 RES1    0.0000
     35 H5         3.6168   -5.7105   -4.8845 H         1 RES1    0.0000
     36 H6         2.4123   -6.4038   -2.4976 H         1 RES1    0.0000
     37 H7         1.7233   -6.6126   -3.8711 H         1 RES1    0.0000
     38 H8         2.3617   -4.1475   -2.8617 H         1 RES1    0.0000
     39 H9         0.0260   -3.7946   -2.5432 H         1 RES1    0.0000
     40 H10        0.1567   -4.5376   -0.3459 H         1 RES1    0.0000
     41 H11        1.4114   -5.3726   -0.7182 H         1 RES1    0.0000
     42 H12        1.4659   -3.8219   -0.7710 H         1 RES1    0.0000
     43 H13       -0.1516   -6.5629   -2.3535 H         1 RES1    0.0000
     44 H14       -0.8567   -5.7254   -3.4532 H         1 RES1    0.0000
     45 H15       -1.2900   -5.5813   -1.9711 H         1 RES1    0.0000
     46 H16        3.4378   -8.0439   -4.8013 H         1 RES1    0.0000
     47 H17        4.1890   -8.0415   -3.4440 H         1 RES1    0.0000
     48 H18        4.9270   -7.6140   -4.7395 H         1 RES1    0.0000
     49 H19        0.1965   -2.7260   -4.5193 H         1 RES1    0.0000
     50 H20        1.7143   -2.0973   -2.9216 H         1 RES1    0.0000
     51 H21        2.7730   -1.8141   -4.0192 H         1 RES1    0.0000
     52 H22        1.5049   -0.9269   -3.9178 H         1 RES1    0.0000
     53 H23        3.3001   -1.7196   -8.6572 H         1 RES1    0.0000
     54 H24       -0.6397   -0.9816   -8.5994 H         1 RES1    0.0000
     55 H25       -1.1945   -1.6823   -5.2852 H         1 RES1    0.0000
     56 H26       -1.5638   -3.6728   -6.1790 H         1 RES1    0.0000
     57 H27       -2.8975   -2.8876   -6.0765 H         1 RES1    0.0000
     58 H28       -2.1728   -3.0118   -7.4419 H         1 RES1    0.0000
     59 H29       -2.9982   -0.5094   -6.1790 H         1 RES1    0.0000
     60 H30       -2.3143   -0.5020   -7.5718 H         1 RES1    0.0000
     61 H31       -1.6956    0.3057   -6.4001 H         1 RES1    0.0000
     62 H32        0.5103   -0.6337  -10.5938 H         1 RES1    0.0000
     63 H33        1.8962   -2.3632  -11.2349 H         1 RES1    0.0000
     64 H34        2.1427   -1.0934  -12.0921 H         1 RES1    0.0000
     65 H35        3.1265   -1.4637  -10.9499 H         1 RES1    0.0000
     66 H36        1.3159    1.2698   -9.6656 H         1 RES1    0.0000
     67 H37        1.9098    1.1083  -11.0899 H         1 RES1    0.0000
     68 H38        2.7711    0.7629   -9.8462 H         1 RES1    0.0000
     69 H39        3.5392   -3.1361   -5.4871 H         1 RES1    0.0000
     70 H40        3.6595   -4.5749   -7.2979 H         1 RES1    0.0000
     71 H41        5.0791   -4.2320   -6.7734 H         1 RES1    0.0000
     72 H42        4.5358   -3.5386   -8.0506 H         1 RES1    0.0000
     73 H43        4.3751   -0.9915   -5.5622 H         1 RES1    0.0000
     74 H44        5.5391   -1.9880   -5.8077 H         1 RES1    0.0000
     75 H45        4.9036   -1.2301   -7.0017 H         1 RES1    0.0000
@<TRIPOS>BOND
     1    1    5 1
     2    2    6 2
     3    3    4 1
     4    4    9 1
     5    5   32 1
     6    6    1 1
     7    7    6 1
     8    8    7 1
     9    9    8 1
    10   10    9 1
    11   11   10 1
    12   12   10 1
    13   13    7 1
    14   14    4 1
    15   15   14 1
    16   16   14 1
    17   17   16 ar
    18   18   17 ar
    19   19   18 ar
    20   20   19 ar
    21   21   16 ar
    22   22   21 1
    23   23   22 1
    24   24   22 1
    25   25   19 1
    26   26   25 1
    27   27   25 1
    28   28   17 1
    29   29   28 1
    30   30   28 1
    31   31    3 1
    32   33    5 1
    33   34    5 1
    34   35    7 1
    35   36    8 1
    36   37    8 1
    37   38    9 1
    38   39   10 1
    39   40   11 1
    40   41   11 1
    41   42   11 1
    42   43   12 1
    43   44   12 1
    44   45   12 1
    45   46   13 1
    46   47   13 1
    47   48   13 1
    48   49   14 1
    49   50   15 1
    50   51   15 1
    51   52   15 1
    52   53   18 1
    53   54   20 1
    54   55   22 1
    55   56   23 1
    56   57   23 1
    57   58   23 1
    58   59   24 1
    59   60   24 1
    60   61   24 1
    61   62   25 1
    62   63   26 1
    63   64   26 1
    64   65   26 1
    65   66   27 1
    66   67   27 1
    67   68   27 1
    68   69   28 1
    69   70   29 1
    70   71   29 1
    71   72   29 1
    72   73   30 1
    73   74   30 1
    74   75   30 1
    75   20   21 ar
@<TRIPOS>SUBSTRUCTURE
     1 RES1 1

@<TRIPOS>CRYSIN
  10.8590   24.8500   10.9850  90.0000 112.5600  90.0000 231 1

