# MOL2 file generated by ConQuest
# Please check atom types

@<TRIPOS>MOLECULE
LEXSEP
    43    44     1
SMALL
NO_CHARGES
****
Generated from CSD

@<TRIPOS>ATOM
      1 O1        10.6833    4.3561    2.4497 O.2       1 RES1    0.0000
      2 O2         8.9895    3.8744    0.2654 O.3       1 RES1    0.0000
      3 N1         9.3061    5.1294    0.7705 N.am      1 RES1    0.0000
      4 C1         8.5572    8.5506    1.6946 C.ar      1 RES1    0.0000
      5 H1         7.9610    8.9715    1.1183 H         1 RES1    0.0000
      6 C2         9.1371    9.2388    2.7505 C.ar      1 RES1    0.0000
      7 H2         8.9327   10.1382    2.8744 H         1 RES1    0.0000
      8 C3        10.0089    8.6200    3.6196 C.ar      1 RES1    0.0000
      9 H3        10.3661    9.0977    4.3330 H         1 RES1    0.0000
     10 C4        10.3515    7.3082    3.4398 C.ar      1 RES1    0.0000
     11 H4        10.9487    6.8881    4.0167 H         1 RES1    0.0000
     12 C5         9.7909    6.6216    2.3794 C.ar      1 RES1    0.0000
     13 C6        10.0049    3.4196   -0.6517 C.3       1 RES1    0.0000
     14 H5        10.0551    4.0219   -1.3970 H         1 RES1    0.0000
     15 H6         9.7812    2.5399   -0.9661 H         1 RES1    0.0000
     16 H7        10.8524    3.3936   -0.2035 H         1 RES1    0.0000
     17 C7         8.8905    7.2231    1.5261 C.ar      1 RES1    0.0000
     18 C8         8.3751    6.2370    0.4955 C.3       1 RES1    0.0000
     19 C9        10.0045    5.2335    1.9406 C.2       1 RES1    0.0000
     20 C10        8.4487    6.7344   -0.9410 C.2       1 RES1    0.0000
     21 H8         7.6316    6.7903   -1.3799 H         1 RES1    0.0000
     22 C11        9.4888    7.0962   -1.6542 C.2       1 RES1    0.0000
     23 C12        9.3324    7.5747   -3.0849 C.3       1 RES1    0.0000
     24 H9         8.4132    7.4966   -3.3498 H         1 RES1    0.0000
     25 H10        9.8783    7.0371   -3.6644 H         1 RES1    0.0000
     26 H11        9.6073    8.4922   -3.1480 H         1 RES1    0.0000
     27 C13       10.8858    7.1017   -1.1619 C.3       1 RES1    0.0000
     28 H12       10.8958    6.8983   -0.2240 H         1 RES1    0.0000
     29 H13       11.2721    7.9688   -1.3047 H         1 RES1    0.0000
     30 H14       11.3962    6.4419   -1.6381 H         1 RES1    0.0000
     31 C14        6.9237    5.8310    0.8069 C.3       1 RES1    0.0000
     32 H15        6.3715    6.6279    0.7661 H         1 RES1    0.0000
     33 H16        6.6192    5.2327    0.1060 H         1 RES1    0.0000
     34 C15        6.6840    5.1570    2.1412 C.3       1 RES1    0.0000
     35 H17        7.1856    4.3277    2.1717 H         1 RES1    0.0000
     36 H18        7.0129    5.7309    2.8505 H         1 RES1    0.0000
     37 C16        5.2209    4.8590    2.3845 C.3       1 RES1    0.0000
     38 H19        4.7430    5.6978    2.4777 H         1 RES1    0.0000
     39 H20        4.8625    4.3994    1.6091 H         1 RES1    0.0000
     40 C17        4.9651    4.0187    3.6046 C.3       1 RES1    0.0000
     41 H21        5.4314    3.1839    3.5225 H         1 RES1    0.0000
     42 H22        4.0233    3.8532    3.6884 H         1 RES1    0.0000
     43 H23        5.2777    4.4838    4.3843 H         1 RES1    0.0000
@<TRIPOS>BOND
     1    1   19 2
     2    2    3 1
     3    3   18 1
     4    4    5 1
     5    6    4 ar
     6    7    6 1
     7    8    6 ar
     8    9    8 1
     9   10    8 ar
    10   11   10 1
    11   12   10 ar
    12   13    2 1
    13   14   13 1
    14   15   13 1
    15   16   13 1
    16   17    4 ar
    17   18   17 1
    18   19    3 1
    19   20   18 1
    20   21   20 1
    21   22   20 2
    22   23   22 1
    23   24   23 1
    24   25   23 1
    25   26   23 1
    26   27   22 1
    27   28   27 1
    28   29   27 1
    29   30   27 1
    30   31   18 1
    31   32   31 1
    32   33   31 1
    33   34   31 1
    34   35   34 1
    35   36   34 1
    36   37   34 1
    37   38   37 1
    38   39   37 1
    39   40   37 1
    40   41   40 1
    41   42   40 1
    42   43   40 1
    43   12   17 ar
    44   12   19 1
@<TRIPOS>SUBSTRUCTURE
     1 RES1 1

@<TRIPOS>CRYSIN
  11.9436    7.8829   17.1522  90.0000  94.4880  90.0000  14 1

