# MOL2 file generated by ConQuest
# Please check atom types

@<TRIPOS>MOLECULE
LEXYUK
    72    76     2
SMALL
NO_CHARGES
****
Generated from CSD

@<TRIPOS>ATOM
      1 C1         6.0662    4.9911    4.4455 C.ar      1 RES1    0.0000
      2 H1         5.7845    4.6464    5.2614 H         1 RES1    0.0000
      3 C2         6.3788    6.3165    4.2921 C.ar      1 RES1    0.0000
      4 C3         6.8096    6.8766    3.0868 C.ar      1 RES1    0.0000
      5 H2         7.0121    7.7830    3.0413 H         1 RES1    0.0000
      6 C4         6.9333    6.0943    1.9790 C.ar      1 RES1    0.0000
      7 H3         7.2189    6.4437    1.1658 H         1 RES1    0.0000
      8 C5         6.6151    4.7556    2.1224 C.ar      1 RES1    0.0000
      9 C6         6.1925    4.1894    3.3181 C.ar      1 RES1    0.0000
     10 C7         6.0054    2.7981    3.0300 C.2       1 RES1    0.0000
     11 C8         6.3200    2.6214    1.7309 C.2       1 RES1    0.0000
     12 C9         6.4573    1.4407    0.8734 C.2       1 RES1    0.0000
     13 C10        6.3548   -0.9273    0.8235 C.3       1 RES1    0.0000
     14 H4         7.2923   -1.1206    0.6647 H         1 RES1    0.0000
     15 H5         5.9015   -0.8780   -0.0319 H         1 RES1    0.0000
     16 C11        5.7521   -1.9798    1.6640 C.3       1 RES1    0.0000
     17 H6         5.8288   -2.8271    1.2194 H         1 RES1    0.0000
     18 H7         4.8246   -1.7785    1.8117 H         1 RES1    0.0000
     19 H8         6.2090   -2.0171    2.5069 H         1 RES1    0.0000
     20 C12        4.3213    0.2163    5.0555 C.3       1 RES1    0.0000
     21 H9         4.1054   -0.6930    4.7951 H         1 RES1    0.0000
     22 H10        3.6430    0.5321    5.6742 H         1 RES1    0.0000
     23 C13        5.6922    0.2737    5.6972 C.3       1 RES1    0.0000
     24 H11        5.6197    0.4650    6.6460 H         1 RES1    0.0000
     25 H12        6.1604   -0.5677    5.5829 H         1 RES1    0.0000
     26 C14        6.4106    1.3815    4.9863 C.2       1 RES1    0.0000
     27 C15        4.3861    1.1012    3.8555 C.2       1 RES1    0.0000
     28 N1         6.2806    7.1999    5.4542 N.pl3     1 RES1    0.0000
     29 N2         5.6010    1.8091    3.9415 N.am      1 RES1    0.0000
     30 O1         6.4663    8.3957    5.3105 O.2       1 RES1    0.0000
     31 O2         6.0286    6.7041    6.5327 O.2       1 RES1    0.0000
     32 O3         6.6844    3.8090    1.1438 O.3       1 RES1    0.0000
     33 O4         6.7678    1.4956   -0.2746 O.2       1 RES1    0.0000
     34 O5         6.2153    0.3267    1.5385 O.3       1 RES1    0.0000
     35 O6         7.5050    1.8333    5.2097 O.2       1 RES1    0.0000
     36 O7         3.5945    1.2268    2.9708 O.2       1 RES1    0.0000
     37 C16       13.6754   10.3540    4.0616 C.ar      2 RES2    0.0000
     38 H13       14.1253   11.1679    4.0478 H         2 RES2    0.0000
     39 C17       13.6425    9.5731    2.9377 C.ar      2 RES2    0.0000
     40 H14       14.0521    9.8372    2.1463 H         2 RES2    0.0000
     41 C18       12.9658    8.3678    3.0426 C.ar      2 RES2    0.0000
     42 C19       12.3138    7.9433    4.1996 C.ar      2 RES2    0.0000
     43 C20       11.7669    6.6553    3.8697 C.2       2 RES2    0.0000
     44 C21       12.1198    6.3961    2.5909 C.2       2 RES2    0.0000
     45 C22       11.9063    5.2424    1.6998 C.2       2 RES2    0.0000
     46 C23       10.5807    3.3140    1.3987 C.3       2 RES2    0.0000
     47 H15       10.1028    3.5227    0.5807 H         2 RES2    0.0000
     48 H16       11.4058    2.8603    1.1629 H         2 RES2    0.0000
     49 C24        9.7842    2.4722    2.2245 C.3       2 RES2    0.0000
     50 H17        9.6097    1.6467    1.7654 H         2 RES2    0.0000
     51 H18        8.9530    2.9110    2.4200 H         2 RES2    0.0000
     52 H19       10.2520    2.2913    3.0427 H         2 RES2    0.0000
     53 C25       13.0385    9.9337    5.2229 C.ar      2 RES2    0.0000
     54 C26        9.8727    6.1821    5.3711 C.2       2 RES2    0.0000
     55 C27       11.4628    4.5046    5.0788 C.2       2 RES2    0.0000
     56 C28       12.3418    8.7484    5.3294 C.ar      2 RES2    0.0000
     57 H20       11.9136    8.5016    6.1173 H         2 RES2    0.0000
     58 C29        9.3917    5.0162    6.1747 C.3       2 RES2    0.0000
     59 H21        8.5369    4.7010    5.8407 H         2 RES2    0.0000
     60 H22        9.2885    5.2639    7.1065 H         2 RES2    0.0000
     61 C30       10.4431    3.9518    6.0231 C.3       2 RES2    0.0000
     62 H23       10.8480    3.7496    6.8806 H         2 RES2    0.0000
     63 H24       10.0536    3.1381    5.6640 H         2 RES2    0.0000
     64 N3        13.1476   10.7727    6.4154 N.pl3     2 RES2    0.0000
     65 N4        11.0580    5.8057    4.7392 N.am      2 RES2    0.0000
     66 O8        12.8636    7.4266    2.0633 O.3       2 RES2    0.0000
     67 O9        12.5779    5.0133    0.7334 O.2       2 RES2    0.0000
     68 O10       10.8791    4.5293    2.1156 O.3       2 RES2    0.0000
     69 O11       12.3952   10.5441    7.3531 O.2       2 RES2    0.0000
     70 O12       13.9815   11.6706    6.4225 O.2       2 RES2    0.0000
     71 O13        9.3702    7.2692    5.2467 O.2       2 RES2    0.0000
     72 O14       12.4554    3.9840    4.6564 O.2       2 RES2    0.0000
@<TRIPOS>BOND
     1    1    2 1
     2    3    1 ar
     3    4    3 ar
     4    5    4 1
     5    6    4 ar
     6    7    6 1
     7    8    6 ar
     8    9    1 ar
     9   10    9 1
    10   11   10 2
    11   12   11 1
    12   13   14 1
    13   15   13 1
    14   16   13 1
    15   17   16 1
    16   18   16 1
    17   19   16 1
    18   20   21 1
    19   22   20 1
    20   23   20 1
    21   24   23 1
    22   25   23 1
    23   26   23 1
    24   27   20 1
    25   28    3 1
    26   29   10 1
    27   30   28 2
    28   31   28 2
    29   32    8 1
    30   33   12 2
    31   34   12 1
    32   35   26 2
    33   36   27 2
    34   37   38 1
    35   39   37 ar
    36   40   39 1
    37   41   39 ar
    38   42   41 ar
    39   43   42 1
    40   44   43 2
    41   45   44 1
    42   46   47 1
    43   48   46 1
    44   49   46 1
    45   50   49 1
    46   51   49 1
    47   52   49 1
    48   53   37 ar
    49   54   58 1
    50   55   61 1
    51   56   42 ar
    52   57   56 1
    53   58   59 1
    54   60   58 1
    55   61   58 1
    56   62   61 1
    57   63   61 1
    58   64   53 1
    59   65   43 1
    60   66   41 1
    61   67   45 2
    62   68   45 1
    63   69   64 2
    64   70   64 2
    65   71   54 2
    66   72   55 2
    67    8    9 ar
    68   11   32 1
    69   13   34 1
    70   26   29 1
    71   27   29 1
    72   44   66 1
    73   46   68 1
    74   53   56 ar
    75   54   65 1
    76   55   65 1
@<TRIPOS>SUBSTRUCTURE
     1 RES1 1
     2 RES2 37

@<TRIPOS>CRYSIN
   9.2680   11.6707   15.4140  75.1850  72.6830  71.3010   2 1

