# MOL2 file generated by ConQuest
# Please check atom types

@<TRIPOS>MOLECULE
LEZNUZ
    26    27     1
SMALL
NO_CHARGES
****
Generated from CSD

@<TRIPOS>ATOM
      1 O1         3.6637    0.3607    1.3941 O.2       1 RES1    0.0000
      2 O2         3.7842    0.6779    3.6201 O.3       1 RES1    0.0000
      3 O3         6.7262   -7.5905   -1.8097 O.2       1 RES1    0.0000
      4 O4         6.0609   -6.5146   -3.5387 O.2       1 RES1    0.0000
      5 N1         4.7130   -2.2669    0.8478 N.3       1 RES1    0.0000
      6 N2         4.8328   -2.3493    2.1568 N.2       1 RES1    0.0000
      7 N3         4.1891   -0.1477    4.7819 N.2       1 RES1    0.0000
      8 N4         6.2351   -6.6032   -2.3405 N.pl3     1 RES1    0.0000
      9 C1         4.4802   -1.3332    2.8924 C.2       1 RES1    0.0000
     10 C2         3.9451   -0.0498    2.4929 C.2       1 RES1    0.0000
     11 C3         4.5805   -1.2843    4.3281 C.2       1 RES1    0.0000
     12 C4         5.0527   -2.3579    5.2248 C.3       1 RES1    0.0000
     13 C5         5.0951   -3.3700    0.0685 C.ar      1 RES1    0.0000
     14 C6         5.0592   -3.2418   -1.3196 C.ar      1 RES1    0.0000
     15 C7         5.4257   -4.3076   -2.1086 C.ar      1 RES1    0.0000
     16 C8         5.8325   -5.4737   -1.5057 C.ar      1 RES1    0.0000
     17 C9         5.8757   -5.6152   -0.1340 C.ar      1 RES1    0.0000
     18 C10        5.4955   -4.5595    0.6621 C.ar      1 RES1    0.0000
     19 H1         4.4006   -1.5237    0.4680 H         1 RES1    0.0000
     20 H2         4.7361   -2.4022   -1.6940 H         1 RES1    0.0000
     21 H3         5.4257   -4.2446   -2.9759 H         1 RES1    0.0000
     22 H4         6.1229   -6.4291    0.2485 H         1 RES1    0.0000
     23 H5         5.4932   -4.6489    1.5552 H         1 RES1    0.0000
     24 H6         4.9787   -2.0601    6.0677 H         1 RES1    0.0000
     25 H7         5.9391   -2.5343    5.0115 H         1 RES1    0.0000
     26 H8         4.7049   -3.1329    4.9701 H         1 RES1    0.0000
@<TRIPOS>BOND
     1    1   10 2
     2    2    7 1
     3    3    8 2
     4    4    8 2
     5    5    6 1
     6    6    9 2
     7    7   11 2
     8    8   16 1
     9    9   10 1
    10   10    2 1
    11   11    9 1
    12   12   11 1
    13   13    5 1
    14   14   13 ar
    15   15   14 ar
    16   16   15 ar
    17   17   16 ar
    18   18   13 ar
    19   19    5 1
    20   20   14 1
    21   21   15 1
    22   22   17 1
    23   23   18 1
    24   24   12 1
    25   25   12 1
    26   26   12 1
    27   17   18 ar
@<TRIPOS>SUBSTRUCTURE
     1 RES1 1

@<TRIPOS>CRYSIN
   7.0460    7.7740   20.9170  90.0000  98.0900  90.0000  14 1

