# MOL2 file generated by ConQuest
# Please check atom types

@<TRIPOS>MOLECULE
LEZPEL
    37    39     1
SMALL
NO_CHARGES
****
Generated from CSD

@<TRIPOS>ATOM
      1 O1        11.1466    2.5899   -0.9017 O.2       1 RES1    0.0000
      2 O2        10.0209   -1.3914    6.6888 O.2       1 RES1    0.0000
      3 O3        12.1390   -1.3960    7.0641 O.2       1 RES1    0.0000
      4 N1        12.0144    1.2957    1.4047 N.3       1 RES1    0.0000
      5 N2        13.2367    1.3830    0.9126 N.2       1 RES1    0.0000
      6 N3        14.4554    2.8360   -2.0183 N.2       1 RES1    0.0000
      7 N4        13.0668    3.0760   -2.1538 N.am      1 RES1    0.0000
      8 N5        11.1719   -1.1256    6.3696 N.pl3     1 RES1    0.0000
      9 C1        13.3807    1.9777   -0.2398 C.2       1 RES1    0.0000
     10 C2        12.3581    2.5648   -1.0964 C.2       1 RES1    0.0000
     11 C3        14.6318    2.2018   -0.9048 C.2       1 RES1    0.0000
     12 C4        15.9839    1.8167   -0.4189 C.3       1 RES1    0.0000
     13 C5        11.8152    0.6927    2.6475 C.ar      1 RES1    0.0000
     14 C6        10.5366    0.6220    3.1645 C.ar      1 RES1    0.0000
     15 C7        10.3190    0.0213    4.3855 C.ar      1 RES1    0.0000
     16 C8        11.3938   -0.4800    5.0801 C.ar      1 RES1    0.0000
     17 C9        12.6747   -0.3957    4.5911 C.ar      1 RES1    0.0000
     18 C10       12.8876    0.1800    3.3654 C.ar      1 RES1    0.0000
     19 C11       12.5973    3.6927   -3.3483 C.ar      1 RES1    0.0000
     20 C12       13.4574    3.8598   -4.4198 C.ar      1 RES1    0.0000
     21 C13       12.9996    4.4560   -5.5784 C.ar      1 RES1    0.0000
     22 C14       11.7055    4.8889   -5.6719 C.ar      1 RES1    0.0000
     23 C15       10.8559    4.7378   -4.6020 C.ar      1 RES1    0.0000
     24 C16       11.2919    4.1408   -3.4308 C.ar      1 RES1    0.0000
     25 H1        11.3517    1.6709    0.9344 H         1 RES1    0.0000
     26 H2         9.8434    0.9874    2.6786 H         1 RES1    0.0000
     27 H3         9.4814   -0.0076    4.7499 H         1 RES1    0.0000
     28 H4        13.3961   -0.7747    5.0770 H         1 RES1    0.0000
     29 H5        13.7422    0.2279    3.0368 H         1 RES1    0.0000
     30 H6        14.3704    3.5013   -4.3606 H         1 RES1    0.0000
     31 H7        13.5951    4.5342   -6.3384 H         1 RES1    0.0000
     32 H8        11.4256    5.3013   -6.4319 H         1 RES1    0.0000
     33 H9         9.9573    5.0051   -4.7032 H         1 RES1    0.0000
     34 H10       10.7039    4.0026   -2.6942 H         1 RES1    0.0000
     35 H11       16.2366    2.3544    0.2803 H         1 RES1    0.0000
     36 H12       15.9987    1.0101   -0.0311 H         1 RES1    0.0000
     37 H13       16.6435    1.8456   -1.0901 H         1 RES1    0.0000
@<TRIPOS>BOND
     1    1   10 2
     2    2    8 2
     3    3    8 2
     4    4    5 1
     5    5    9 2
     6    6    7 1
     7    7   10 1
     8    8   16 1
     9    9   10 1
    10   11    6 2
    11   12   11 1
    12   13    4 1
    13   14   13 ar
    14   15   14 ar
    15   16   15 ar
    16   17   16 ar
    17   18   13 ar
    18   19    7 1
    19   20   19 ar
    20   21   20 ar
    21   22   21 ar
    22   23   22 ar
    23   24   19 ar
    24   25    4 1
    25   26   14 1
    26   27   15 1
    27   28   17 1
    28   29   18 1
    29   30   20 1
    30   31   21 1
    31   32   22 1
    32   33   23 1
    33   34   24 1
    34   35   12 1
    35   36   12 1
    36   37   12 1
    37    9   11 1
    38   17   18 ar
    39   23   24 ar
@<TRIPOS>SUBSTRUCTURE
     1 RES1 1

@<TRIPOS>CRYSIN
  12.8170    7.5950   15.6520  90.0000  95.7400  90.0000 231 1

