# MOL2 file generated by ConQuest
# Please check atom types

@<TRIPOS>MOLECULE
LEZYOE
    68    70     2
SMALL
NO_CHARGES
****
Generated from CSD

@<TRIPOS>ATOM
      1 O1         6.6115    1.6311    5.0482 O.2       1 RES1    0.0000
      2 O2         5.2019    4.7169    8.1421 O.2       1 RES1    0.0000
      3 O3         8.1746    1.8145    7.9028 O.2       1 RES1    0.0000
      4 O4         9.7199    6.5098    6.1032 O.2       1 RES1    0.0000
      5 O5        -0.0807    3.4941    5.1885 O.2       2 RES2    0.0000
      6 O6        -3.7905    3.9527    7.8546 O.2       2 RES2    0.0000
      7 O7         0.3943    5.0370    7.8961 O.2       2 RES2    0.0000
      8 O8        -2.9062    8.6732    5.9865 O.2       2 RES2    0.0000
      9 N1         5.8312    2.3018    5.8039 N.pl3     1 RES1    0.0000
     10 N2         5.1642    3.7818    7.2705 N.3       1 RES1    0.0000
     11 N3        -1.1190    3.1902    5.8673 N.pl3     2 RES2    0.0000
     12 N4        -2.8938    3.4186    7.1133 N.3       2 RES2    0.0000
     13 C1         6.2084    3.2891    6.6087 C.2       1 RES1    0.0000
     14 C2         7.5945    3.7566    6.7219 C.2       1 RES1    0.0000
     15 C3         8.5576    2.8233    7.3500 C.2       1 RES1    0.0000
     16 C4         9.9803    3.1956    7.2984 C.2       1 RES1    0.0000
     17 C5        10.3607    4.3753    6.8563 C.2       1 RES1    0.0000
     18 C6         9.3974    5.3769    6.4075 C.2       1 RES1    0.0000
     19 C7         7.9738    4.9579    6.3204 C.2       1 RES1    0.0000
     20 C8         4.3677    1.9979    5.9282 C.3       1 RES1    0.0000
     21 C9         3.8680    3.1938    6.7955 C.3       1 RES1    0.0000
     22 C10        3.7846    1.9548    4.5140 C.3       1 RES1    0.0000
     23 C11        4.2787    0.6420    6.6044 C.3       1 RES1    0.0000
     24 C12        3.0313    2.8251    8.0195 C.3       1 RES1    0.0000
     25 C13        3.1720    4.3069    6.0169 C.3       1 RES1    0.0000
     26 C14       -1.8631    4.0498    6.5664 C.2       2 RES2    0.0000
     27 C15       -1.5665    5.4776    6.6763 C.2       2 RES2    0.0000
     28 C16       -0.2861    5.8625    7.3238 C.2       2 RES2    0.0000
     29 C17        0.0696    7.2885    7.2798 C.2       2 RES2    0.0000
     30 C18       -0.7604    8.2002    6.8327 C.2       2 RES2    0.0000
     31 C19       -2.0929    7.8424    6.3415 C.2       2 RES2    0.0000
     32 C20       -2.4227    6.4019    6.2731 C.2       2 RES2    0.0000
     33 C21       -1.6103    1.7839    5.9662 C.3       2 RES2    0.0000
     34 C22       -2.9466    1.9691    6.7549 C.3       2 RES2    0.0000
     35 C23       -1.7712    1.2480    4.5486 C.3       2 RES2    0.0000
     36 C24       -0.5209    1.0035    6.6957 C.3       2 RES2    0.0000
     37 C25       -4.2077    1.7911    5.9104 C.3       2 RES2    0.0000
     38 C26       -3.0336    1.1743    8.0516 C.3       2 RES2    0.0000
     39 H1        10.5832    2.4996    7.6585 H         1 RES1    0.0000
     40 H2        11.2837    4.6036    6.8217 H         1 RES1    0.0000
     41 H3         7.3235    5.6107    5.9256 H         1 RES1    0.0000
     42 H4         2.8457    1.8882    4.5478 H         1 RES1    0.0000
     43 H5         4.0445    2.8413    3.9645 H         1 RES1    0.0000
     44 H6         4.1589    1.1149    4.1082 H         1 RES1    0.0000
     45 H7         4.8596    0.5575    7.5233 H         1 RES1    0.0000
     46 H8         4.6890   -0.0180    5.9172 H         1 RES1    0.0000
     47 H9         3.3499    0.4496    6.7202 H         1 RES1    0.0000
     48 H10        2.9155    3.7225    8.5715 H         1 RES1    0.0000
     49 H11        3.5197    2.1040    8.5884 H         1 RES1    0.0000
     50 H12        2.2094    2.4996    7.7346 H         1 RES1    0.0000
     51 H13        3.7941    4.6216    5.2325 H         1 RES1    0.0000
     52 H14        2.3396    3.9922    5.6551 H         1 RES1    0.0000
     53 H15        2.9974    5.1252    6.6695 H         1 RES1    0.0000
     54 H16        0.9157    7.4809    7.6501 H         2 RES2    0.0000
     55 H17       -0.5376    9.1354    6.8048 H         2 RES2    0.0000
     56 H18       -3.2858    6.1682    5.8918 H         2 RES2    0.0000
     57 H19       -2.4401    1.7983    4.0152 H         2 RES2    0.0000
     58 H20       -2.0395    0.3057    4.6408 H         2 RES2    0.0000
     59 H21       -0.9131    1.2588    4.0744 H         2 RES2    0.0000
     60 H22        0.3159    1.0430    6.0693 H         2 RES2    0.0000
     61 H23       -0.8225    0.0539    6.8048 H         2 RES2    0.0000
     62 H24       -0.4191    1.3487    7.6416 H         2 RES2    0.0000
     63 H25       -4.9624    2.0141    6.4328 H         2 RES2    0.0000
     64 H26       -4.2869    0.8452    5.6974 H         2 RES2    0.0000
     65 H27       -4.1682    2.4637    5.0296 H         2 RES2    0.0000
     66 H28       -3.0811    0.2697    7.7684 H         2 RES2    0.0000
     67 H29       -3.8972    1.4386    8.4785 H         2 RES2    0.0000
     68 H30       -2.2350    1.3847    8.6391 H         2 RES2    0.0000
@<TRIPOS>BOND
     1    1    9 1
     2    2   10 1
     3    3   15 2
     4    4   18 2
     5    5   11 1
     6    6   12 1
     7    7   28 2
     8    8   31 2
     9    9   13 2
    10   10   13 1
    11   11   26 2
    12   12   26 1
    13   13   14 1
    14   14   15 1
    15   15   16 1
    16   16   17 2
    17   17   18 1
    18   18   19 1
    19   19   14 2
    20   20    9 1
    21   21   10 1
    22   22   20 1
    23   23   20 1
    24   24   21 1
    25   25   21 1
    26   26   27 1
    27   27   28 1
    28   28   29 1
    29   29   30 2
    30   30   31 1
    31   31   32 1
    32   32   27 2
    33   33   11 1
    34   34   12 1
    35   35   33 1
    36   36   33 1
    37   37   34 1
    38   38   34 1
    39   39   16 1
    40   40   17 1
    41   41   19 1
    42   42   22 1
    43   43   22 1
    44   44   22 1
    45   45   23 1
    46   46   23 1
    47   47   23 1
    48   48   24 1
    49   49   24 1
    50   50   24 1
    51   51   25 1
    52   52   25 1
    53   53   25 1
    54   54   29 1
    55   55   30 1
    56   56   32 1
    57   57   35 1
    58   58   35 1
    59   59   35 1
    60   60   36 1
    61   61   36 1
    62   62   36 1
    63   63   37 1
    64   64   37 1
    65   65   37 1
    66   66   38 1
    67   67   38 1
    68   68   38 1
    69   20   21 1
    70   33   34 1
@<TRIPOS>SUBSTRUCTURE
     1 RES1 1
     2 RES2 5

@<TRIPOS>CRYSIN
  17.8050   17.9830    8.4745  90.0000  94.0700  90.0000 231 1

