# MOL2 file generated by ConQuest
# Please check atom types

@<TRIPOS>MOLECULE
LEZZUN
    47    50     1
SMALL
NO_CHARGES
****
Generated from CSD

@<TRIPOS>ATOM
      1 O1         7.0568    2.8132    4.7355 O.3       1 RES1    0.0000
      2 O2         9.1194    2.7694    8.5816 O.2       1 RES1    0.0000
      3 O3         9.0369    0.4899    4.6346 O.2       1 RES1    0.0000
      4 O4         0.2396    2.7952    4.8158 O.2       1 RES1    0.0000
      5 O5         0.2294    3.3859    6.8683 O.2       1 RES1    0.0000
      6 O6         6.1638    5.6865    5.1083 O.2       1 RES1    0.0000
      7 O7         7.6066    6.3945    6.6744 O.3       1 RES1    0.0000
      8 N1         6.4121    3.0212    6.0242 N.3       1 RES1    0.0000
      9 N2         9.2278    1.3734    6.7525 N.am      1 RES1    0.0000
     10 N3         0.8147    3.0740    5.8425 N.pl3     1 RES1    0.0000
     11 C1         7.1748    4.1036    6.6334 C.3       1 RES1    0.0000
     12 H1         7.0097    4.1252    7.5991 H         1 RES1    0.0000
     13 C2         8.6003    3.6095    6.3572 C.3       1 RES1    0.0000
     14 H2         9.2422    4.3455    6.2773 H         1 RES1    0.0000
     15 C3         9.0162    2.5876    7.4018 C.2       1 RES1    0.0000
     16 C4         8.9380    1.4159    5.3904 C.2       1 RES1    0.0000
     17 C5         8.4572    2.8191    5.0626 C.3       1 RES1    0.0000
     18 H3         8.9890    3.2180    4.3426 H         1 RES1    0.0000
     19 C6         5.0201    3.0814    5.9079 C.ar      1 RES1    0.0000
     20 C7         4.3501    2.5702    4.8071 C.ar      1 RES1    0.0000
     21 H4         4.8286    2.2292    4.0859 H         1 RES1    0.0000
     22 C8         2.9665    2.5695    4.7851 C.ar      1 RES1    0.0000
     23 H5         2.5090    2.2326    4.0486 H         1 RES1    0.0000
     24 C9         2.2769    3.0683    5.8588 C.ar      1 RES1    0.0000
     25 C10        2.9238    3.5611    6.9650 C.ar      1 RES1    0.0000
     26 H6         2.4357    3.8858    7.6862 H         1 RES1    0.0000
     27 C11        4.2952    3.5701    6.9966 C.ar      1 RES1    0.0000
     28 H7         4.7411    3.9015    7.7427 H         1 RES1    0.0000
     29 C12        6.8995    5.4747    6.0274 C.2       1 RES1    0.0000
     30 C13        7.4837    7.7705    6.2294 C.3       1 RES1    0.0000
     31 H8         8.3067    8.2435    6.4258 H         1 RES1    0.0000
     32 H9         7.3529    7.7838    5.2688 H         1 RES1    0.0000
     33 C14        6.3794    8.4514    6.8683 C.3       1 RES1    0.0000
     34 H10        6.3618    9.3677    6.5848 H         1 RES1    0.0000
     35 H11        6.4885    8.4135    7.8213 H         1 RES1    0.0000
     36 H12        5.5552    8.0250    6.6241 H         1 RES1    0.0000
     37 C15        9.6386    0.1733    7.4401 C.ar      1 RES1    0.0000
     38 C16       10.9387   -0.2299    7.4209 C.ar      1 RES1    0.0000
     39 H13       11.5739    0.2463    6.9373 H         1 RES1    0.0000
     40 C17       11.3015   -1.3652    8.1374 C.ar      1 RES1    0.0000
     41 H14       12.1899   -1.6393    8.1412 H         1 RES1    0.0000
     42 C18       10.3835   -2.0722    8.8260 C.ar      1 RES1    0.0000
     43 H15       10.6453   -2.8034    9.3365 H         1 RES1    0.0000
     44 C19        9.0848   -1.7186    8.7724 C.ar      1 RES1    0.0000
     45 H16        8.4428   -2.2378    9.2015 H         1 RES1    0.0000
     46 C20        8.7066   -0.5804    8.0770 C.ar      1 RES1    0.0000
     47 H17        7.8108   -0.3331    8.0464 H         1 RES1    0.0000
@<TRIPOS>BOND
     1    1    8 1
     2    2   15 2
     3    3   16 2
     4    4   10 2
     5    5   10 2
     6    6   29 2
     7    7   29 1
     8    8   11 1
     9    9   15 1
    10   10   24 1
    11   11   12 1
    12   13   11 1
    13   14   13 1
    14   15   13 1
    15   16    9 1
    16   17    1 1
    17   18   17 1
    18   19    8 1
    19   20   19 ar
    20   21   20 1
    21   22   20 ar
    22   23   22 1
    23   24   22 ar
    24   25   24 ar
    25   26   25 1
    26   27   19 ar
    27   28   27 1
    28   29   11 1
    29   30    7 1
    30   31   30 1
    31   32   30 1
    32   33   30 1
    33   34   33 1
    34   35   33 1
    35   36   33 1
    36   37    9 1
    37   38   37 ar
    38   39   38 1
    39   40   38 ar
    40   41   40 1
    41   42   40 ar
    42   43   42 1
    43   44   42 ar
    44   45   44 1
    45   46   37 ar
    46   47   46 1
    47   13   17 1
    48   16   17 1
    49   25   27 ar
    50   44   46 ar
@<TRIPOS>SUBSTRUCTURE
     1 RES1 1

@<TRIPOS>CRYSIN
  11.4932   17.3475    9.5804  90.0000  91.3170  90.0000  14 1

