# MOL2 file generated by ConQuest
# Please check atom types

@<TRIPOS>MOLECULE
LIBJEN
    52    54     1
SMALL
NO_CHARGES
****
Generated from CSD

@<TRIPOS>ATOM
      1 C1         6.5769    4.5056    3.7872 C.ar      1 RES1    0.0000
      2 H1         5.9466    4.0251    4.2717 H         1 RES1    0.0000
      3 C2         7.8101    4.7679    4.3349 C.ar      1 RES1    0.0000
      4 H2         8.0073    4.4561    5.1880 H         1 RES1    0.0000
      5 C3         8.7379    5.4728    3.6548 C.ar      1 RES1    0.0000
      6 H3         9.5661    5.6483    4.0402 H         1 RES1    0.0000
      7 C4         8.4609    5.9204    2.4174 C.ar      1 RES1    0.0000
      8 H4         9.0994    6.4049    1.9449 H         1 RES1    0.0000
      9 C5         7.2252    5.6600    1.8435 C.ar      1 RES1    0.0000
     10 H5         7.0419    5.9723    0.9880 H         1 RES1    0.0000
     11 C6         6.2758    4.9532    2.5193 C.ar      1 RES1    0.0000
     12 C7         4.9839    4.7078    1.8899 C.2       1 RES1    0.0000
     13 H6         4.8126    5.0601    1.0464 H         1 RES1    0.0000
     14 C8         2.0163    3.0385    2.2684 C.3       1 RES1    0.0000
     15 H7         1.1161    3.2774    1.9974 H         1 RES1    0.0000
     16 H8         2.0736    3.1431    3.2312 H         1 RES1    0.0000
     17 C9         3.3651    0.9668    2.6289 C.3       1 RES1    0.0000
     18 H9         4.1263    1.5838    2.6608 H         1 RES1    0.0000
     19 C10        3.7890   -0.2341    1.8306 C.2       1 RES1    0.0000
     20 C11        2.9221   -0.8308    0.9970 C.2       1 RES1    0.0000
     21 C12        1.3672    1.0160    1.1517 C.2       1 RES1    0.0000
     22 C13        2.9727    0.6470    4.0621 C.ar      1 RES1    0.0000
     23 C14        2.2403   -0.4621    4.3813 C.ar      1 RES1    0.0000
     24 H10        2.0010   -1.0600    3.7097 H         1 RES1    0.0000
     25 C15        1.8488   -0.7124    5.6820 C.ar      1 RES1    0.0000
     26 H11        1.3609   -1.4778    5.8837 H         1 RES1    0.0000
     27 C16        2.1817    0.1718    6.6736 C.ar      1 RES1    0.0000
     28 H12        1.9001    0.0185    7.5470 H         1 RES1    0.0000
     29 C17        2.9182    1.2661    6.3836 C.ar      1 RES1    0.0000
     30 H13        3.1526    1.8604    7.0590 H         1 RES1    0.0000
     31 C18        3.3250    1.5068    5.0832 C.ar      1 RES1    0.0000
     32 H14        3.8417    2.2571    4.8945 H         1 RES1    0.0000
     33 C19        3.1449   -2.0733    0.1898 C.3       1 RES1    0.0000
     34 H15        3.9468   -1.9794   -0.3281 H         1 RES1    0.0000
     35 H16        2.3987   -2.2111   -0.3985 H         1 RES1    0.0000
     36 H17        3.2306   -2.8263    0.7780 H         1 RES1    0.0000
     37 C20        5.1604   -0.7280    2.0072 C.2       1 RES1    0.0000
     38 C21        7.2373   -0.2712    3.0701 C.3       1 RES1    0.0000
     39 H18        7.7145   -0.3454    2.2289 H         1 RES1    0.0000
     40 H19        7.3058   -1.1162    3.5414 H         1 RES1    0.0000
     41 C22        7.7938    0.8161    3.8815 C.3       1 RES1    0.0000
     42 H20        7.7014    1.6469    3.4102 H         1 RES1    0.0000
     43 H21        8.7224    0.6454    4.0521 H         1 RES1    0.0000
     44 H22        7.3202    0.8673    4.7155 H         1 RES1    0.0000
     45 H23        1.0892   -0.6450    0.3532 H         1 RES1    0.0000
     46 N1         4.0936    4.0245    2.4689 N.2       1 RES1    0.0000
     47 N2         2.2538    1.6630    1.9342 N.am      1 RES1    0.0000
     48 N3         1.6705   -0.2729    0.8333 N.am      1 RES1    0.0000
     49 O1         2.9284    3.9228    1.6572 O.3       1 RES1    0.0000
     50 O2         0.3257    1.5365    0.7304 O.2       1 RES1    0.0000
     51 O3         5.6469   -1.6940    1.4878 O.2       1 RES1    0.0000
     52 O4         5.8475    0.0688    2.8376 O.3       1 RES1    0.0000
@<TRIPOS>BOND
     1    1    2 1
     2    3    1 ar
     3    4    3 1
     4    5    3 ar
     5    6    5 1
     6    7    5 ar
     7    8    7 1
     8    9    7 ar
     9   10    9 1
    10   11    1 ar
    11   12   11 1
    12   13   12 1
    13   14   15 1
    14   16   14 1
    15   17   18 1
    16   19   17 1
    17   20   19 2
    18   21   47 1
    19   22   17 1
    20   23   22 ar
    21   24   23 1
    22   25   23 ar
    23   26   25 1
    24   27   25 ar
    25   28   27 1
    26   29   27 ar
    27   30   29 1
    28   31   22 ar
    29   32   31 1
    30   33   20 1
    31   34   33 1
    32   35   33 1
    33   36   33 1
    34   37   19 1
    35   38   39 1
    36   40   38 1
    37   41   38 1
    38   42   41 1
    39   43   41 1
    40   44   41 1
    41   45   48 1
    42   46   12 2
    43   47   14 1
    44   48   20 1
    45   49   14 1
    46   50   21 2
    47   51   37 2
    48   52   37 1
    49    9   11 ar
    50   17   47 1
    51   21   48 1
    52   29   31 ar
    53   38   52 1
    54   46   49 1
@<TRIPOS>SUBSTRUCTURE
     1 RES1 1

@<TRIPOS>CRYSIN
   9.0330    9.5120   12.3700 101.1820  99.1710  95.4910   2 1

