# MOL2 file generated by ConQuest
# Please check atom types

@<TRIPOS>MOLECULE
LIBMUF
    39    40     1
SMALL
NO_CHARGES
****
Generated from CSD

@<TRIPOS>ATOM
      1 N1         0.9139    0.5941    4.3881 N.2       1 RES1    0.0000
      2 N2         1.3944    0.0619    5.5709 N.am      1 RES1    0.0000
      3 N3         3.7749   -3.2691   10.5316 N.pl3     1 RES1    0.0000
      4 O1        -1.1435    3.8925   -0.6201 O.3       1 RES1    0.0000
      5 O2         0.0009    0.1264    2.0579 O.3       1 RES1    0.0000
      6 O3         1.8619   -1.8962    4.5666 O.2       1 RES1    0.0000
      7 O4         3.9528   -2.4746   11.4475 O.2       1 RES1    0.0000
      8 O5         3.9696   -4.4654   10.6082 O.2       1 RES1    0.0000
      9 C1        -1.3060    3.0568   -1.7622 C.3       1 RES1    0.0000
     10 H1        -0.4732    2.6233   -1.9629 H         1 RES1    0.0000
     11 H2        -1.5790    3.5900   -2.5126 H         1 RES1    0.0000
     12 H3        -1.9764    2.3934   -1.5796 H         1 RES1    0.0000
     13 C2        -0.7069    3.3143    0.5396 C.ar      1 RES1    0.0000
     14 C3        -0.4014    4.1931    1.5725 C.ar      1 RES1    0.0000
     15 H4        -0.4853    5.1103    1.4434 H         1 RES1    0.0000
     16 C4         0.0214    3.7060    2.7739 C.ar      1 RES1    0.0000
     17 H5         0.2199    4.3064    3.4557 H         1 RES1    0.0000
     18 C5         0.1682    2.3396    3.0210 C.ar      1 RES1    0.0000
     19 C6        -0.1264    1.4710    1.9528 C.ar      1 RES1    0.0000
     20 C7        -0.5560    1.9599    0.7232 C.ar      1 RES1    0.0000
     21 H6        -0.7413    1.3717    0.0272 H         1 RES1    0.0000
     22 C8         0.6420    1.8534    4.3212 C.2       1 RES1    0.0000
     23 C9         0.8051    2.7870    5.4791 C.3       1 RES1    0.0000
     24 H7         0.2945    2.4626    6.2255 H         1 RES1    0.0000
     25 H8         0.4924    3.6613    5.2330 H         1 RES1    0.0000
     26 H9         1.7326    2.8350    5.7232 H         1 RES1    0.0000
     27 C10        1.8574   -1.2069    5.5689 C.2       1 RES1    0.0000
     28 C11        2.3710   -1.7032    6.8812 C.ar      1 RES1    0.0000
     29 C12        2.8306   -0.8584    7.8768 C.ar      1 RES1    0.0000
     30 H10        2.8261    0.0611    7.7396 H         1 RES1    0.0000
     31 C13        3.2942   -1.3695    9.0670 C.ar      1 RES1    0.0000
     32 H11        3.5978   -0.8019    9.7388 H         1 RES1    0.0000
     33 C14        3.3004   -2.7253    9.2455 C.ar      1 RES1    0.0000
     34 C15        2.8809   -3.5839    8.2742 C.ar      1 RES1    0.0000
     35 H12        2.9055   -4.5018    8.4164 H         1 RES1    0.0000
     36 C16        2.4184   -3.0743    7.0809 C.ar      1 RES1    0.0000
     37 H13        2.1384   -3.6511    6.4071 H         1 RES1    0.0000
     38 H14        1.3459    0.5454    6.2437 H         1 RES1    0.0000
     39 H15        0.3410   -0.0387    2.8848 H         1 RES1    0.0000
@<TRIPOS>BOND
     1    1    2 1
     2    2   27 1
     3    3    7 2
     4    4    9 1
     5    5   19 1
     6    6   27 2
     7    8    3 2
     8    9   10 1
     9   11    9 1
    10   12    9 1
    11   13    4 1
    12   14   13 ar
    13   15   14 1
    14   16   14 ar
    15   17   16 1
    16   18   16 ar
    17   19   18 ar
    18   20   13 ar
    19   21   20 1
    20   22    1 2
    21   23   22 1
    22   24   23 1
    23   25   23 1
    24   26   23 1
    25   27   28 1
    26   28   29 ar
    27   29   30 1
    28   31   29 ar
    29   32   31 1
    30   33    3 1
    31   34   33 ar
    32   35   34 1
    33   36   28 ar
    34   37   36 1
    35   38    2 1
    36   39    5 1
    37   18   22 1
    38   19   20 ar
    39   31   33 ar
    40   34   36 ar
@<TRIPOS>SUBSTRUCTURE
     1 RES1 1

@<TRIPOS>CRYSIN
   7.3343   20.3517   10.1375  90.0000  95.7350  90.0000 231 1

