# MOL2 file generated by ConQuest
# Please check atom types

@<TRIPOS>MOLECULE
LIBMUE
    29    32     1
SMALL
NO_CHARGES
****
Generated from CSD

@<TRIPOS>ATOM
      1 C1         1.1818    0.0870   13.9386 C.2       1 RES1    0.0000
      2 C2         0.7793    0.6915   15.2355 C.2       1 RES1    0.0000
      3 C3         1.4628    1.7494   15.7937 C.2       1 RES1    0.0000
      4 C4         2.6821    2.2313   15.1138 C.2       1 RES1    0.0000
      5 C5         4.4368    1.8641   13.3888 C.ar      1 RES1    0.0000
      6 C6         4.8847    1.2518   12.2388 C.ar      1 RES1    0.0000
      7 C7         4.1153    0.2946   11.6106 C.ar      1 RES1    0.0000
      8 C8         2.8985   -0.0716   12.1464 C.ar      1 RES1    0.0000
      9 C9         2.4505    0.5152   13.3202 C.ar      1 RES1    0.0000
     10 C10        3.2192    1.4966   13.9372 C.ar      1 RES1    0.0000
     11 C11       -0.8516   -0.0108   17.0137 C.ar      1 RES1    0.0000
     12 C12       -2.2080   -0.1903   17.2165 C.ar      1 RES1    0.0000
     13 C13       -2.7104   -0.3808   18.4827 C.ar      1 RES1    0.0000
     14 C14       -1.8787   -0.4120   19.5991 C.ar      1 RES1    0.0000
     15 C15       -0.5259   -0.2223   19.3892 C.ar      1 RES1    0.0000
     16 C16       -0.0161   -0.0389   18.1105 C.ar      1 RES1    0.0000
     17 C17       -2.4444   -0.6467   20.9478 C.2       1 RES1    0.0000
     18 C18       -1.7239   -0.2241   22.1859 C.3       1 RES1    0.0000
     19 C19       -0.2582    3.1946   16.7101 C.3       1 RES1    0.0000
     20 C20       -0.9708    3.4386   18.0308 C.3       1 RES1    0.0000
     21 C21       -0.0417    4.0788   19.0437 C.3       1 RES1    0.0000
     22 C22        1.2038    3.2352   19.1976 C.3       1 RES1    0.0000
     23 C23        1.9033    3.0503   17.8545 C.3       1 RES1    0.0000
     24 N1        -0.3988    0.1404   15.7014 N.pl3     1 RES1    0.0000
     25 N2        -3.5651   -1.2629   20.9645 N.2       1 RES1    0.0000
     26 N3         0.9731    2.4308   16.9059 N.3       1 RES1    0.0000
     27 O1         0.4838   -0.7825   13.4279 O.2       1 RES1    0.0000
     28 O2        -4.0981   -1.4159   22.2643 O.3       1 RES1    0.0000
     29 O3         3.2295    3.2658   15.4705 O.2       1 RES1    0.0000
@<TRIPOS>BOND
     1    1    2 1
     2    2    3 2
     3    3    4 1
     4    4   10 1
     5    5    6 ar
     6    6    7 ar
     7    7    8 ar
     8    8    9 ar
     9    9    1 1
    10   10    5 ar
    11   11   12 ar
    12   12   13 ar
    13   13   14 ar
    14   14   15 ar
    15   15   16 ar
    16   16   11 ar
    17   17   14 1
    18   18   17 1
    19   19   20 1
    20   20   21 1
    21   21   22 1
    22   22   23 1
    23   23   26 1
    24   24    2 1
    25   25   17 2
    26   26    3 1
    27   27    1 2
    28   28   25 1
    29   29    4 2
    30    9   10 ar
    31   11   24 1
    32   19   26 1
@<TRIPOS>SUBSTRUCTURE
     1 RES1 1

@<TRIPOS>CRYSIN
   6.8040   10.7320   14.0940  94.9900  93.7000 101.8500   2 1

