# MOL2 file generated by ConQuest
# Please check atom types

@<TRIPOS>MOLECULE
LIBXEZ
    27    29     1
SMALL
NO_CHARGES
****
Generated from CSD

@<TRIPOS>ATOM
      1 N1         4.0341    4.0447    1.5883 N.ar      1 RES1    0.0000
      2 N2         3.9504    3.0392    2.5080 N.pl3     1 RES1    0.0000
      3 C1         3.1102    2.0509    2.1683 C.ar      1 RES1    0.0000
      4 C2         1.6416    1.7973    0.0606 C.ar      1 RES1    0.0000
      5 C3         1.3896    2.5070   -1.1014 C.ar      1 RES1    0.0000
      6 C4         2.0121    3.7134   -1.4390 C.ar      1 RES1    0.0000
      7 C5         2.9054    4.2983   -0.6081 C.ar      1 RES1    0.0000
      8 C6         3.1805    3.6318    0.5994 C.ar      1 RES1    0.0000
      9 C7         2.5800    2.3911    0.9413 C.ar      1 RES1    0.0000
     10 N3         0.4062    1.9333   -2.0190 N.pl3     1 RES1    0.0000
     11 O1        -0.0849    0.8251   -1.7874 O.2       1 RES1    0.0000
     12 O2         0.1198    2.5808   -3.0165 O.2       1 RES1    0.0000
     13 C8         4.7843    3.1158    3.6960 C.ar      1 RES1    0.0000
     14 C9         4.7046    2.1158    4.6373 C.ar      1 RES1    0.0000
     15 C10        5.5305    2.2030    5.7517 C.ar      1 RES1    0.0000
     16 C11        6.3629    3.2645    5.9011 C.ar      1 RES1    0.0000
     17 C12        6.4064    4.2639    4.9727 C.ar      1 RES1    0.0000
     18 C13        5.6165    4.1945    3.8410 C.ar      1 RES1    0.0000
     19 H1         2.9126    1.2652    2.6833 H         1 RES1    0.0000
     20 H2         1.7914    4.1396   -2.2721 H         1 RES1    0.0000
     21 H3         4.0917    1.3873    4.5226 H         1 RES1    0.0000
     22 H4         6.9314    3.3239    6.6649 H         1 RES1    0.0000
     23 H5         5.6485    4.8776    3.1593 H         1 RES1    0.0000
     24 H6         1.2010    0.9655    0.2380 H         1 RES1    0.0000
     25 H7         3.3534    5.1217   -0.8223 H         1 RES1    0.0000
     26 H8         5.5229    1.5149    6.4269 H         1 RES1    0.0000
     27 H9         6.9920    5.0107    5.1069 H         1 RES1    0.0000
@<TRIPOS>BOND
     1    1    2 ar
     2    2    3 ar
     3    3    9 ar
     4    4    5 ar
     5    5    6 ar
     6    6    7 ar
     7    7    8 ar
     8    8    1 ar
     9    9    4 ar
    10   10    5 1
    11   11   10 2
    12   12   10 2
    13   13    2 1
    14   14   13 ar
    15   15   14 ar
    16   16   15 ar
    17   17   16 ar
    18   18   13 ar
    19   19    3 1
    20   20    6 1
    21   21   14 1
    22   22   16 1
    23   23   18 1
    24   24    4 1
    25   25    7 1
    26   26   15 1
    27   27   17 1
    28    8    9 ar
    29   17   18 ar
@<TRIPOS>SUBSTRUCTURE
     1 RES1 1

@<TRIPOS>CRYSIN
   9.0250    5.5490   21.8780  90.0000  98.4700  90.0000  14 1

