# MOL2 file generated by ConQuest
# Please check atom types

@<TRIPOS>MOLECULE
LICMIT
    36    37     1
SMALL
NO_CHARGES
****
Generated from CSD

@<TRIPOS>ATOM
      1 O1         0.7551    6.5629    4.3035 O.2       1 RES1    0.0000
      2 O2         2.5003    4.8960    8.2525 O.2       1 RES1    0.0000
      3 N1         1.5326    6.3608    5.3300 N.pl3     1 RES1    0.0000
      4 N2         2.3319    5.6118    7.2147 N.3       1 RES1    0.0000
      5 C1         1.3189    5.4799    6.3054 C.2       1 RES1    0.0000
      6 C2         2.8815    7.0027    5.4067 C.3       1 RES1    0.0000
      7 C3         3.1870    6.8154    6.9170 C.3       1 RES1    0.0000
      8 C4         3.7907    6.1896    4.4839 C.3       1 RES1    0.0000
      9 C5         2.7877    8.4404    4.9279 C.3       1 RES1    0.0000
     10 C6         4.6432    6.4963    7.2296 C.3       1 RES1    0.0000
     11 C7         2.6813    7.9464    7.7979 C.3       1 RES1    0.0000
     12 O3         0.3058    4.1161    3.9916 O.3       1 RES1    0.0000
     13 O4        -1.8634    2.8139    8.8976 O.3       1 RES1    0.0000
     14 C8         0.2275    4.5165    6.3785 C.ar      1 RES1    0.0000
     15 C9        -0.2442    3.8857    5.2213 C.ar      1 RES1    0.0000
     16 C10       -1.2468    2.9309    5.3257 C.ar      1 RES1    0.0000
     17 C11       -1.7560    2.5761    6.5561 C.ar      1 RES1    0.0000
     18 C12       -1.2979    3.2020    7.7126 C.ar      1 RES1    0.0000
     19 C13       -0.3163    4.1679    7.6260 C.ar      1 RES1    0.0000
     20 H1         0.4209    5.0389    3.9263 H         1 RES1    0.0000
     21 H2        -1.5428    3.3239    9.5561 H         1 RES1    0.0000
     22 H3        -1.5640    2.4763    4.5337 H         1 RES1    0.0000
     23 H4        -2.4233    1.8850    6.6186 H         1 RES1    0.0000
     24 H5         0.0151    4.6163    8.4237 H         1 RES1    0.0000
     25 H6         4.6807    6.6158    4.4584 H         1 RES1    0.0000
     26 H7         3.9336    5.2409    4.8647 H         1 RES1    0.0000
     27 H8         3.3742    6.1612    3.6038 H         1 RES1    0.0000
     28 H9         2.1050    8.9357    5.4515 H         1 RES1    0.0000
     29 H10        3.5511    8.8864    5.1233 H         1 RES1    0.0000
     30 H11        2.5793    8.4909    3.9874 H         1 RES1    0.0000
     31 H12        4.9523    5.6610    6.7316 H         1 RES1    0.0000
     32 H13        5.1657    7.2442    6.9760 H         1 RES1    0.0000
     33 H14        4.6939    6.3965    8.1808 H         1 RES1    0.0000
     34 H15        1.7644    8.0930    7.6622 H         1 RES1    0.0000
     35 H16        3.1994    8.7854    7.5997 H         1 RES1    0.0000
     36 H17        2.8474    7.7012    8.7470 H         1 RES1    0.0000
@<TRIPOS>BOND
     1    1    3 1
     2    2    4 1
     3    3    5 2
     4    4    5 1
     5    5   14 1
     6    6    3 1
     7    7    4 1
     8    8    6 1
     9    9    6 1
    10   10    7 1
    11   11    7 1
    12   12   15 1
    13   13   18 1
    14   14   15 ar
    15   15   16 ar
    16   16   17 ar
    17   17   18 ar
    18   18   19 ar
    19   19   14 ar
    20   20   12 1
    21   21   13 1
    22   22   16 1
    23   23   17 1
    24   24   19 1
    25   25    8 1
    26   26    8 1
    27   27    8 1
    28   28    9 1
    29   29    9 1
    30   30    9 1
    31   31   10 1
    32   32   10 1
    33   33   10 1
    34   34   11 1
    35   35   11 1
    36   36   11 1
    37    6    7 1
@<TRIPOS>SUBSTRUCTURE
     1 RES1 1

@<TRIPOS>CRYSIN
  15.1420   12.3200    7.1960  90.0000  99.1800  90.0000 231 1

