# MOL2 file generated by ConQuest
# Please check atom types

@<TRIPOS>MOLECULE
LICMIT02
    36    37     1
SMALL
NO_CHARGES
****
Generated from CSD

@<TRIPOS>ATOM
      1 O1         1.1164   12.0921    7.5176 O.2       1 RES1    0.0000
      2 O2         4.2307   15.0894    5.9068 O.2       1 RES1    0.0000
      3 N1         2.2428   12.6465    7.1995 N.3       1 RES1    0.0000
      4 N2         3.7182   14.1016    6.5358 N.pl3     1 RES1    0.0000
      5 C1         2.3804   13.8877    6.6881 C.2       1 RES1    0.0000
      6 C2         3.5402   11.8894    7.2173 C.3       1 RES1    0.0000
      7 C3         4.5294   13.0701    7.2521 C.3       1 RES1    0.0000
      8 C4         3.5900   10.9621    8.4120 C.3       1 RES1    0.0000
      9 C5         3.5834   11.1098    5.9175 C.3       1 RES1    0.0000
     10 C6         5.8479   12.8379    6.5554 C.3       1 RES1    0.0000
     11 C7         4.7563   13.6315    8.6517 C.3       1 RES1    0.0000
     12 O3        -0.2719   13.2305    5.6137 O.3       1 RES1    0.0000
     13 O4         1.1017   18.4934    6.5874 O.3       1 RES1    0.0000
     14 C8         1.3374   14.8600    6.4066 C.ar      1 RES1    0.0000
     15 C9         0.0925   14.5139    5.8952 C.ar      1 RES1    0.0000
     16 C10       -0.8169   15.5214    5.6039 C.ar      1 RES1    0.0000
     17 C11       -0.4883   16.8428    5.8034 C.ar      1 RES1    0.0000
     18 C12        0.7416   17.1932    6.3202 C.ar      1 RES1    0.0000
     19 C13        1.6388   16.2109    6.6320 C.ar      1 RES1    0.0000
     20 H1        -1.6468   15.2681    5.2475 H         1 RES1    0.0000
     21 H2        -1.1325   17.4774    5.5682 H         1 RES1    0.0000
     22 H3         2.4784   16.4080    6.9759 H         1 RES1    0.0000
     23 H4         4.4381   10.6103    8.4548 H         1 RES1    0.0000
     24 H5         2.9438   10.2303    8.3390 H         1 RES1    0.0000
     25 H6         3.4200   11.4546    9.2477 H         1 RES1    0.0000
     26 H7         3.6286   11.7220    5.0961 H         1 RES1    0.0000
     27 H8         4.4734   10.6244    5.8177 H         1 RES1    0.0000
     28 H9         2.8660   10.4977    5.9335 H         1 RES1    0.0000
     29 H10        5.7009   12.6367    5.6039 H         1 RES1    0.0000
     30 H11        6.3055   13.5936    6.5572 H         1 RES1    0.0000
     31 H12        6.2906   12.0597    6.9492 H         1 RES1    0.0000
     32 H13        3.9292   13.7343    9.1497 H         1 RES1    0.0000
     33 H14        5.1610   14.5082    8.6152 H         1 RES1    0.0000
     34 H15        5.2512   12.9603    9.1765 H         1 RES1    0.0000
     35 H16        0.1053   12.7211    6.2632 H         1 RES1    0.0000
     36 H17        0.4521   19.0253    6.3166 H         1 RES1    0.0000
@<TRIPOS>BOND
     1    1    3 1
     2    2    4 1
     3    3    5 1
     4    4    5 2
     5    5   14 1
     6    6    3 1
     7    7    4 1
     8    8    6 1
     9    9    6 1
    10   10    7 1
    11   11    7 1
    12   12   15 1
    13   13   18 1
    14   14   15 ar
    15   15   16 ar
    16   16   17 ar
    17   17   18 ar
    18   18   19 ar
    19   19   14 ar
    20   20   16 1
    21   21   17 1
    22   22   19 1
    23   23    8 1
    24   24    8 1
    25   25    8 1
    26   26    9 1
    27   27    9 1
    28   28    9 1
    29   29   10 1
    30   30   10 1
    31   31   10 1
    32   32   11 1
    33   33   11 1
    34   34   11 1
    35   35   12 1
    36   36   13 1
    37    6    7 1
@<TRIPOS>SUBSTRUCTURE
     1 RES1 1

@<TRIPOS>CRYSIN
  10.5860   14.0720    9.7440  90.0000 113.8900  90.0000  14 2

