# MOL2 file generated by ConQuest
# Please check atom types

@<TRIPOS>MOLECULE
LICZUS
    37    38     1
SMALL
NO_CHARGES
****
Generated from CSD

@<TRIPOS>ATOM
      1 O1        24.3571    3.1082   -0.2835 O.3       1 RES1    0.0000
      2 O2        22.2841    2.7189   -0.9557 O.2       1 RES1    0.0000
      3 O3        19.8366    8.8018    0.8833 O.2       1 RES1    0.0000
      4 O4        23.0569    8.2852    4.1598 O.2       1 RES1    0.0000
      5 N1        20.5371    8.9948    1.9287 N.3       1 RES1    0.0000
      6 N2        22.0928    8.7658    3.4380 N.pl3     1 RES1    0.0000
      7 C1        23.0668    3.3807   -0.3353 C.2       1 RES1    0.0000
      8 C2        22.6862    4.5868    0.4538 C.ar      1 RES1    0.0000
      9 C3        21.3522    4.9845    0.4498 C.ar      1 RES1    0.0000
     10 C4        20.9594    6.1306    1.1046 C.ar      1 RES1    0.0000
     11 C5        21.9005    6.9064    1.7826 C.ar      1 RES1    0.0000
     12 C6        23.2371    6.4929    1.8046 C.ar      1 RES1    0.0000
     13 C7        23.6229    5.3442    1.1445 C.ar      1 RES1    0.0000
     14 C8        21.5203    8.1769    2.3863 C.2       1 RES1    0.0000
     15 C9        20.2652   10.1378    2.8528 C.3       1 RES1    0.0000
     16 C10       19.0385    9.7252    3.6736 C.3       1 RES1    0.0000
     17 C11       19.9744   11.3856    2.0498 C.3       1 RES1    0.0000
     18 C12       21.5856   10.1553    3.6702 C.3       1 RES1    0.0000
     19 C13       21.4188   10.3887    5.1572 C.3       1 RES1    0.0000
     20 C14       22.6566   11.0890    3.0910 C.3       1 RES1    0.0000
     21 H1        24.5417    2.4249   -0.8391 H         1 RES1    0.0000
     22 H2        20.7104    4.4681   -0.0419 H         1 RES1    0.0000
     23 H3        20.0632    6.4380    1.0327 H         1 RES1    0.0000
     24 H4        23.8914    7.0402    2.2478 H         1 RES1    0.0000
     25 H5        24.5576    5.0769    1.1509 H         1 RES1    0.0000
     26 H6        18.2757    9.6208    3.0444 H         1 RES1    0.0000
     27 H7        18.8175   10.4457    4.2779 H         1 RES1    0.0000
     28 H8        19.2272    8.8293    4.2213 H         1 RES1    0.0000
     29 H9        19.9500   12.1278    2.6806 H         1 RES1    0.0000
     30 H10       19.0589   11.2923    1.5787 H         1 RES1    0.0000
     31 H11       20.7244   11.5384    1.4017 H         1 RES1    0.0000
     32 H12       20.8023    9.6281    5.5330 H         1 RES1    0.0000
     33 H13       20.9898   11.2523    5.2670 H         1 RES1    0.0000
     34 H14       22.3569   10.3421    5.5898 H         1 RES1    0.0000
     35 H15       23.4921   10.9114    3.6683 H         1 RES1    0.0000
     36 H16       22.3760   12.0340    3.2629 H         1 RES1    0.0000
     37 H17       22.7810   10.8925    2.1076 H         1 RES1    0.0000
@<TRIPOS>BOND
     1    1    7 1
     2    2    7 2
     3    3    5 1
     4    4    6 1
     5    5   14 1
     6    6   14 2
     7    7    8 1
     8    8    9 ar
     9    9   10 ar
    10   10   11 ar
    11   11   12 ar
    12   12   13 ar
    13   13    8 ar
    14   14   11 1
    15   15    5 1
    16   16   15 1
    17   17   15 1
    18   18    6 1
    19   19   18 1
    20   20   18 1
    21   21    1 1
    22   22    9 1
    23   23   10 1
    24   24   12 1
    25   25   13 1
    26   26   16 1
    27   27   16 1
    28   28   16 1
    29   29   17 1
    30   30   17 1
    31   31   17 1
    32   32   19 1
    33   33   19 1
    34   34   19 1
    35   35   20 1
    36   36   20 1
    37   37   20 1
    38   15   18 1
@<TRIPOS>SUBSTRUCTURE
     1 RES1 1

@<TRIPOS>CRYSIN
  25.5960    9.4360   12.7010  90.0000 108.0900  90.0000  15 1

