# MOL2 file generated by ConQuest
# Please check atom types

@<TRIPOS>MOLECULE
LIDROG
   104    93     2
SMALL
NO_CHARGES
****
Generated from CSD

@<TRIPOS>ATOM
      1 N1         3.7167   16.7481    6.0428 N.2       1 RES1    0.0000
      2 O1         4.9719   16.9437    5.4325 O.3       1 RES1    0.0000
      3 O2         1.3182   17.2023    7.0099 O.3       1 RES1    0.0000
      4 H1         2.0733   17.3889    6.7520 H         1 RES1    0.0000
      5 C1         5.0174   18.2762    4.8723 C.3       1 RES1    0.0000
      6 H2         4.1470   18.5018    4.5065 H         1 RES1    0.0000
      7 H3         5.6623   18.3002    4.1486 H         1 RES1    0.0000
      8 C2         5.3856   19.2524    5.8783 C.3       1 RES1    0.0000
      9 H4         6.2221   18.9908    6.2929 H         1 RES1    0.0000
     10 H5         4.7034   19.2783    6.5686 H         1 RES1    0.0000
     11 C3         3.5651   15.5274    6.3763 C.2       1 RES1    0.0000
     12 H6         4.2770   14.9376    6.2673 H         1 RES1    0.0000
     13 C4         2.3083   15.0294    6.9232 C.ar      1 RES1    0.0000
     14 C5         1.2153   15.8538    7.1800 C.ar      1 RES1    0.0000
     15 C6         0.0040   15.3248    7.6157 C.ar      1 RES1    0.0000
     16 C7        -0.0442   13.9484    7.7858 C.ar      1 RES1    0.0000
     17 H7        -0.8490   13.5772    8.0704 H         1 RES1    0.0000
     18 C8         1.0216   13.0831    7.5602 C.ar      1 RES1    0.0000
     19 C9         2.1907   13.6610    7.1277 C.ar      1 RES1    0.0000
     20 H8         2.9287   13.1180    6.9666 H         1 RES1    0.0000
     21 C10       -1.2116   16.2121    7.8881 C.3       1 RES1    0.0000
     22 C11       -0.9028   17.1903    9.0175 C.3       1 RES1    0.0000
     23 H9        -0.6869   16.7002    9.8145 H         1 RES1    0.0000
     24 H10       -1.6700   17.7432    9.1798 H         1 RES1    0.0000
     25 H11       -0.1571   17.7412    8.7685 H         1 RES1    0.0000
     26 C12       -1.6066   16.9717    6.6186 C.3       1 RES1    0.0000
     27 H12       -0.8600   17.4927    6.3118 H         1 RES1    0.0000
     28 H13       -2.3443   17.5546    6.8109 H         1 RES1    0.0000
     29 H14       -1.8616   16.3459    5.9361 H         1 RES1    0.0000
     30 C13       -2.4338   15.3887    8.3205 C.3       1 RES1    0.0000
     31 H15       -2.6762   14.7829    7.6169 H         1 RES1    0.0000
     32 H16       -3.1677   15.9786    8.5028 H         1 RES1    0.0000
     33 H17       -2.2189   14.8897    9.1120 H         1 RES1    0.0000
     34 C14        0.8643   11.5770    7.7458 C.3       1 RES1    0.0000
     35 C15        2.1542   10.8204    7.6324 C.3       1 RES1    0.0000
     36 H18        2.0068    9.9002    7.8636 H         1 RES1    0.0000
     37 H19        2.8025   11.2017    8.2305 H         1 RES1    0.0000
     38 H20        2.4803   10.8763    6.7309 H         1 RES1    0.0000
     39 C16       -0.1402   11.0560    6.7264 C.3       1 RES1    0.0000
     40 H21       -0.9778   11.5121    6.8387 H         1 RES1    0.0000
     41 H22       -0.2692   10.1137    6.8576 H         1 RES1    0.0000
     42 H23        0.1924   11.2127    5.8394 H         1 RES1    0.0000
     43 C17        0.2849   11.3075    9.1520 C.3       1 RES1    0.0000
     44 H24       -0.5648   11.7446    9.2365 H         1 RES1    0.0000
     45 H25        0.8880   11.6498    9.8168 H         1 RES1    0.0000
     46 H26        0.1737   10.3623    9.2765 H         1 RES1    0.0000
     47 C18       -0.3697   11.1787    8.5150 Du        2 SUP2    0.0000
     48 H27       -0.2208   10.3263    8.9352 Du        2 SUP2    0.0000
     49 H28       -1.1152   11.1198    7.9214 Du        2 SUP2    0.0000
     50 H29       -0.5471   11.8375    9.1942 Du        2 SUP2    0.0000
     51 C19        2.0411   11.0689    8.6040 Du        2 SUP2    0.0000
     52 H30        1.9953   10.1147    8.6762 Du        2 SUP2    0.0000
     53 H31        1.9911   11.4622    9.4777 Du        2 SUP2    0.0000
     54 H32        2.8710   11.3205    8.1860 Du        2 SUP2    0.0000
     55 C20        1.0439   10.9192    6.3618 Du        2 SUP2    0.0000
     56 H33        1.9174   11.1318    6.0206 Du        2 SUP2    0.0000
     57 H34        0.3777   11.2546    5.7593 Du        2 SUP2    0.0000
     58 H35        0.9560    9.9690    6.4452 Du        2 SUP2    0.0000
     59 N1B        7.2049   23.1759    5.0735 N.2       1 RES1    0.0000
     60 O1B        5.9497   22.9803    5.6837 O.3       1 RES1    0.0000
     61 O2B        9.6034   22.7217    4.1063 O.3       1 RES1    0.0000
     62 H1B        8.8482   22.5351    4.3642 H         1 RES1    0.0000
     63 C1B        5.9041   21.6478    6.2440 C.3       1 RES1    0.0000
     64 H2B        6.7745   21.4222    6.6097 H         1 RES1    0.0000
     65 H3B        5.2593   21.6238    6.9677 H         1 RES1    0.0000
     66 C2B        5.5360   20.6716    5.2380 C.3       1 RES1    0.0000
     67 H4B        4.6994   20.9332    4.8233 H         1 RES1    0.0000
     68 H5B        6.2182   20.6457    4.5477 H         1 RES1    0.0000
     69 C3B        7.3565   24.3966    4.7400 C.2       1 RES1    0.0000
     70 H6B        6.6446   24.9864    4.8489 H         1 RES1    0.0000
     71 C4B        8.6133   24.8946    4.1930 C.ar      1 RES1    0.0000
     72 C5B        9.7062   24.0702    3.9363 C.ar      1 RES1    0.0000
     73 C6B       10.9176   24.5992    3.5005 C.ar      1 RES1    0.0000
     74 C7B       10.9658   25.9756    3.3304 C.ar      1 RES1    0.0000
     75 H7B       11.7706   26.3468    3.0459 H         1 RES1    0.0000
     76 C8B        9.8999   26.8409    3.5561 C.ar      1 RES1    0.0000
     77 C9B        8.7308   26.2630    3.9885 C.ar      1 RES1    0.0000
     78 H8B        7.9929   26.8060    4.1497 H         1 RES1    0.0000
     79 C10B      12.1332   23.7119    3.2282 C.3       1 RES1    0.0000
     80 C11B      11.8243   22.7337    2.0987 C.3       1 RES1    0.0000
     81 H9B       11.6085   23.2238    1.3017 H         1 RES1    0.0000
     82 H10B      12.5915   22.1808    1.9365 H         1 RES1    0.0000
     83 H11B      11.0786   22.1828    2.3478 H         1 RES1    0.0000
     84 C12B      12.5281   22.9523    4.4976 C.3       1 RES1    0.0000
     85 H12B      11.7816   22.4313    4.8044 H         1 RES1    0.0000
     86 H13B      13.2658   22.3694    4.3053 H         1 RES1    0.0000
     87 H14B      12.7832   23.5781    5.1802 H         1 RES1    0.0000
     88 C13B      13.3554   24.5353    2.7957 C.3       1 RES1    0.0000
     89 H15B      13.5978   25.1411    3.4994 H         1 RES1    0.0000
     90 H16B      14.0893   23.9454    2.6134 H         1 RES1    0.0000
     91 H17B      13.1404   25.0343    2.0043 H         1 RES1    0.0000
     92 C14B      10.0573   28.3470    3.3704 C.3       1 RES1    0.0000
     93 C15B       8.7673   29.1036    3.4838 C.3       1 RES1    0.0000
     94 H18B       8.9147   30.0238    3.2526 H         1 RES1    0.0000
     95 H19B       8.1191   28.7223    2.8858 H         1 RES1    0.0000
     96 H20B       8.4413   29.0477    4.3854 H         1 RES1    0.0000
     97 C16B      11.0618   28.8680    4.3898 C.3       1 RES1    0.0000
     98 H21B      11.8994   28.4119    4.2775 H         1 RES1    0.0000
     99 H22B      11.1907   29.8103    4.2586 H         1 RES1    0.0000
    100 H23B      10.7292   28.7113    5.2769 H         1 RES1    0.0000
    101 C17B      10.6366   28.6165    1.9642 C.3       1 RES1    0.0000
    102 H24B      11.4863   28.1794    1.8798 H         1 RES1    0.0000
    103 H25B      10.0336   28.2742    1.2995 H         1 RES1    0.0000
    104 H26B      10.7479   29.5617    1.8397 H         1 RES1    0.0000
@<TRIPOS>BOND
     1    1    2 1
     2    2    5 1
     3    3    4 1
     4    5    6 1
     5    7    5 1
     6    8    5 1
     7    9    8 1
     8   10    8 1
     9   11    1 2
    10   12   11 1
    11   13   11 1
    12   14    3 1
    13   15   14 ar
    14   16   15 ar
    15   17   16 1
    16   18   16 ar
    17   19   13 ar
    18   20   19 1
    19   21   15 1
    20   22   21 1
    21   23   22 1
    22   24   22 1
    23   25   22 1
    24   26   21 1
    25   27   26 1
    26   28   26 1
    27   29   26 1
    28   30   21 1
    29   31   30 1
    30   32   30 1
    31   33   30 1
    32   34   18 1
    33   35   34 1
    34   36   35 1
    35   37   35 1
    36   38   35 1
    37   39   34 1
    38   40   39 1
    39   41   39 1
    40   42   39 1
    41   43   34 1
    42   44   43 1
    43   45   43 1
    44   46   43 1
    45   59   60 1
    46   60   63 1
    47   61   62 1
    48   63   64 1
    49   65   63 1
    50   66    8 1
    51   67   66 1
    52   68   66 1
    53   69   59 2
    54   70   69 1
    55   71   69 1
    56   72   61 1
    57   73   72 ar
    58   74   73 ar
    59   75   74 1
    60   76   74 ar
    61   77   71 ar
    62   78   77 1
    63   79   73 1
    64   80   79 1
    65   81   80 1
    66   82   80 1
    67   83   80 1
    68   84   79 1
    69   85   84 1
    70   86   84 1
    71   87   84 1
    72   88   79 1
    73   89   88 1
    74   90   88 1
    75   91   88 1
    76   92   76 1
    77   93   92 1
    78   94   93 1
    79   95   93 1
    80   96   93 1
    81   97   92 1
    82   98   97 1
    83   99   97 1
    84  100   97 1
    85  101   92 1
    86  102  101 1
    87  103  101 1
    88  104  101 1
    89   13   14 ar
    90   18   19 ar
    91   63   66 1
    92   71   72 ar
    93   76   77 ar
@<TRIPOS>SUBSTRUCTURE
     1 RES1 1
     2 SUP2 47

@<TRIPOS>CRYSIN
  15.1660    9.9810   11.8990  90.0000 110.8980  90.0000  14 1

