# MOL2 file generated by ConQuest
# Please check atom types

@<TRIPOS>MOLECULE
LIDTAU
    43    45     1
SMALL
NO_CHARGES
****
Generated from CSD

@<TRIPOS>ATOM
      1 O1         1.9047   -0.9138    7.9658 O.2       1 RES1    0.0000
      2 O2         0.6833   -2.1537    6.7401 O.2       1 RES1    0.0000
      3 O3         0.7696    6.4992    7.2324 O.2       1 RES1    0.0000
      4 O4        -0.6778   12.4710   10.3347 O.2       1 RES1    0.0000
      5 O5         0.0601   13.0392   12.2645 O.2       1 RES1    0.0000
      6 N1         1.1181   -1.0708    7.0706 N.pl3     1 RES1    0.0000
      7 N2        -0.1446   12.2106   11.3924 N.pl3     1 RES1    0.0000
      8 C1         0.6345    0.1156    6.3426 C.ar      1 RES1    0.0000
      9 C2         0.7829    1.3531    6.9247 C.ar      1 RES1    0.0000
     10 H1         1.1847    1.4358    7.7597 H         1 RES1    0.0000
     11 C3         0.3237    2.4786    6.2518 C.ar      1 RES1    0.0000
     12 C4        -0.2207    2.2961    4.9814 C.ar      1 RES1    0.0000
     13 H2        -0.4934    3.0420    4.4952 H         1 RES1    0.0000
     14 C5        -0.3659    1.0477    4.4258 C.ar      1 RES1    0.0000
     15 H3        -0.7579    0.9552    3.5875 H         1 RES1    0.0000
     16 C6         0.0664   -0.0608    5.1081 C.ar      1 RES1    0.0000
     17 H4        -0.0246   -0.9102    4.7425 H         1 RES1    0.0000
     18 C7         0.4185    3.8487    6.7710 C.2       1 RES1    0.0000
     19 H5         0.4669    4.5119    6.1212 H         1 RES1    0.0000
     20 C8         0.4450    4.2904    8.0292 C.2       1 RES1    0.0000
     21 C9         0.5981    5.7749    8.2049 C.2       1 RES1    0.0000
     22 C10        0.5540    6.3553    9.5858 C.2       1 RES1    0.0000
     23 C11        0.4252    5.4172   10.7525 C.3       1 RES1    0.0000
     24 H6        -0.0198    5.8747   11.4826 H         1 RES1    0.0000
     25 H7         1.3109    5.1629   11.0567 H         1 RES1    0.0000
     26 C12       -0.3573    4.1700   10.3955 C.3       1 RES1    0.0000
     27 H8        -1.2593    4.4158   10.1382 H         1 RES1    0.0000
     28 H9        -0.4117    3.5883   11.1704 H         1 RES1    0.0000
     29 C13        0.3112    3.4277    9.2527 C.3       1 RES1    0.0000
     30 H10        1.1908    3.1333    9.5336 H         1 RES1    0.0000
     31 H11       -0.2114    2.6405    9.0338 H         1 RES1    0.0000
     32 C14        0.6178    7.6938    9.6652 C.2       1 RES1    0.0000
     33 H12        0.6681    8.1258    8.8425 H         1 RES1    0.0000
     34 C15        0.6211    8.5930   10.8212 C.ar      1 RES1    0.0000
     35 C16        0.2233    9.9157   10.6160 C.ar      1 RES1    0.0000
     36 H13       -0.0665   10.1870    9.7755 H         1 RES1    0.0000
     37 C17        0.2592   10.8186   11.6522 C.ar      1 RES1    0.0000
     38 C18        0.6643   10.4633   12.9136 C.ar      1 RES1    0.0000
     39 H14        0.6669   11.0850   13.6048 H         1 RES1    0.0000
     40 C19        1.0653    9.1710   13.1316 C.ar      1 RES1    0.0000
     41 H15        1.3445    8.9118   13.9801 H         1 RES1    0.0000
     42 C20        1.0560    8.2523   12.1007 C.ar      1 RES1    0.0000
     43 H16        1.3468    7.3848   12.2640 H         1 RES1    0.0000
@<TRIPOS>BOND
     1    1    6 2
     2    2    6 2
     3    3   21 2
     4    4    7 2
     5    5    7 2
     6    6    8 1
     7    7   37 1
     8    8    9 ar
     9    9   10 1
    10   11    9 ar
    11   12   11 ar
    12   13   12 1
    13   14   12 ar
    14   15   14 1
    15   16    8 ar
    16   17   16 1
    17   18   11 1
    18   19   18 1
    19   20   18 2
    20   21   20 1
    21   22   21 1
    22   23   22 1
    23   24   23 1
    24   25   23 1
    25   26   23 1
    26   27   26 1
    27   28   26 1
    28   29   20 1
    29   30   29 1
    30   31   29 1
    31   32   22 2
    32   33   32 1
    33   34   32 1
    34   35   34 ar
    35   36   35 1
    36   37   35 ar
    37   38   37 ar
    38   39   38 1
    39   40   38 ar
    40   41   40 1
    41   42   34 ar
    42   43   42 1
    43   14   16 ar
    44   26   29 1
    45   40   42 ar
@<TRIPOS>SUBSTRUCTURE
     1 RES1 1

@<TRIPOS>CRYSIN
   7.6586   12.1680   18.3050  90.0000  99.6520  90.0000  14 1

