# MOL2 file generated by ConQuest
# Please check atom types

@<TRIPOS>MOLECULE
LIDZED
    24    26     1
SMALL
NO_CHARGES
****
Generated from CSD

@<TRIPOS>ATOM
      1 C1         0.8430   18.6857    8.7231 C.ar      1 RES1    0.0000
      2 C2         0.2929   17.6414    9.4828 C.ar      1 RES1    0.0000
      3 C3        -0.9085   17.0984    9.0689 C.ar      1 RES1    0.0000
      4 C4        -1.5152   17.5735    7.9253 C.ar      1 RES1    0.0000
      5 C5        -0.9462   18.5806    7.1574 C.ar      1 RES1    0.0000
      6 C6         0.2485   19.1432    7.5468 C.ar      1 RES1    0.0000
      7 C7         1.0491   17.1181   10.6796 C.3       1 RES1    0.0000
      8 N1         1.5822   18.2259   11.4910 N.3       1 RES1    0.0000
      9 C8         0.4944   18.9243   12.1881 C.3       1 RES1    0.0000
     10 C9         1.0076   20.1000   12.9710 C.3       1 RES1    0.0000
     11 C10        2.0697   19.6687   13.9771 C.3       1 RES1    0.0000
     12 C11        3.1631   18.9287   13.2337 C.3       1 RES1    0.0000
     13 C12        2.6141   17.7727   12.4373 C.3       1 RES1    0.0000
     14 C13        0.9095   20.2751    6.7884 C.3       1 RES1    0.0000
     15 N2         0.3271   20.5313    5.4882 N.3       1 RES1    0.0000
     16 C14        0.7715   19.5592    4.5038 C.3       1 RES1    0.0000
     17 C15        0.1101   19.8022    3.1587 C.3       1 RES1    0.0000
     18 C16        0.3760   21.2143    2.6644 C.3       1 RES1    0.0000
     19 C17       -0.0030   22.2170    3.7332 C.3       1 RES1    0.0000
     20 C18        0.6654   21.8842    5.0362 C.3       1 RES1    0.0000
     21 O1         1.9901   19.2790    9.1275 O.3       1 RES1    0.0000
     22 N3        -2.7653   16.9758    7.4801 N.pl3     1 RES1    0.0000
     23 O2        -3.2686   17.3611    6.4317 O.2       1 RES1    0.0000
     24 O3        -3.2569   16.0892    8.1690 O.2       1 RES1    0.0000
@<TRIPOS>BOND
     1    1    2 ar
     2    2    3 ar
     3    3    4 ar
     4    4    5 ar
     5    5    6 ar
     6    6    1 ar
     7    7    2 1
     8    8    7 1
     9    9    8 1
    10   10    9 1
    11   11   10 1
    12   12   11 1
    13   13    8 1
    14   14    6 1
    15   15   14 1
    16   16   15 1
    17   17   16 1
    18   18   17 1
    19   19   18 1
    20   20   15 1
    21   21    1 1
    22   22    4 1
    23   23   22 2
    24   24   22 2
    25   12   13 1
    26   19   20 1
@<TRIPOS>SUBSTRUCTURE
     1 RES1 1

@<TRIPOS>CRYSIN
   6.2070   21.8930   13.6930  90.0000  96.1200  90.0000 231 1

