# MOL2 file generated by ConQuest
# Please check atom types

@<TRIPOS>MOLECULE
LIDZIH
    24    26     1
SMALL
NO_CHARGES
****
Generated from CSD

@<TRIPOS>ATOM
      1 C1         0.9291    3.1867    5.5016 C.ar      1 RES1    0.0000
      2 C2         1.4953    3.2933    6.7918 C.ar      1 RES1    0.0000
      3 C3         2.0511    4.4860    7.1795 C.ar      1 RES1    0.0000
      4 C4         2.0234    5.5720    6.3247 C.ar      1 RES1    0.0000
      5 C5         1.4476    5.4856    5.0617 C.ar      1 RES1    0.0000
      6 C6         0.8932    4.2978    4.6413 C.ar      1 RES1    0.0000
      7 C7         1.3976    2.1383    7.7640 C.3       1 RES1    0.0000
      8 N1         1.4735    0.8300    7.0994 N.3       1 RES1    0.0000
      9 C8         0.9844   -0.2407    7.9821 C.3       1 RES1    0.0000
     10 C9         1.0017   -1.5511    7.2606 C.3       1 RES1    0.0000
     11 O1         2.2954   -1.8682    6.7768 O.3       1 RES1    0.0000
     12 C10        2.7584   -0.8331    5.9183 C.3       1 RES1    0.0000
     13 C11        2.8205    0.4881    6.6501 C.3       1 RES1    0.0000
     14 C12        0.2650    4.1412    3.2719 C.3       1 RES1    0.0000
     15 N2         0.0908    5.3974    2.5635 N.3       1 RES1    0.0000
     16 C13       -0.0432    5.1692    1.1242 C.3       1 RES1    0.0000
     17 C14       -0.2460    6.4817    0.4111 C.3       1 RES1    0.0000
     18 O2        -1.3952    7.1685    0.8958 O.3       1 RES1    0.0000
     19 C15       -1.2466    7.4056    2.2987 C.3       1 RES1    0.0000
     20 C16       -1.0953    6.1067    3.0370 C.3       1 RES1    0.0000
     21 O3         0.4025    2.0383    5.0570 O.3       1 RES1    0.0000
     22 N3         2.6182    6.8241    6.7489 N.pl3     1 RES1    0.0000
     23 O4         2.6006    7.7699    5.9836 O.2       1 RES1    0.0000
     24 O5         3.1375    6.8857    7.8479 O.2       1 RES1    0.0000
@<TRIPOS>BOND
     1    1    2 ar
     2    2    3 ar
     3    3    4 ar
     4    4    5 ar
     5    5    6 ar
     6    6    1 ar
     7    7    2 1
     8    8    7 1
     9    9    8 1
    10   10    9 1
    11   11   10 1
    12   12   11 1
    13   13    8 1
    14   14    6 1
    15   15   14 1
    16   16   15 1
    17   17   16 1
    18   18   17 1
    19   19   18 1
    20   20   15 1
    21   21    1 1
    22   22    4 1
    23   23   22 2
    24   24   22 2
    25   12   13 1
    26   19   20 1
@<TRIPOS>SUBSTRUCTURE
     1 RES1 1

@<TRIPOS>CRYSIN
   9.6420   10.1230    9.3410  93.0000  90.9600 110.4600   2 1

