# MOL2 file generated by ConQuest
# Please check atom types

@<TRIPOS>MOLECULE
LIFBUZ
    62    64     1
SMALL
NO_CHARGES
****
Generated from CSD

@<TRIPOS>ATOM
      1 C1         6.3557    7.4922    2.5767 C.ar      1 RES1    0.0000
      2 H1         6.5239    7.6457    3.4788 H         1 RES1    0.0000
      3 C2         7.3346    6.9018    1.7663 C.ar      1 RES1    0.0000
      4 H2         8.1522    6.6517    2.1318 H         1 RES1    0.0000
      5 C3         7.0884    6.6926    0.4357 C.ar      1 RES1    0.0000
      6 H3         7.7409    6.3068   -0.1026 H         1 RES1    0.0000
      7 C4         5.8896    7.0476   -0.1006 C.ar      1 RES1    0.0000
      8 H4         5.7339    6.9073   -1.0059 H         1 RES1    0.0000
      9 C5         4.8911    7.6212    0.6869 C.ar      1 RES1    0.0000
     10 H5         4.0703    7.8512    0.3158 H         1 RES1    0.0000
     11 C6         5.1421    7.8427    2.0279 C.ar      1 RES1    0.0000
     12 C7         3.7204    9.8524    2.6125 C.3       1 RES1    0.0000
     13 C8         4.8517   10.5859    1.8596 C.2       1 RES1    0.0000
     14 C9         7.0869   11.3148    1.9782 C.3       1 RES1    0.0000
     15 H6         7.4777   10.7792    1.2838 H         1 RES1    0.0000
     16 H7         7.7433   11.4855    2.6577 H         1 RES1    0.0000
     17 H8         6.7849   12.1479    1.6091 H         1 RES1    0.0000
     18 C10        3.4499   10.5312    3.9788 C.3       1 RES1    0.0000
     19 H9         4.2776   10.5235    4.5037 H         1 RES1    0.0000
     20 C11        3.0400   11.9821    3.7319 C.2       1 RES1    0.0000
     21 C12        3.8411   14.0974    3.0182 C.3       1 RES1    0.0000
     22 H10        3.2181   14.1141    2.2882 H         1 RES1    0.0000
     23 H11        4.6623   14.5155    2.7477 H         1 RES1    0.0000
     24 H12        3.4701   14.5723    3.7662 H         1 RES1    0.0000
     25 C13        2.3537    9.7794    4.7691 C.3       1 RES1    0.0000
     26 H13        1.4780   10.0894    4.4579 H         1 RES1    0.0000
     27 C14        2.5018   10.1507    6.2510 C.ar      1 RES1    0.0000
     28 C15        1.8948   11.2946    6.7413 C.ar      1 RES1    0.0000
     29 H14        1.3855   11.8341    6.1807 H         1 RES1    0.0000
     30 C16        2.0561   11.6278    8.0783 C.ar      1 RES1    0.0000
     31 C17        2.7811   10.8575    8.9570 C.ar      1 RES1    0.0000
     32 H15        2.8523   11.0920    9.8537 H         1 RES1    0.0000
     33 C18        3.3983    9.7266    8.4658 C.ar      1 RES1    0.0000
     34 H16        3.9020    9.1909    9.0358 H         1 RES1    0.0000
     35 C19        3.2715    9.3807    7.1209 C.ar      1 RES1    0.0000
     36 H17        3.7079    8.6253    6.7997 H         1 RES1    0.0000
     37 C20        2.4404    8.2852    4.5488 C.2       1 RES1    0.0000
     38 C21        1.4650    7.4012    5.2092 C.2       1 RES1    0.0000
     39 C22       -0.4576    7.3643    6.5908 C.3       1 RES1    0.0000
     40 H18       -0.8427    6.7065    6.0070 H         1 RES1    0.0000
     41 H19       -1.1434    7.9615    6.8960 H         1 RES1    0.0000
     42 H20       -0.0558    6.9254    7.3445 H         1 RES1    0.0000
     43 C23        3.3516    7.7292    3.7122 C.2       1 RES1    0.0000
     44 C24        3.5310    6.2256    3.5887 C.2       1 RES1    0.0000
     45 C25        4.4556    4.3323    4.6126 C.3       1 RES1    0.0000
     46 H21        3.6027    3.8938    4.6189 H         1 RES1    0.0000
     47 H22        4.9482    4.0868    5.3990 H         1 RES1    0.0000
     48 H23        4.9467    4.0670    3.8310 H         1 RES1    0.0000
     49 N1         4.1437    8.4671    2.8630 N.pl3     1 RES1    0.0000
     50 N2         1.4369   12.8771    8.5565 N.pl3     1 RES1    0.0000
     51 O1         2.5201    9.9152    1.9003 O.3       1 RES1    0.0000
     52 H24        2.6810    9.9759    1.0991 H         1 RES1    0.0000
     53 O2         4.6891   11.0787    0.7820 O.2       1 RES1    0.0000
     54 O3         5.9601   10.6054    2.5594 O.3       1 RES1    0.0000
     55 O4         1.9262   12.4224    3.8144 O.2       1 RES1    0.0000
     56 O5         4.1015   12.7222    3.4005 O.3       1 RES1    0.0000
     57 O6         0.9394   13.6328    7.7420 O.2       1 RES1    0.0000
     58 O7         1.4568   13.1056    9.7644 O.2       1 RES1    0.0000
     59 O8         1.4318    6.1953    5.1340 O.2       1 RES1    0.0000
     60 O9         0.5450    8.1079    5.8796 O.3       1 RES1    0.0000
     61 O10        3.1102    5.5860    2.6645 O.2       1 RES1    0.0000
     62 O11        4.2597    5.7714    4.5948 O.3       1 RES1    0.0000
@<TRIPOS>BOND
     1    1    2 1
     2    3    1 ar
     3    4    3 1
     4    5    3 ar
     5    6    5 1
     6    7    5 ar
     7    8    7 1
     8    9    7 ar
     9   10    9 1
    10   11    1 ar
    11   12   13 1
    12   13   53 2
    13   14   15 1
    14   16   14 1
    15   17   14 1
    16   18   12 1
    17   19   18 1
    18   20   18 1
    19   21   22 1
    20   23   21 1
    21   24   21 1
    22   25   18 1
    23   26   25 1
    24   27   25 1
    25   28   27 ar
    26   29   28 1
    27   30   28 ar
    28   31   30 ar
    29   32   31 1
    30   33   31 ar
    31   34   33 1
    32   35   27 ar
    33   36   35 1
    34   37   25 1
    35   38   37 1
    36   39   40 1
    37   41   39 1
    38   42   39 1
    39   43   37 2
    40   44   43 1
    41   45   46 1
    42   47   45 1
    43   48   45 1
    44   49   11 1
    45   50   30 1
    46   51   12 1
    47   52   51 1
    48   54   13 1
    49   55   20 2
    50   56   20 1
    51   57   50 2
    52   58   50 2
    53   59   38 2
    54   60   38 1
    55   61   44 2
    56   62   44 1
    57    9   11 ar
    58   12   49 1
    59   14   54 1
    60   21   56 1
    61   33   35 ar
    62   39   60 1
    63   43   49 1
    64   45   62 1
@<TRIPOS>SUBSTRUCTURE
     1 RES1 1

@<TRIPOS>CRYSIN
   7.7238   11.0929   16.0850  79.0730  85.8920  72.7370   2 1

