# MOL2 file generated by ConQuest
# Please check atom types

@<TRIPOS>MOLECULE
LIFJIV
    44    47     1
SMALL
NO_CHARGES
****
Generated from CSD

@<TRIPOS>ATOM
      1 O1         8.2597    0.1285    3.8567 O.2       1 RES1    0.0000
      2 O2         7.7136    0.5830    1.8864 O.2       1 RES1    0.0000
      3 N1         2.0568    3.4685    4.5556 N.3       1 RES1    0.0000
      4 N2         3.4587    5.3356    4.0646 N.3       1 RES1    0.0000
      5 N3         7.5736    0.7019    3.0774 N.pl3     1 RES1    0.0000
      6 C1         0.9125    4.2658    4.5593 C.ar      1 RES1    0.0000
      7 C2        -0.3510    3.7857    4.8255 C.ar      1 RES1    0.0000
      8 H1        -0.4611    2.9010    5.0917 H         1 RES1    0.0000
      9 C3        -1.4705    4.6157    4.6985 C.ar      1 RES1    0.0000
     10 H2        -2.3146    4.2713    4.8797 H         1 RES1    0.0000
     11 C4        -1.3517    5.9141    4.3155 C.ar      1 RES1    0.0000
     12 H3        -2.1107    6.4454    4.2335 H         1 RES1    0.0000
     13 C5        -0.0796    6.4561    4.0447 C.ar      1 RES1    0.0000
     14 C6         0.0896    7.7966    3.6324 C.ar      1 RES1    0.0000
     15 H4        -0.6507    8.3521    3.5423 H         1 RES1    0.0000
     16 C7         1.3252    8.2757    3.3672 C.ar      1 RES1    0.0000
     17 H5         1.4150    9.1542    3.0784 H         1 RES1    0.0000
     18 C8         2.4713    7.4889    3.5153 C.ar      1 RES1    0.0000
     19 H6         3.3099    7.8491    3.3365 H         1 RES1    0.0000
     20 C9         2.3565    6.1706    3.9293 C.ar      1 RES1    0.0000
     21 C10        1.0656    5.6364    4.1847 C.ar      1 RES1    0.0000
     22 C11        3.3343    4.1327    4.9082 C.3       1 RES1    0.0000
     23 C12        4.4634    3.1806    4.4776 C.ar      1 RES1    0.0000
     24 C13        5.2570    2.4887    5.3788 C.ar      1 RES1    0.0000
     25 H7         5.1069    2.5835    6.2919 H         1 RES1    0.0000
     26 C14        6.2793    1.6515    4.9287 C.ar      1 RES1    0.0000
     27 H8         6.8060    1.1748    5.5290 H         1 RES1    0.0000
     28 C15        6.4855    1.5521    3.5751 C.ar      1 RES1    0.0000
     29 C16        5.7162    2.2207    2.6549 C.ar      1 RES1    0.0000
     30 H9         5.8791    2.1340    1.7430 H         1 RES1    0.0000
     31 C17        4.6957    3.0240    3.1182 C.ar      1 RES1    0.0000
     32 H10        4.1530    3.4692    2.5080 H         1 RES1    0.0000
     33 C18        1.8817    2.1101    5.0651 C.3       1 RES1    0.0000
     34 H11        1.0287    1.7713    4.7855 H         1 RES1    0.0000
     35 H12        1.9242    2.1206    6.0236 H         1 RES1    0.0000
     36 H13        2.5781    1.5474    4.7200 H         1 RES1    0.0000
     37 C19        3.3707    4.4957    6.3831 C.3       1 RES1    0.0000
     38 H14        2.6426    5.0868    6.5848 H         1 RES1    0.0000
     39 H15        4.2027    4.9314    6.5848 H         1 RES1    0.0000
     40 H16        3.2916    3.6981    6.9105 H         1 RES1    0.0000
     41 C20        4.7586    6.0064    4.0953 C.3       1 RES1    0.0000
     42 H17        4.7363    6.7746    3.5208 H         1 RES1    0.0000
     43 H18        5.4392    5.4009    3.7922 H         1 RES1    0.0000
     44 H19        4.9550    6.2833    4.9934 H         1 RES1    0.0000
@<TRIPOS>BOND
     1    1    5 2
     2    2    5 2
     3    3    6 1
     4    4   20 1
     5    5   28 1
     6    6    7 ar
     7    7    8 1
     8    9    7 ar
     9   10    9 1
    10   11    9 ar
    11   12   11 1
    12   13   11 ar
    13   14   13 ar
    14   15   14 1
    15   16   14 ar
    16   17   16 1
    17   18   16 ar
    18   19   18 1
    19   20   18 ar
    20   21    6 ar
    21   22    3 1
    22   23   22 1
    23   24   23 ar
    24   25   24 1
    25   26   24 ar
    26   27   26 1
    27   28   26 ar
    28   29   28 ar
    29   30   29 1
    30   31   23 ar
    31   32   31 1
    32   33    3 1
    33   34   33 1
    34   35   33 1
    35   36   33 1
    36   37   22 1
    37   38   37 1
    38   39   37 1
    39   40   37 1
    40   41    4 1
    41   42   41 1
    42   43   41 1
    43   44   41 1
    44    4   22 1
    45   13   21 ar
    46   20   21 ar
    47   29   31 ar
@<TRIPOS>SUBSTRUCTURE
     1 RES1 1

@<TRIPOS>CRYSIN
   9.8616   16.7108   10.4680  90.0000 101.9590  90.0000 231 1

