# MOL2 file generated by ConQuest
# Please check atom types

@<TRIPOS>MOLECULE
LIFKES
    82    88     2
SMALL
NO_CHARGES
****
Generated from CSD

@<TRIPOS>ATOM
      1 O1         6.8530   11.9236    6.0580 O.2       1 RES1    0.0000
      2 O2         4.7010   12.0802    6.2185 O.2       1 RES1    0.0000
      3 N1         6.0836    9.4274    4.7121 N.3       1 RES1    0.0000
      4 N2         6.5120    9.0283    2.4108 N.3       1 RES1    0.0000
      5 N3         5.7426   12.0406    5.5805 N.pl3     1 RES1    0.0000
      6 C1         4.2929    8.6993    3.2173 C.ar      1 RES1    0.0000
      7 C2         4.7480    8.9936    4.5151 C.ar      1 RES1    0.0000
      8 C3         3.8868    8.8374    5.5848 C.ar      1 RES1    0.0000
      9 H1         4.1848    9.0063    6.4495 H         1 RES1    0.0000
     10 C4         2.5733    8.4251    5.3683 C.ar      1 RES1    0.0000
     11 H2         2.0027    8.3207    6.0952 H         1 RES1    0.0000
     12 C5         2.1112    8.1727    4.1282 C.ar      1 RES1    0.0000
     13 H3         1.2235    7.9185    4.0115 H         1 RES1    0.0000
     14 C6         2.9518    8.2899    3.0033 C.ar      1 RES1    0.0000
     15 C7         2.5352    7.9771    1.6887 C.ar      1 RES1    0.0000
     16 H4         1.6497    7.7459    1.5256 H         1 RES1    0.0000
     17 C8         3.4279    8.0151    0.6637 C.ar      1 RES1    0.0000
     18 H5         3.1407    7.8011   -0.1940 H         1 RES1    0.0000
     19 C9         4.7722    8.3676    0.8633 C.ar      1 RES1    0.0000
     20 H6         5.3678    8.3694    0.1490 H         1 RES1    0.0000
     21 C10        5.2006    8.7105    2.1147 C.ar      1 RES1    0.0000
     22 C11        6.7268    9.9694    3.4997 C.3       1 RES1    0.0000
     23 C12        6.0759   11.3421    3.1831 C.ar      1 RES1    0.0000
     24 C13        5.9558   11.7497    1.8643 C.ar      1 RES1    0.0000
     25 H7         6.2396   11.1732    1.1909 H         1 RES1    0.0000
     26 C14        5.4291   12.9834    1.5062 C.ar      1 RES1    0.0000
     27 H8         5.4021   13.2327    0.6102 H         1 RES1    0.0000
     28 C15        4.9489   13.8350    2.4665 C.ar      1 RES1    0.0000
     29 H9         4.5691   14.6494    2.2258 H         1 RES1    0.0000
     30 C16        5.0349   13.4746    3.7840 C.ar      1 RES1    0.0000
     31 H10        4.7047   14.0362    4.4473 H         1 RES1    0.0000
     32 C17        5.6213   12.2572    4.1220 C.ar      1 RES1    0.0000
     33 C18        6.8936    8.4995    5.5244 C.3       1 RES1    0.0000
     34 H11        6.3830    8.2081    6.2836 H         1 RES1    0.0000
     35 H12        7.6872    8.9469    5.8253 H         1 RES1    0.0000
     36 H13        7.1381    7.7386    4.9929 H         1 RES1    0.0000
     37 C19        8.2188   10.1874    3.6642 C.3       1 RES1    0.0000
     38 H14        8.6451    9.3502    3.8610 H         1 RES1    0.0000
     39 H15        8.3740   10.8029    4.3841 H         1 RES1    0.0000
     40 H16        8.5813   10.5470    2.8515 H         1 RES1    0.0000
     41 H17        7.1280    9.0157    1.8138 H         1 RES1    0.0000
     42 O3        -0.8948   14.6694    0.9007 O.2       2 RES2    0.0000
     43 O4         1.0621   15.0950    0.0823 O.2       2 RES2    0.0000
     44 N4         0.5462   16.2767    2.9988 N.3       2 RES2    0.0000
     45 N5         0.8431   15.4271    5.2038 N.3       2 RES2    0.0000
     46 N6         0.3161   14.5648    0.9002 N.pl3     2 RES2    0.0000
     47 C20        2.7134   16.4553    4.1428 C.ar      2 RES2    0.0000
     48 C21        1.8792   16.7385    3.0297 C.ar      2 RES2    0.0000
     49 C22        2.3981   17.4926    1.9811 C.ar      2 RES2    0.0000
     50 H18        1.8618   17.7089    1.2542 H         2 RES2    0.0000
     51 C23        3.7235   17.9224    2.0233 C.ar      2 RES2    0.0000
     52 H19        4.0560   18.4248    1.3147 H         2 RES2    0.0000
     53 C24        4.5371   17.6350    3.0553 C.ar      2 RES2    0.0000
     54 H20        5.4256   17.9075    3.0328 H         2 RES2    0.0000
     55 C25        4.0477   16.9209    4.1731 C.ar      2 RES2    0.0000
     56 C26        4.8179   16.6793    5.3261 C.ar      2 RES2    0.0000
     57 H21        5.7018   16.9667    5.3599 H         2 RES2    0.0000
     58 C27        4.2796   16.0338    6.3849 C.ar      2 RES2    0.0000
     59 H22        4.8034   15.8886    7.1385 H         2 RES2    0.0000
     60 C28        2.9582   15.5779    6.3778 C.ar      2 RES2    0.0000
     61 H23        2.6142   15.1328    7.1188 H         2 RES2    0.0000
     62 C29        2.1707   15.7882    5.2727 C.ar      2 RES2    0.0000
     63 C30        0.2813   15.1362    3.8886 C.3       2 RES2    0.0000
     64 C31        0.9331   13.9039    3.2466 C.ar      2 RES2    0.0000
     65 C32        1.5239   12.9170    4.0269 C.ar      2 RES2    0.0000
     66 H24        1.5572   13.0355    4.9493 H         2 RES2    0.0000
     67 C33        2.0651   11.7667    3.4856 C.ar      2 RES2    0.0000
     68 H25        2.4485   11.1301    4.0452 H         2 RES2    0.0000
     69 C34        2.0428   11.5588    2.1498 C.ar      2 RES2    0.0000
     70 H26        2.4014   10.7799    1.7899 H         2 RES2    0.0000
     71 C35        1.4837   12.5093    1.3287 C.ar      2 RES2    0.0000
     72 H27        1.4712   12.3825    0.4078 H         2 RES2    0.0000
     73 C36        0.9394   13.6565    1.8809 C.ar      2 RES2    0.0000
     74 C37       -0.4715   17.3321    2.9541 C.3       2 RES2    0.0000
     75 H28       -0.1927   18.0193    2.3453 H         2 RES2    0.0000
     76 H29       -0.5815   17.7073    3.8315 H         2 RES2    0.0000
     77 H30       -1.3054   16.9607    2.6574 H         2 RES2    0.0000
     78 C38       -1.1995   14.8352    4.0930 C.3       2 RES2    0.0000
     79 H31       -1.6284   15.5950    4.4937 H         2 RES2    0.0000
     80 H32       -1.2956   14.0734    4.6681 H         2 RES2    0.0000
     81 H33       -1.6085   14.6494    3.2452 H         2 RES2    0.0000
     82 H34        0.3977   15.0486    5.9195 H         2 RES2    0.0000
@<TRIPOS>BOND
     1    1    5 2
     2    2    5 2
     3    3    7 1
     4    4   21 1
     5    5   32 1
     6    6    7 ar
     7    7    8 ar
     8    8    9 1
     9   10    8 ar
    10   11   10 1
    11   12   10 ar
    12   13   12 1
    13   14    6 ar
    14   15   14 ar
    15   16   15 1
    16   17   15 ar
    17   18   17 1
    18   19   17 ar
    19   20   19 1
    20   21    6 ar
    21   22    3 1
    22   23   22 1
    23   24   23 ar
    24   25   24 1
    25   26   24 ar
    26   27   26 1
    27   28   26 ar
    28   29   28 1
    29   30   28 ar
    30   31   30 1
    31   32   23 ar
    32   33    3 1
    33   34   33 1
    34   35   33 1
    35   36   33 1
    36   37   22 1
    37   38   37 1
    38   39   37 1
    39   40   37 1
    40   41    4 1
    41   42   46 2
    42   43   46 2
    43   44   48 1
    44   45   62 1
    45   46   73 1
    46   47   48 ar
    47   48   49 ar
    48   49   50 1
    49   51   49 ar
    50   52   51 1
    51   53   51 ar
    52   54   53 1
    53   55   47 ar
    54   56   55 ar
    55   57   56 1
    56   58   56 ar
    57   59   58 1
    58   60   58 ar
    59   61   60 1
    60   62   47 ar
    61   63   44 1
    62   64   63 1
    63   65   64 ar
    64   66   65 1
    65   67   65 ar
    66   68   67 1
    67   69   67 ar
    68   70   69 1
    69   71   69 ar
    70   72   71 1
    71   73   64 ar
    72   74   44 1
    73   75   74 1
    74   76   74 1
    75   77   74 1
    76   78   63 1
    77   79   78 1
    78   80   78 1
    79   81   78 1
    80   82   45 1
    81    4   22 1
    82   12   14 ar
    83   19   21 ar
    84   30   32 ar
    85   45   63 1
    86   53   55 ar
    87   60   62 ar
    88   71   73 ar
@<TRIPOS>SUBSTRUCTURE
     1 RES1 1
     2 RES2 42

@<TRIPOS>CRYSIN
   9.4764   13.0488   14.9751  75.4910  71.8950  68.7190   2 1

