# MOL2 file generated by ConQuest
# Please check atom types

@<TRIPOS>MOLECULE
LIFTEB
   143   136     5
SMALL
NO_CHARGES
****
Generated from CSD

@<TRIPOS>ATOM
      1 O1        14.0037   13.8812    3.0977 O.3       1 RES1    0.0000
      2 O2        10.9897   11.9326    0.9925 O.2       1 RES1    0.0000
      3 O3         9.0969    5.6419    2.8606 O.2       1 RES1    0.0000
      4 O4        11.1623    5.0486    2.9786 O.2       1 RES1    0.0000
      5 N1        12.4266   14.1652    1.5866 N.3       1 RES1    0.0000
      6 H1        11.7795   13.9590    1.0275 H         1 RES1    0.0000
      7 N2        10.2950    5.8988    2.8334 N.pl3     1 RES1    0.0000
      8 C1        11.4233    9.9011    2.1192 C.ar      1 RES1    0.0000
      9 C2        10.0760    9.5645    2.2692 C.ar      1 RES1    0.0000
     10 H2         9.4085   10.2359    2.1952 H         1 RES1    0.0000
     11 C3         9.7119    8.2540    2.5245 C.ar      1 RES1    0.0000
     12 H3         8.7977    8.0190    2.6327 H         1 RES1    0.0000
     13 C4        10.6991    7.2936    2.6187 C.ar      1 RES1    0.0000
     14 C5        12.0416    7.5961    2.5047 C.ar      1 RES1    0.0000
     15 H4        12.7033    6.9199    2.5891 H         1 RES1    0.0000
     16 C6        12.3965    8.9105    2.2642 C.ar      1 RES1    0.0000
     17 H5        13.3159    9.1432    2.1968 H         1 RES1    0.0000
     18 C7        11.7582   11.3263    1.7752 C.2       1 RES1    0.0000
     19 C8        12.8686   11.9142    2.4110 C.2       1 RES1    0.0000
     20 H6        13.4753   11.3725    2.9036 H         1 RES1    0.0000
     21 C9        13.0779   13.2811    2.3199 C.2       1 RES1    0.0000
     22 C10       12.9102   15.5359    1.8156 C.3       1 RES1    0.0000
     23 C11       13.6849   15.3118    3.1018 C.3       1 RES1    0.0000
     24 H7        14.5109   15.8569    3.1138 H         1 RES1    0.0000
     25 H8        13.1340   15.5474    3.8906 H         1 RES1    0.0000
     26 C12       11.7649   16.5056    1.9150 C.3       1 RES1    0.0000
     27 H9        11.2567   16.4980    1.0758 H         1 RES1    0.0000
     28 H10       12.1133   17.4070    2.0769 H         1 RES1    0.0000
     29 H11       11.1783   16.2441    2.6545 H         1 RES1    0.0000
     30 C13       13.8688   15.9050    0.6828 C.3       1 RES1    0.0000
     31 H12       14.6094   15.2631    0.6601 H         1 RES1    0.0000
     32 H13       14.2214   16.8062    0.8345 H         1 RES1    0.0000
     33 H14       13.3892   15.8812   -0.1713 H         1 RES1    0.0000
     34 C14       14.2343   15.2945    2.5206 Du        5 SUP5    0.0000
     35 H15       14.3916   15.9589    3.2368 Du        5 SUP5    0.0000
     36 H16       14.9931   15.3091    1.8838 Du        5 SUP5    0.0000
     37 C15       11.9324   16.0697    2.8600 Du        5 SUP5    0.0000
     38 H17       11.0214   16.0396    2.4988 Du        5 SUP5    0.0000
     39 H18       12.1650   16.9950    3.0826 Du        5 SUP5    0.0000
     40 H19       11.9831   15.5169    3.6680 Du        5 SUP5    0.0000
     41 C16       12.9279   16.5255    0.6944 Du        5 SUP5    0.0000
     42 H20       13.5176   16.2018   -0.0187 Du        5 SUP5    0.0000
     43 H21       13.2561   17.3876    1.0244 Du        5 SUP5    0.0000
     44 H22       12.0192   16.6343    0.3410 Du        5 SUP5    0.0000
     45 O5         3.6481    9.2492    1.4878 O.3       2 RES2    0.0000
     46 O6         7.1836   11.1091    2.5934 O.2       2 RES2    0.0000
     47 O7         8.5610   17.5662    0.8446 O.2       2 RES2    0.0000
     48 O8         6.5543   18.1223    1.4091 O.2       2 RES2    0.0000
     49 N3         5.6271    8.9538    2.4049 N.3       2 RES2    0.0000
     50 H23        6.3415    9.1586    2.8740 H         2 RES2    0.0000
     51 N4         7.4231   17.2826    1.1879 N.pl3     2 RES2    0.0000
     52 C17        6.4807   13.2134    1.7875 C.ar      2 RES2    0.0000
     53 C18        7.7785   13.5884    1.4269 C.ar      2 RES2    0.0000
     54 H24        8.4551   12.9281    1.3405 H         2 RES2    0.0000
     55 C19        8.0814   14.9225    1.1952 C.ar      2 RES2    0.0000
     56 H25        8.9553   15.1853    0.9310 H         2 RES2    0.0000
     57 C20        7.0798   15.8581    1.3590 C.ar      2 RES2    0.0000
     58 C21        5.7870   15.5294    1.7121 C.ar      2 RES2    0.0000
     59 H26        5.1226   16.1996    1.8184 H         2 RES2    0.0000
     60 C22        5.4877   14.1840    1.9072 C.ar      2 RES2    0.0000
     61 H27        4.6000   13.9254    2.1236 H         2 RES2    0.0000
     62 C23        6.2292   11.7601    2.0970 C.2       2 RES2    0.0000
     63 C24        4.9716   11.2062    1.7893 C.2       2 RES2    0.0000
     64 H28        4.2617   11.7653    1.4962 H         2 RES2    0.0000
     65 C25        4.7781    9.8468    1.9164 C.2       2 RES2    0.0000
     66 C26        5.2301    7.5773    2.0672 C.3       2 RES2    0.0000
     67 C27        3.7376    7.8379    1.8412 C.3       2 RES2    0.0000
     68 H29        3.3902    7.2700    1.1085 H         2 RES2    0.0000
     69 H30        3.2204    7.6489    2.6638 H         2 RES2    0.0000
     70 C28        5.4991    6.6136    3.2033 C.3       2 RES2    0.0000
     71 H31        6.4631    6.5671    3.3706 H         2 RES2    0.0000
     72 H32        5.1658    5.7243    2.9627 H         2 RES2    0.0000
     73 H33        5.0417    6.9261    4.0121 H         2 RES2    0.0000
     74 C29        5.9336    7.1407    0.7826 C.3       2 RES2    0.0000
     75 H34        5.7170    7.7681    0.0623 H         2 RES2    0.0000
     76 H35        5.6321    6.2423    0.5340 H         2 RES2    0.0000
     77 H36        6.9027    7.1323    0.9279 H         2 RES2    0.0000
     78 O9         8.5560    7.5545   10.1988 O.3       3 RES3    0.0000
     79 O10        5.0501    5.7068    9.0319 O.2       3 RES3    0.0000
     80 O11        3.4868   -0.7324   10.4481 O.2       3 RES3    0.0000
     81 O12        5.5538   -1.3135   10.2766 O.2       3 RES3    0.0000
     82 N5         6.5945    7.8433    9.2461 N.3       3 RES3    0.0000
     83 H37        5.8842    7.6336    8.7699 H         3 RES3    0.0000
     84 N6         4.6771   -0.4681   10.3128 N.pl3     3 RES3    0.0000
     85 C30        5.7147    3.5929    9.8188 C.ar      3 RES3    0.0000
     86 C31        4.3983    3.2326   10.1063 C.ar      3 RES3    0.0000
     87 H38        3.7290    3.9031   10.1742 H         3 RES3    0.0000
     88 C32        4.0612    1.9001   10.2925 C.ar      3 RES3    0.0000
     89 H39        3.1694    1.6478   10.4996 H         3 RES3    0.0000
     90 C33        5.0541    0.9499   10.1681 C.ar      3 RES3    0.0000
     91 C34        6.3740    1.2695    9.8986 C.ar      3 RES3    0.0000
     92 H40        7.0371    0.5925    9.8239 H         3 RES3    0.0000
     93 C35        6.6971    2.6089    9.7423 C.ar      3 RES3    0.0000
     94 H41        7.5995    2.8577    9.5810 H         3 RES3    0.0000
     95 C36        5.9842    5.0457    9.5443 C.2       3 RES3    0.0000
     96 C37        7.2368    5.5944    9.8937 C.2       3 RES3    0.0000
     97 H42        7.9349    5.0379   10.2194 H         3 RES3    0.0000
     98 C38        7.4327    6.9584    9.7545 C.2       3 RES3    0.0000
     99 C39        6.9934    9.2260    9.5739 C.3       3 RES3    0.0000
    100 C40        8.4749    8.9693    9.8298 C.3       3 RES3    0.0000
    101 H43        9.0073    9.1507    9.0159 H         3 RES3    0.0000
    102 H44        8.8078    9.5427   10.5650 H         3 RES3    0.0000
    103 C41        6.2643    9.6877   10.8315 C.3       3 RES3    0.0000
    104 H45        5.2989    9.7100   10.6600 H         3 RES3    0.0000
    105 H46        6.5730   10.5847   11.0772 H         3 RES3    0.0000
    106 H47        6.4509    9.0646   11.5645 H         3 RES3    0.0000
    107 C42        6.7409   10.1609    8.4131 C.3       3 RES3    0.0000
    108 H48        7.1981    9.8221    7.6147 H         3 RES3    0.0000
    109 H49        7.0836   11.0522    8.6313 H         3 RES3    0.0000
    110 H50        5.7782   10.2137    8.2406 H         3 RES3    0.0000
    111 O13       11.3589   10.7418    6.3588 O.3       4 RES4    0.0000
    112 O14        7.8975    8.8344    5.1456 O.2       4 RES4    0.0000
    113 O15        6.3547    2.3826    6.4284 O.2       4 RES4    0.0000
    114 O16        8.4178    1.8707    6.7696 O.2       4 RES4    0.0000
    115 N7         9.4323   10.9930    5.3177 N.3       4 RES4    0.0000
    116 H51        8.7391   10.7641    4.8248 H         4 RES4    0.0000
    117 N8         7.5368    2.6874    6.5487 N.pl3     4 RES4    0.0000
    118 C43        8.5472    6.7488    6.0276 C.ar      4 RES4    0.0000
    119 C44        7.2200    6.3673    6.1789 C.ar      4 RES4    0.0000
    120 H52        6.5357    7.0251    6.1512 H         4 RES4    0.0000
    121 C45        6.8859    5.0381    6.3692 C.ar      4 RES4    0.0000
    122 H53        5.9789    4.7749    6.4673 H         4 RES4    0.0000
    123 C46        7.8997    4.1030    6.4134 C.ar      4 RES4    0.0000
    124 C47        9.2340    4.4484    6.3077 C.ar      4 RES4    0.0000
    125 H54        9.9153    3.7878    6.3614 H         4 RES4    0.0000
    126 C48        9.5519    5.7858    6.1218 C.ar      4 RES4    0.0000
    127 H55       10.4627    6.0489    6.0578 H         4 RES4    0.0000
    128 C49        8.8176    8.1984    5.7105 C.2       4 RES4    0.0000
    129 C50       10.0525    8.7693    6.0788 C.2       4 RES4    0.0000
    130 H56       10.7395    8.2282    6.4517 H         4 RES4    0.0000
    131 C51       10.2550   10.1275    5.8925 C.2       4 RES4    0.0000
    132 C52        9.8204   12.3870    5.6049 C.3       4 RES4    0.0000
    133 C53       11.2904   12.1429    5.9532 C.3       4 RES4    0.0000
    134 H57       11.8693   12.3087    5.1673 H         4 RES4    0.0000
    135 H58       11.5786   12.7357    6.6915 H         4 RES4    0.0000
    136 C54        9.0320   12.8988    6.8034 C.3       4 RES4    0.0000
    137 H59        8.0791   12.9309    6.5778 H         4 RES4    0.0000
    138 H60        9.3431   13.7974    7.0387 H         4 RES4    0.0000
    139 H61        9.1677   12.2967    7.5649 H         4 RES4    0.0000
    140 C55        9.6277   13.2751    4.3955 C.3       4 RES4    0.0000
    141 H62       10.1199   12.9017    3.6338 H         4 RES4    0.0000
    142 H63        9.9657   14.1738    4.5928 H         4 RES4    0.0000
    143 H64        8.6747   13.3255    4.1755 H         4 RES4    0.0000
@<TRIPOS>BOND
     1    1   21 1
     2    2   18 2
     3    3    7 2
     4    4    7 2
     5    5    6 1
     6    7   13 1
     7    8    9 ar
     8    9   10 1
     9   11    9 ar
    10   12   11 1
    11   13   11 ar
    12   14   13 ar
    13   15   14 1
    14   16    8 ar
    15   17   16 1
    16   18    8 1
    17   19   18 1
    18   20   19 1
    19   21    5 1
    20   22    5 1
    21   23    1 1
    22   24   23 1
    23   25   23 1
    24   26   22 1
    25   27   26 1
    26   28   26 1
    27   29   26 1
    28   30   22 1
    29   31   30 1
    30   32   30 1
    31   33   30 1
    32   45   65 1
    33   46   62 2
    34   47   51 2
    35   48   51 2
    36   49   50 1
    37   51   57 1
    38   52   53 ar
    39   53   54 1
    40   55   53 ar
    41   56   55 1
    42   57   55 ar
    43   58   57 ar
    44   59   58 1
    45   60   52 ar
    46   61   60 1
    47   62   52 1
    48   63   62 1
    49   64   63 1
    50   65   49 1
    51   66   49 1
    52   67   45 1
    53   68   67 1
    54   69   67 1
    55   70   66 1
    56   71   70 1
    57   72   70 1
    58   73   70 1
    59   74   66 1
    60   75   74 1
    61   76   74 1
    62   77   74 1
    63   78   98 1
    64   79   95 2
    65   80   84 2
    66   81   84 2
    67   82   83 1
    68   84   90 1
    69   85   86 ar
    70   86   87 1
    71   88   86 ar
    72   89   88 1
    73   90   88 ar
    74   91   90 ar
    75   92   91 1
    76   93   85 ar
    77   94   93 1
    78   95   85 1
    79   96   95 1
    80   97   96 1
    81   98   82 1
    82   99   82 1
    83  100   78 1
    84  101  100 1
    85  102  100 1
    86  103   99 1
    87  104  103 1
    88  105  103 1
    89  106  103 1
    90  107   99 1
    91  108  107 1
    92  109  107 1
    93  110  107 1
    94  111  131 1
    95  112  128 2
    96  113  117 2
    97  114  117 2
    98  115  116 1
    99  117  123 1
   100  118  119 ar
   101  119  120 1
   102  121  119 ar
   103  122  121 1
   104  123  121 ar
   105  124  123 ar
   106  125  124 1
   107  126  118 ar
   108  127  126 1
   109  128  118 1
   110  129  128 1
   111  130  129 1
   112  131  115 1
   113  132  115 1
   114  133  111 1
   115  134  133 1
   116  135  133 1
   117  136  132 1
   118  137  136 1
   119  138  136 1
   120  139  136 1
   121  140  132 1
   122  141  140 1
   123  142  140 1
   124  143  140 1
   125   14   16 ar
   126   19   21 2
   127   22   23 1
   128   58   60 ar
   129   63   65 2
   130   66   67 1
   131   91   93 ar
   132   96   98 2
   133   99  100 1
   134  124  126 ar
   135  129  131 2
   136  132  133 1
@<TRIPOS>SUBSTRUCTURE
     1 RES1 1
     2 RES2 45
     3 RES3 78
     4 RES4 111
     5 SUP5 34

@<TRIPOS>CRYSIN
  12.1245   14.0624   16.2235  83.1640  73.7270  69.7970   2 1

