# MOL2 file generated by ConQuest
# Please check atom types

@<TRIPOS>MOLECULE
LIGGAL
    54    55     1
SMALL
NO_CHARGES
****
Generated from CSD

@<TRIPOS>ATOM
      1 O1         8.5973    3.4492    2.7167 O.3       1 RES1    0.0000
      2 O2         5.4836    3.5954    4.5524 O.3       1 RES1    0.0000
      3 O3        11.9418    1.0353    8.1148 O.2       1 RES1    0.0000
      4 O4        10.2787    1.4129    9.4041 O.2       1 RES1    0.0000
      5 N1        10.7662    1.2831    8.2931 N.pl3     1 RES1    0.0000
      6 C1         7.2026    3.0830    3.0149 C.3       1 RES1    0.0000
      7 C2         7.3396    1.7232    3.7227 C.3       1 RES1    0.0000
      8 H1         7.6462    1.1126    3.0492 H         1 RES1    0.0000
      9 H2         6.4446    1.4906    3.9819 H         1 RES1    0.0000
     10 C3         8.2340    1.6416    4.9243 C.ar      1 RES1    0.0000
     11 C4         7.7093    1.6462    6.2136 C.ar      1 RES1    0.0000
     12 H3         6.7618    1.7207    6.3453 H         1 RES1    0.0000
     13 C5         8.5303    1.5367    7.3233 C.ar      1 RES1    0.0000
     14 H4         8.1677    1.5562    8.2121 H         1 RES1    0.0000
     15 C6         9.8772    1.4120    7.1395 C.ar      1 RES1    0.0000
     16 C7        10.4377    1.3701    5.8707 C.ar      1 RES1    0.0000
     17 H5        11.3874    1.2736    5.7720 H         1 RES1    0.0000
     18 C8         9.5976    1.4879    4.7816 C.ar      1 RES1    0.0000
     19 H6         9.9836    1.4546    3.9024 H         1 RES1    0.0000
     20 C9         6.4043    2.9097    1.6871 C.3       1 RES1    0.0000
     21 H7         6.3548    3.8031    1.3401 H         1 RES1    0.0000
     22 C10        7.1682    2.0849    0.6365 C.3       1 RES1    0.0000
     23 H8         8.0331    2.4757    0.4924 H         1 RES1    0.0000
     24 H9         7.2731    1.1845    0.9533 H         1 RES1    0.0000
     25 C11        6.4102    2.0629   -0.6954 C.3       1 RES1    0.0000
     26 H10        6.3364    2.9543   -1.0425 H         1 RES1    0.0000
     27 H11        6.8896    1.5142   -1.3209 H         1 RES1    0.0000
     28 C12        5.0376    1.5202   -0.5583 C.3       1 RES1    0.0000
     29 H12        5.1460    0.6090   -0.2798 H         1 RES1    0.0000
     30 C13        4.2598    2.2827    0.5020 C.3       1 RES1    0.0000
     31 H13        3.4160    1.8420    0.6269 H         1 RES1    0.0000
     32 H14        4.1114    3.1755    0.1824 H         1 RES1    0.0000
     33 C14        5.0097    2.3541    1.8353 C.3       1 RES1    0.0000
     34 H15        5.0592    1.4625    2.1892 H         1 RES1    0.0000
     35 H16        4.5103    2.9101    2.4374 H         1 RES1    0.0000
     36 C15        6.5965    4.1828    3.9010 C.3       1 RES1    0.0000
     37 H17        6.2737    4.8525    3.2947 H         1 RES1    0.0000
     38 C16        7.5527    4.8431    4.9023 C.3       1 RES1    0.0000
     39 H18        7.0822    5.5167    5.3989 H         1 RES1    0.0000
     40 H19        8.2820    5.2481    4.4277 H         1 RES1    0.0000
     41 H20        7.8934    4.1793    5.5059 H         1 RES1    0.0000
     42 C17        4.4996    4.5504    4.9490 C.3       1 RES1    0.0000
     43 H21        4.8182    5.0437    5.7075 H         1 RES1    0.0000
     44 H22        3.6862    4.0956    5.1808 H         1 RES1    0.0000
     45 H23        4.3313    5.1550    4.2220 H         1 RES1    0.0000
     46 C18        8.8285    4.6264    1.9862 C.3       1 RES1    0.0000
     47 H24        8.7863    4.4318    1.0466 H         1 RES1    0.0000
     48 H25        9.6959    4.9761    2.2029 H         1 RES1    0.0000
     49 H26        8.1566    5.2753    2.2084 H         1 RES1    0.0000
     50 C19        4.3450    1.4224   -1.8847 C.2       1 RES1    0.0000
     51 H27        4.8617    1.2086   -2.6651 H         1 RES1    0.0000
     52 C20        3.3135    1.5525   -2.2783 C.2       1 RES1    0.0000
     53 H28        3.0888    1.4428   -3.2056 H         1 RES1    0.0000
     54 H29        2.6297    1.7725   -1.6419 H         1 RES1    0.0000
@<TRIPOS>BOND
     1    1    6 1
     2    2   36 1
     3    3    5 2
     4    4    5 2
     5    5   15 1
     6    6    7 1
     7    7    8 1
     8    9    7 1
     9   10    7 1
    10   11   10 ar
    11   12   11 1
    12   13   11 ar
    13   14   13 1
    14   15   13 ar
    15   16   15 ar
    16   17   16 1
    17   18   10 ar
    18   19   18 1
    19   20    6 1
    20   21   20 1
    21   22   20 1
    22   23   22 1
    23   24   22 1
    24   25   22 1
    25   26   25 1
    26   27   25 1
    27   28   25 1
    28   29   28 1
    29   30   28 1
    30   31   30 1
    31   32   30 1
    32   33   20 1
    33   34   33 1
    34   35   33 1
    35   36    6 1
    36   37   36 1
    37   38   36 1
    38   39   38 1
    39   40   38 1
    40   41   38 1
    41   42    2 1
    42   43   42 1
    43   44   42 1
    44   45   42 1
    45   46    1 1
    46   47   46 1
    47   48   46 1
    48   49   46 1
    49   50   28 1
    50   51   50 1
    51   52   50 2
    52   53   52 1
    53   54   52 1
    54   16   18 ar
    55   30   33 1
@<TRIPOS>SUBSTRUCTURE
     1 RES1 1

@<TRIPOS>CRYSIN
   7.1830   10.2300   14.0460  87.2630  77.6350  71.2670   2 1

