# MOL2 file generated by ConQuest
# Please check atom types

@<TRIPOS>MOLECULE
LIGVIG
    15    17     1
SMALL
NO_CHARGES
****
Generated from CSD

@<TRIPOS>ATOM
      1 O1        -0.6681    4.9814    6.7041 O.3       1 RES1    0.0000
      2 C1        -1.7878    4.4294    7.4626 C.3       1 RES1    0.0000
      3 C2        -2.9669    5.3588    7.1509 C.3       1 RES1    0.0000
      4 C3        -2.3823    6.3530    6.1575 C.3       1 RES1    0.0000
      5 C4        -2.9572    7.7581    6.1963 C.3       1 RES1    0.0000
      6 O2        -2.6197    8.4571    7.3756 O.3       1 RES1    0.0000
      7 C5        -1.2046    8.5208    7.4996 C.3       1 RES1    0.0000
      8 C6        -0.6298    7.1377    7.6448 C.3       1 RES1    0.0000
      9 N1        -0.9438    6.3715    6.4368 N.3       1 RES1    0.0000
     10 C7        -1.9455    2.9942    7.0482 C.ar      1 RES1    0.0000
     11 C8        -2.2762    2.6597    5.7495 C.ar      1 RES1    0.0000
     12 C9        -2.4315    1.3426    5.3814 C.ar      1 RES1    0.0000
     13 C10       -2.2635    0.3403    6.3008 C.ar      1 RES1    0.0000
     14 C11       -1.9317    0.6505    7.5921 C.ar      1 RES1    0.0000
     15 C12       -1.7685    1.9768    7.9732 C.ar      1 RES1    0.0000
@<TRIPOS>BOND
     1    1    2 1
     2    2    3 1
     3    3    4 1
     4    4    5 1
     5    5    6 1
     6    6    7 1
     7    7    8 1
     8    8    9 1
     9    9    1 1
    10   10    2 1
    11   11   10 ar
    12   12   11 ar
    13   13   12 ar
    14   14   13 ar
    15   15   10 ar
    16    4    9 1
    17   14   15 ar
@<TRIPOS>SUBSTRUCTURE
     1 RES1 1

@<TRIPOS>CRYSIN
   9.5900   11.5740    9.6090  90.0000 105.7200  90.0000 231 1

