# MOL2 file generated by ConQuest
# Please check atom types

@<TRIPOS>MOLECULE
LIGVED
    50    54     1
SMALL
NO_CHARGES
****
Generated from CSD

@<TRIPOS>ATOM
      1 O1         4.1918    3.5013   17.3349 O.3       1 RES1    0.0000
      2 C1         4.6631    4.0232   16.0519 C.3       1 RES1    0.0000
      3 C2         4.4692    5.5584   16.1853 C.3       1 RES1    0.0000
      4 H1         4.2592    5.9799   15.3017 H         1 RES1    0.0000
      5 C3         3.2729    5.6247   17.1369 C.3       1 RES1    0.0000
      6 H2         3.1724    6.5216   17.5449 H         1 RES1    0.0000
      7 H3         2.4285    5.3647   16.6904 H         1 RES1    0.0000
      8 C4         3.7246    4.5865   18.1495 C.3       1 RES1    0.0000
      9 C5         4.8640    5.1682   19.0275 C.3       1 RES1    0.0000
     10 C6         5.6171    6.3136   18.3578 C.3       1 RES1    0.0000
     11 H4         5.1928    7.1695   18.6182 H         1 RES1    0.0000
     12 H5         6.5472    6.3248   18.6958 H         1 RES1    0.0000
     13 C7         5.6473    6.2213   16.8463 C.2       1 RES1    0.0000
     14 O2         6.5723    6.6973   16.2159 O.2       1 RES1    0.0000
     15 C8         3.7808    3.4618   14.9560 C.3       1 RES1    0.0000
     16 H6         3.9178    2.4935   14.8898 H         1 RES1    0.0000
     17 H7         4.0119    3.8833   14.1013 H         1 RES1    0.0000
     18 H8         2.8416    3.6447   15.1676 H         1 RES1    0.0000
     19 C9         6.1074    3.5896   15.8471 C.3       1 RES1    0.0000
     20 H9         6.1482    2.6134   15.7725 H         1 RES1    0.0000
     21 H10        6.6477    3.8822   16.6104 H         1 RES1    0.0000
     22 H11        6.4566    3.9941   15.0263 H         1 RES1    0.0000
     23 C10        2.6990    4.1407   19.1908 C.3       1 RES1    0.0000
     24 H12        1.8216    4.5709   19.0301 H         1 RES1    0.0000
     25 H13        2.5824    3.1573   19.1760 H         1 RES1    0.0000
     26 C11        3.2961    4.5968   20.5148 C.3       1 RES1    0.0000
     27 H14        2.5669    4.9237   21.1155 H         1 RES1    0.0000
     28 O3         4.1403    5.6795   20.1622 O.3       1 RES1    0.0000
     29 O4         4.0430    3.5857   21.1805 O.3       1 RES1    0.0000
     30 C12        5.0667    3.0483   20.3668 C.3       1 RES1    0.0000
     31 H15        4.7025    2.3408   19.7597 H         1 RES1    0.0000
     32 C13        5.8089    4.1029   19.5747 C.3       1 RES1    0.0000
     33 H16        6.2859    3.6707   18.8229 H         1 RES1    0.0000
     34 H17        6.4847    4.5335   20.1575 H         1 RES1    0.0000
     35 O5         6.0253    2.4969   21.2664 O.3       1 RES1    0.0000
     36 C14        5.8930    1.2033   21.6199 C.2       1 RES1    0.0000
     37 O6         4.9455    0.5222   21.3459 O.2       1 RES1    0.0000
     38 C15        7.0742    0.7444   22.4025 C.ar      1 RES1    0.0000
     39 C16        7.0094   -0.5050   22.9900 C.ar      1 RES1    0.0000
     40 H18        6.2205   -1.0279   22.9114 H         1 RES1    0.0000
     41 C17        8.0983   -0.9932   23.6933 C.ar      1 RES1    0.0000
     42 H19        8.0681   -1.8478   24.1071 H         1 RES1    0.0000
     43 C18        9.2230   -0.2068   23.7781 C.ar      1 RES1    0.0000
     44 C19        9.3164    1.0388   23.2056 C.ar      1 RES1    0.0000
     45 H20       10.1074    1.5583   23.2904 H         1 RES1    0.0000
     46 C20        8.2262    1.5157   22.5014 C.ar      1 RES1    0.0000
     47 H21        8.2648    2.3691   22.0852 H         1 RES1    0.0000
     48 N1        10.3772   -0.7217   24.5282 N.pl3     1 RES1    0.0000
     49 O7        10.4039   -1.8862   24.8078 O.2       1 RES1    0.0000
     50 O8        11.2602    0.0603   24.8245 O.2       1 RES1    0.0000
@<TRIPOS>BOND
     1    1    2 1
     2    2    3 1
     3    3    4 1
     4    5    3 1
     5    6    5 1
     6    7    5 1
     7    8    1 1
     8    9    8 1
     9   10    9 1
    10   11   10 1
    11   12   10 1
    12   13    3 1
    13   14   13 2
    14   15    2 1
    15   16   15 1
    16   17   15 1
    17   18   15 1
    18   19    2 1
    19   20   19 1
    20   21   19 1
    21   22   19 1
    22   23    8 1
    23   24   23 1
    24   25   23 1
    25   26   23 1
    26   27   26 1
    27   28    9 1
    28   29   26 1
    29   30   29 1
    30   31   30 1
    31   32    9 1
    32   33   32 1
    33   34   32 1
    34   35   30 1
    35   36   35 1
    36   37   36 2
    37   38   36 1
    38   39   38 ar
    39   40   39 1
    40   41   39 ar
    41   42   41 1
    42   43   41 ar
    43   44   43 ar
    44   45   44 1
    45   46   38 ar
    46   47   46 1
    47   48   43 1
    48   49   48 2
    49   50   48 2
    50    5    8 1
    51   10   13 1
    52   26   28 1
    53   30   32 1
    54   44   46 ar
@<TRIPOS>SUBSTRUCTURE
     1 RES1 1

@<TRIPOS>CRYSIN
   7.0249   11.3084   23.5375  90.0000  90.0000  90.0000  19 1

