# MOL2 file generated by ConQuest
# Please check atom types

@<TRIPOS>MOLECULE
LIHDIP
    31    33     1
SMALL
NO_CHARGES
****
Generated from CSD

@<TRIPOS>ATOM
      1 O1        -0.3613   -0.7817    5.5614 O.3       1 RES1    0.0000
      2 O2        -2.5587    1.4983    8.7836 O.2       1 RES1    0.0000
      3 N1         0.4288    0.2506    6.0753 N.2       1 RES1    0.0000
      4 N2        -1.3152   -1.2026    6.4798 N.2       1 RES1    0.0000
      5 N3        -1.8826   -0.6615    8.6729 N.am      1 RES1    0.0000
      6 C1        -1.0997   -0.4460    7.5245 C.2       1 RES1    0.0000
      7 C2         0.0052    0.4610    7.2974 C.2       1 RES1    0.0000
      8 C3         0.6851    1.4281    8.1321 C.ar      1 RES1    0.0000
      9 C4         0.4702    1.5183    9.5331 C.ar      1 RES1    0.0000
     10 C5         1.1368    2.4504   10.2897 C.ar      1 RES1    0.0000
     11 C6         2.0568    3.3123    9.7247 C.ar      1 RES1    0.0000
     12 C7         2.3106    3.1920    8.3791 C.ar      1 RES1    0.0000
     13 C8         1.6445    2.2950    7.5913 C.ar      1 RES1    0.0000
     14 C9        -2.5959    0.3808    9.2435 C.2       1 RES1    0.0000
     15 C10       -3.3178    0.0100   10.4898 C.ar      1 RES1    0.0000
     16 C11       -4.3976    0.8118   10.8546 C.ar      1 RES1    0.0000
     17 C12       -5.0735    0.5512   12.0384 C.ar      1 RES1    0.0000
     18 C13       -4.6517   -0.4660   12.8589 C.ar      1 RES1    0.0000
     19 C14       -3.5722   -1.2728   12.5154 C.ar      1 RES1    0.0000
     20 C15       -2.9230   -1.0122   11.3074 C.ar      1 RES1    0.0000
     21 H1        -0.1452    0.9255    9.9532 H         1 RES1    0.0000
     22 H2         0.9683    2.4990   11.2222 H         1 RES1    0.0000
     23 H3         2.4991    3.9697   10.2499 H         1 RES1    0.0000
     24 H4         2.9700    3.7527    7.9845 H         1 RES1    0.0000
     25 H5         1.8382    2.2570    6.6629 H         1 RES1    0.0000
     26 H6        -2.1699   -1.6150    8.8759 H         1 RES1    0.0000
     27 H7        -4.6714    1.5314   10.2967 H         1 RES1    0.0000
     28 H8        -5.8237    1.0764   12.2797 H         1 RES1    0.0000
     29 H9        -5.1102   -0.6179   13.6779 H         1 RES1    0.0000
     30 H10       -3.2895   -1.9783   13.0831 H         1 RES1    0.0000
     31 H11       -2.1907   -1.5549   11.0491 H         1 RES1    0.0000
@<TRIPOS>BOND
     1    1    3 1
     2    2   14 2
     3    3    7 2
     4    4    1 1
     5    5    6 1
     6    6    4 2
     7    7    6 1
     8    8    7 1
     9    9    8 ar
    10   10    9 ar
    11   11   10 ar
    12   12   11 ar
    13   13    8 ar
    14   14    5 1
    15   15   14 1
    16   16   15 ar
    17   17   16 ar
    18   18   17 ar
    19   19   18 ar
    20   20   15 ar
    21   21    9 1
    22   22   10 1
    23   23   11 1
    24   24   12 1
    25   25   13 1
    26   26    5 1
    27   27   16 1
    28   28   17 1
    29   29   18 1
    30   30   19 1
    31   31   20 1
    32   12   13 ar
    33   19   20 ar
@<TRIPOS>SUBSTRUCTURE
     1 RES1 1

@<TRIPOS>CRYSIN
   9.0300    5.0110   14.1960  90.0000  90.8100  90.0000   7 1

