# MOL2 file generated by ConQuest
# Please check atom types

@<TRIPOS>MOLECULE
LIHFEN
    23    25     1
SMALL
NO_CHARGES
****
Generated from CSD

@<TRIPOS>ATOM
      1 O1         8.5352    6.9370   10.2836 O.3       1 RES1    0.0000
      2 O2        10.1410    8.8904   11.5898 O.3       1 RES1    0.0000
      3 O3         7.3445   11.4694   14.2614 O.2       1 RES1    0.0000
      4 O4         5.3021   11.0161   13.6776 O.2       1 RES1    0.0000
      5 O5        14.7515    7.7030   10.3284 O.2       1 RES1    0.0000
      6 O6        14.5918    5.5682   10.0324 O.2       1 RES1    0.0000
      7 O7        13.2565    5.3335    7.6004 O.2       1 RES1    0.0000
      8 O8        12.0057    3.7889    8.4436 O.2       1 RES1    0.0000
      9 N1         8.2996    9.7894   12.5111 N.ar      1 RES1    0.0000
     10 N2         6.5137   10.8320   13.6298 N.pl3     1 RES1    0.0000
     11 N3        14.1177    6.6859   10.1199 N.pl3     1 RES1    0.0000
     12 N4        12.4354    4.9291    8.4040 N.pl3     1 RES1    0.0000
     13 C1         6.9848    9.7823   12.7012 C.ar      1 RES1    0.0000
     14 C2         6.1036    8.8976   12.1429 C.ar      1 RES1    0.0000
     15 C3         6.6331    7.9157   11.3121 C.ar      1 RES1    0.0000
     16 C4         7.9879    7.9037   11.1015 C.ar      1 RES1    0.0000
     17 C5         9.9058    6.9161   10.2074 C.ar      1 RES1    0.0000
     18 C6        10.4915    5.9298    9.4437 C.ar      1 RES1    0.0000
     19 C7        11.8662    5.8968    9.3515 C.ar      1 RES1    0.0000
     20 C8        12.6508    6.8036   10.0462 C.ar      1 RES1    0.0000
     21 C9        12.0652    7.7945   10.7989 C.ar      1 RES1    0.0000
     22 C10       10.6920    7.8585   10.8550 C.ar      1 RES1    0.0000
     23 C11        8.7704    8.8601   11.7308 C.ar      1 RES1    0.0000
@<TRIPOS>BOND
     1    1   16 1
     2    2   22 1
     3    3   10 2
     4    4   10 2
     5    5   11 2
     6    6   11 2
     7    7   12 2
     8    8   12 2
     9    9   13 ar
    10   10   13 1
    11   11   20 1
    12   12   19 1
    13   13   14 ar
    14   14   15 ar
    15   15   16 ar
    16   16   23 ar
    17   17    1 1
    18   18   17 ar
    19   19   18 ar
    20   20   19 ar
    21   21   20 ar
    22   22   17 ar
    23   23    2 1
    24    9   23 ar
    25   21   22 ar
@<TRIPOS>SUBSTRUCTURE
     1 RES1 1

@<TRIPOS>CRYSIN
  11.1027   10.2471   10.9550  90.0000  91.9690  90.0000  14 1

