# MOL2 file generated by ConQuest
# Please check atom types

@<TRIPOS>MOLECULE
LIHFIT
    71    75     1
SMALL
NO_CHARGES
****
Generated from CSD

@<TRIPOS>ATOM
      1 C1        -2.9274    9.9738    7.7849 C.3       1 RES1    0.0000
      2 H1        -2.7192    9.9955    6.8176 H         1 RES1    0.0000
      3 C2        -2.3512    8.6524    8.3460 C.3       1 RES1    0.0000
      4 H2        -1.3858    8.6119    8.1312 H         1 RES1    0.0000
      5 C3        -2.5388    8.2942    9.8204 C.3       1 RES1    0.0000
      6 H3        -3.4818    8.0670    9.9610 H         1 RES1    0.0000
      7 H4        -2.0135    7.4875   10.0060 H         1 RES1    0.0000
      8 C4        -2.1497    9.3590   10.8416 C.3       1 RES1    0.0000
      9 H5        -1.8265    8.9086   11.6502 H         1 RES1    0.0000
     10 H6        -1.4041    9.8805   10.4772 H         1 RES1    0.0000
     11 C5        -3.2566   10.3179   11.2369 C.3       1 RES1    0.0000
     12 H7        -2.8752   10.9778   11.8526 H         1 RES1    0.0000
     13 H8        -3.9272    9.8088   11.7390 H         1 RES1    0.0000
     14 C6        -3.9830   11.0783   10.1344 C.3       1 RES1    0.0000
     15 H9        -4.6059   11.7045   10.5829 H         1 RES1    0.0000
     16 N1        -4.8193   10.1509    9.3273 N.3       1 RES1    0.0000
     17 C7        -4.4325   10.1142    7.9224 C.3       1 RES1    0.0000
     18 H10       -4.7253   10.9385    7.4800 H         1 RES1    0.0000
     19 H11       -4.8727    9.3579    7.4811 H         1 RES1    0.0000
     20 N2        -2.2035   11.1024    8.4123 N.3       1 RES1    0.0000
     21 C8        -3.0701   11.9227    9.2595 C.3       1 RES1    0.0000
     22 H12       -3.6164   12.5054    8.6924 H         1 RES1    0.0000
     23 H13       -2.5140   12.4934    9.8305 H         1 RES1    0.0000
     24 O1        -3.0362    7.5698    7.6327 O.3       1 RES1    0.0000
     25 C9        -2.5226    7.0924    6.4966 C.2       1 RES1    0.0000
     26 O2        -1.4443    7.3875    6.0541 O.2       1 RES1    0.0000
     27 C10       -3.4608    6.1126    5.8576 C.ar      1 RES1    0.0000
     28 C11       -2.9917    5.3390    4.8057 C.ar      1 RES1    0.0000
     29 H14       -2.1074    5.4446    4.5031 H         1 RES1    0.0000
     30 C12       -3.8213    4.4116    4.2013 C.ar      1 RES1    0.0000
     31 H15       -3.5115    3.8829    3.4886 H         1 RES1    0.0000
     32 C13       -5.1169    4.2784    4.6656 C.ar      1 RES1    0.0000
     33 C14       -5.6267    5.0580    5.6857 C.ar      1 RES1    0.0000
     34 H16       -6.5184    4.9636    5.9651 H         1 RES1    0.0000
     35 C15       -4.7886    5.9795    6.2835 C.ar      1 RES1    0.0000
     36 H17       -5.1122    6.5213    6.9807 H         1 RES1    0.0000
     37 N3        -5.9850    3.2437    4.0610 N.pl3     1 RES1    0.0000
     38 O3        -5.5079    2.5421    3.1812 O.2       1 RES1    0.0000
     39 O4        -7.1199    3.1151    4.5044 O.2       1 RES1    0.0000
     40 C16       -6.2561   10.3789    9.4732 C.3       1 RES1    0.0000
     41 H18       -6.5039   11.1932    8.9870 H         1 RES1    0.0000
     42 H19       -6.4649   10.5197   10.4198 H         1 RES1    0.0000
     43 C17       -7.0779    9.2235    8.9524 C.ar      1 RES1    0.0000
     44 C18       -8.0034    9.4211    7.9389 C.ar      1 RES1    0.0000
     45 H20       -8.0890   10.2757    7.5554 H         1 RES1    0.0000
     46 C19       -8.7915    8.4073    7.4845 C.ar      1 RES1    0.0000
     47 H21       -9.4148    8.5691    6.7996 H         1 RES1    0.0000
     48 C20       -8.6772    7.1648    8.0187 C.ar      1 RES1    0.0000
     49 H22       -9.2279    6.4678    7.7106 H         1 RES1    0.0000
     50 C21       -7.7328    6.9204    9.0343 C.ar      1 RES1    0.0000
     51 H23       -7.6466    6.0599    9.4009 H         1 RES1    0.0000
     52 C22       -6.9300    7.9573    9.4920 C.ar      1 RES1    0.0000
     53 H24       -6.2926    7.8005   10.1645 H         1 RES1    0.0000
     54 C23       -1.4342   11.9202    7.4686 C.3       1 RES1    0.0000
     55 H25       -2.0473   12.4707    6.9390 H         1 RES1    0.0000
     56 H26       -0.9439   11.3344    6.8536 H         1 RES1    0.0000
     57 C24       -0.4555   12.8148    8.1966 C.ar      1 RES1    0.0000
     58 C25        0.5289   12.2531    8.9947 C.ar      1 RES1    0.0000
     59 H27        0.5567   11.3191    9.0972 H         1 RES1    0.0000
     60 C26        1.4596   13.0210    9.6373 C.ar      1 RES1    0.0000
     61 H28        2.1302   12.6091   10.1510 H         1 RES1    0.0000
     62 C27        1.4214   14.3936    9.5379 C.ar      1 RES1    0.0000
     63 C28        0.4432   14.9929    8.7768 C.ar      1 RES1    0.0000
     64 H29        0.4006   15.9302    8.7104 H         1 RES1    0.0000
     65 C29       -0.4921   14.1923    8.0999 C.ar      1 RES1    0.0000
     66 H30       -1.1537   14.6014    7.5722 H         1 RES1    0.0000
     67 O5         2.4119   15.0627   10.2272 O.3       1 RES1    0.0000
     68 C30        2.4619   16.4677   10.1308 C.3       1 RES1    0.0000
     69 H31        2.6186   16.7228    9.2086 H         1 RES1    0.0000
     70 H32        3.1828   16.8048   10.6864 H         1 RES1    0.0000
     71 H33        1.6196   16.8433   10.4322 H         1 RES1    0.0000
@<TRIPOS>BOND
     1    1    2 1
     2    3    1 1
     3    4    3 1
     4    5    3 1
     5    6    5 1
     6    7    5 1
     7    8    5 1
     8    9    8 1
     9   10    8 1
    10   11    8 1
    11   12   11 1
    12   13   11 1
    13   14   11 1
    14   15   14 1
    15   16   14 1
    16   17    1 1
    17   18   17 1
    18   19   17 1
    19   20    1 1
    20   21   14 1
    21   22   21 1
    22   23   21 1
    23   24    3 1
    24   25   24 1
    25   26   25 2
    26   27   25 1
    27   28   27 ar
    28   29   28 1
    29   30   28 ar
    30   31   30 1
    31   32   30 ar
    32   33   32 ar
    33   34   33 1
    34   35   27 ar
    35   36   35 1
    36   37   32 1
    37   38   37 2
    38   39   37 2
    39   40   16 1
    40   41   40 1
    41   42   40 1
    42   43   40 1
    43   44   43 ar
    44   45   44 1
    45   46   44 ar
    46   47   46 1
    47   48   46 ar
    48   49   48 1
    49   50   48 ar
    50   51   50 1
    51   52   43 ar
    52   53   52 1
    53   54   20 1
    54   55   54 1
    55   56   54 1
    56   57   54 1
    57   58   57 ar
    58   59   58 1
    59   60   58 ar
    60   61   60 1
    61   62   60 ar
    62   63   62 ar
    63   64   63 1
    64   65   57 ar
    65   66   65 1
    66   67   62 1
    67   68   67 1
    68   69   68 1
    69   70   68 1
    70   71   68 1
    71   16   17 1
    72   20   21 1
    73   33   35 ar
    74   50   52 ar
    75   63   65 ar
@<TRIPOS>SUBSTRUCTURE
     1 RES1 1

@<TRIPOS>CRYSIN
  10.4650   12.3120   12.3680 106.6930 100.8980 109.3210   2 1

