# MOL2 file generated by ConQuest
# Please check atom types

@<TRIPOS>MOLECULE
LIHGAK
    21    24     1
SMALL
NO_CHARGES
****
Generated from CSD

@<TRIPOS>ATOM
      1 O1         0.4454    4.5825    7.4438 O.2       1 RES1    0.0000
      2 O2         1.7626    6.2555    7.1791 O.2       1 RES1    0.0000
      3 O3         6.0300    4.2378    4.5758 O.3       1 RES1    0.0000
      4 O4         3.1843    6.2976    4.9792 O.3       1 RES1    0.0000
      5 N1         1.5479    5.0486    7.2062 N.pl3     1 RES1    0.0000
      6 C1         4.7873    2.2249    7.3550 C.ar      1 RES1    0.0000
      7 C2         5.7674    1.2991    7.4142 C.ar      1 RES1    0.0000
      8 C3         6.8432    1.3036    6.5126 C.ar      1 RES1    0.0000
      9 C4         6.8876    2.3450    5.6135 C.ar      1 RES1    0.0000
     10 C5         5.8954    3.2736    5.5450 C.ar      1 RES1    0.0000
     11 C6         5.0695    5.1652    4.5174 C.2       1 RES1    0.0000
     12 C7         4.9875    6.2023    3.5625 C.ar      1 RES1    0.0000
     13 C8         5.7341    6.6300    2.4579 C.ar      1 RES1    0.0000
     14 C9         5.2686    7.7187    1.7745 C.ar      1 RES1    0.0000
     15 C10        4.0895    8.3665    2.1162 C.ar      1 RES1    0.0000
     16 C11        3.3323    7.9816    3.2166 C.ar      1 RES1    0.0000
     17 C12        3.8127    6.8973    3.8898 C.ar      1 RES1    0.0000
     18 C13        4.0059    5.2377    5.3471 C.2       1 RES1    0.0000
     19 C14        3.7194    4.2583    6.3333 C.2       1 RES1    0.0000
     20 C15        4.7877    3.2567    6.4111 C.ar      1 RES1    0.0000
     21 C16        2.6233    4.1022    7.1208 C.2       1 RES1    0.0000
@<TRIPOS>BOND
     1    1    5 2
     2    2    5 2
     3    3   10 1
     4    4   17 1
     5    5   21 1
     6    6    7 ar
     7    7    8 ar
     8    8    9 ar
     9    9   10 ar
    10   10   20 ar
    11   11    3 1
    12   12   11 1
    13   13   12 ar
    14   14   13 ar
    15   15   14 ar
    16   16   15 ar
    17   17   12 ar
    18   18    4 1
    19   19   18 1
    20   20    6 ar
    21   21   19 2
    22   11   18 2
    23   16   17 ar
    24   19   20 1
@<TRIPOS>SUBSTRUCTURE
     1 RES1 1

@<TRIPOS>CRYSIN
   8.8410    9.1200    9.2670  85.9700  66.7400  65.2000   2 1

