# MOL2 file generated by ConQuest
# Please check atom types

@<TRIPOS>MOLECULE
LIHMUN
    48    51     1
SMALL
NO_CHARGES
****
Generated from CSD

@<TRIPOS>ATOM
      1 C1         8.3450    9.0154    0.5572 C.2       1 RES1    0.0000
      2 C2         8.1780   10.0892    1.6324 C.3       1 RES1    0.0000
      3 H1         9.0111   10.6420    1.6094 H         1 RES1    0.0000
      4 C3         7.0246   11.0368    1.3127 C.3       1 RES1    0.0000
      5 H2         6.1617   10.5371    1.3865 H         1 RES1    0.0000
      6 C4         6.9319   12.3251    2.1428 C.3       1 RES1    0.0000
      7 H3         7.8303   12.6180    2.4369 H         1 RES1    0.0000
      8 H4         6.3638   12.1869    2.9410 H         1 RES1    0.0000
      9 C5         6.3015   13.3668    1.1982 C.3       1 RES1    0.0000
     10 H5         5.4113   13.6413    1.5326 H         1 RES1    0.0000
     11 H6         6.8772   14.1696    1.1362 H         1 RES1    0.0000
     12 C6         6.1732   12.6932   -0.1761 C.3       1 RES1    0.0000
     13 H7         5.2552   12.3510   -0.3197 H         1 RES1    0.0000
     14 H8         6.4002   13.3247   -0.9042 H         1 RES1    0.0000
     15 C7         7.1800   11.5503   -0.1076 C.3       1 RES1    0.0000
     16 H9         8.0987   11.9314   -0.2082 H         1 RES1    0.0000
     17 C8         7.0173   10.4280   -1.1037 C.3       1 RES1    0.0000
     18 H10        6.0585   10.2014   -1.2020 H         1 RES1    0.0000
     19 H11        7.3613   10.7107   -1.9875 H         1 RES1    0.0000
     20 C9         6.9836    7.2804   -1.6183 C.3       1 RES1    0.0000
     21 H12        6.1844    7.5788   -2.1208 H         1 RES1    0.0000
     22 H13        6.7133    7.0877   -0.6850 H         1 RES1    0.0000
     23 C10        7.5639    6.0524   -2.2527 C.ar      1 RES1    0.0000
     24 C11        6.9765    5.4678   -3.3643 C.ar      1 RES1    0.0000
     25 H14        6.2165    5.8727   -3.7649 H         1 RES1    0.0000
     26 C12        7.4922    4.2939   -3.8957 C.ar      1 RES1    0.0000
     27 H15        7.0891    3.8976   -4.6582 H         1 RES1    0.0000
     28 C13        8.5920    3.7069   -3.3102 C.ar      1 RES1    0.0000
     29 H16        8.9388    2.8963   -3.6644 H         1 RES1    0.0000
     30 C14        9.1955    4.2877   -2.2114 C.ar      1 RES1    0.0000
     31 H17        9.9589    3.8814   -1.8176 H         1 RES1    0.0000
     32 C15        8.6881    5.4596   -1.6852 C.ar      1 RES1    0.0000
     33 H18        9.1076    5.8622   -0.9335 H         1 RES1    0.0000
     34 C16        8.1199    9.4594    3.0180 C.3       1 RES1    0.0000
     35 H19        8.8967    8.8548    3.1237 H         1 RES1    0.0000
     36 H20        8.2033   10.1757    3.6955 H         1 RES1    0.0000
     37 C17        6.6399    7.4349    2.8570 C.2       1 RES1    0.0000
     38 H21        7.2360    6.8788    2.3693 H         1 RES1    0.0000
     39 C18        5.3729    7.0970    3.2509 C.2       1 RES1    0.0000
     40 H22        4.9326    6.2713    3.0872 H         1 RES1    0.0000
     41 C19        4.8436    8.2009    3.9445 C.2       1 RES1    0.0000
     42 H23        3.9808    8.2578    4.3385 H         1 RES1    0.0000
     43 C20        5.8012    9.1771    3.9456 C.2       1 RES1    0.0000
     44 H24        5.7163   10.0374    4.3403 H         1 RES1    0.0000
     45 N1         7.7580    9.2592   -0.6348 N.am      1 RES1    0.0000
     46 N2         6.9019    8.7057    3.2837 N.pl3     1 RES1    0.0000
     47 O1         8.9852    7.9867    0.7638 O.2       1 RES1    0.0000
     48 O2         7.9982    8.3085   -1.6404 O.3       1 RES1    0.0000
@<TRIPOS>BOND
     1    1    2 1
     2    2    3 1
     3    4    2 1
     4    5    4 1
     5    6    4 1
     6    7    6 1
     7    8    6 1
     8    9    6 1
     9   10    9 1
    10   11    9 1
    11   12    9 1
    12   13   12 1
    13   14   12 1
    14   15    4 1
    15   16   15 1
    16   17   15 1
    17   18   17 1
    18   19   17 1
    19   20   21 1
    20   22   20 1
    21   23   20 1
    22   24   23 ar
    23   25   24 1
    24   26   24 ar
    25   27   26 1
    26   28   26 ar
    27   29   28 1
    28   30   28 ar
    29   31   30 1
    30   32   23 ar
    31   33   32 1
    32   34    2 1
    33   35   34 1
    34   36   34 1
    35   37   38 1
    36   39   37 2
    37   40   39 1
    38   41   39 1
    39   42   41 1
    40   43   41 2
    41   44   43 1
    42   45    1 1
    43   46   34 1
    44   47    1 2
    45   48   20 1
    46   12   15 1
    47   17   45 1
    48   30   32 ar
    49   37   46 1
    50   43   46 1
    51   45   48 1
@<TRIPOS>SUBSTRUCTURE
     1 RES1 1

@<TRIPOS>CRYSIN
   9.7676    9.5367   18.3506  90.0000  95.4590  90.0000 231 1

