# MOL2 file generated by ConQuest
# Please check atom types

@<TRIPOS>MOLECULE
LIJMIB
    41    44     1
SMALL
NO_CHARGES
****
Generated from CSD

@<TRIPOS>ATOM
      1 O1         3.4039    6.8511    0.7452 O.2       1 RES1    0.0000
      2 N1         3.3419    7.7817    1.6652 N.pl3     1 RES1    0.0000
      3 N2        -0.1156    7.8239    1.9361 N.ar      1 RES1    0.0000
      4 C1         4.4165    8.5986    1.8579 C.ar      1 RES1    0.0000
      5 H1         5.1970    8.4735    1.3305 H         1 RES1    0.0000
      6 C2         4.3913    9.5952    2.7957 C.ar      1 RES1    0.0000
      7 H2         5.1484   10.1571    2.9126 H         1 RES1    0.0000
      8 C3         3.2649    9.7838    3.5709 C.ar      1 RES1    0.0000
      9 H3         3.2451   10.4531    4.2447 H         1 RES1    0.0000
     10 C4         2.1650    8.9744    3.3447 C.ar      1 RES1    0.0000
     11 H4         1.3722    9.1093    3.8505 H         1 RES1    0.0000
     12 C5         2.2039    7.9741    2.3949 C.ar      1 RES1    0.0000
     13 C6         1.0092    7.1241    2.1263 C.ar      1 RES1    0.0000
     14 C7         1.0595    5.7353    2.1392 C.ar      1 RES1    0.0000
     15 H5         1.8843    5.2856    2.2846 H         1 RES1    0.0000
     16 C8        -0.1156    5.0089    1.9361 C.ar      1 RES1    0.0000
     17 C9        -0.1156    3.5223    1.9361 C.ar      1 RES1    0.0000
     18 C10       -1.0465    2.8126    1.1786 C.ar      1 RES1    0.0000
     19 H6        -1.6953    3.2808    0.6660 H         1 RES1    0.0000
     20 C11       -1.0305    1.4227    1.1700 C.ar      1 RES1    0.0000
     21 H7        -1.6550    0.9494    0.6319 H         1 RES1    0.0000
     22 C12       -0.1156    0.7178    1.9361 C.ar      1 RES1    0.0000
     23 H8        -0.1156   -0.2327    1.9361 H         1 RES1    0.0000
     24 O1B       -3.6350    6.8511    3.1269 O.2       1 RES1    0.0000
     25 N1B       -3.5730    7.7817    2.2070 N.pl3     1 RES1    0.0000
     26 C1B       -4.6476    8.5986    2.0143 C.ar      1 RES1    0.0000
     27 H1B       -5.4281    8.4735    2.5417 H         1 RES1    0.0000
     28 C2B       -4.6224    9.5952    1.0765 C.ar      1 RES1    0.0000
     29 H2B       -5.3795   10.1571    0.9595 H         1 RES1    0.0000
     30 C3B       -3.4960    9.7838    0.3013 C.ar      1 RES1    0.0000
     31 H3B       -3.4762   10.4531   -0.3725 H         1 RES1    0.0000
     32 C4B       -2.3961    8.9744    0.5275 C.ar      1 RES1    0.0000
     33 H4B       -1.6033    9.1093    0.0217 H         1 RES1    0.0000
     34 C5B       -2.4350    7.9741    1.4773 C.ar      1 RES1    0.0000
     35 C6B       -1.2404    7.1241    1.7459 C.ar      1 RES1    0.0000
     36 C7B       -1.2906    5.7353    1.7329 C.ar      1 RES1    0.0000
     37 H5B       -2.1155    5.2856    1.5876 H         1 RES1    0.0000
     38 C10B       0.8153    2.8126    2.6936 C.ar      1 RES1    0.0000
     39 H6B        1.4642    3.2808    3.2061 H         1 RES1    0.0000
     40 C11B       0.7993    1.4227    2.7021 C.ar      1 RES1    0.0000
     41 H7B        1.4239    0.9494    3.2402 H         1 RES1    0.0000
@<TRIPOS>BOND
     1    1    2 2
     2    2    4 ar
     3    3   13 ar
     4    4    5 1
     5    6    4 ar
     6    7    6 1
     7    8    6 ar
     8    9    8 1
     9   10    8 ar
    10   11   10 1
    11   12    2 ar
    12   13   12 1
    13   14   13 ar
    14   15   14 1
    15   16   14 ar
    16   17   16 1
    17   18   17 ar
    18   19   18 1
    19   20   18 ar
    20   21   20 1
    21   22   20 ar
    22   23   22 1
    23   24   25 2
    24   25   26 ar
    25   26   27 1
    26   28   26 ar
    27   29   28 1
    28   30   28 ar
    29   31   30 1
    30   32   30 ar
    31   33   32 1
    32   34   25 ar
    33   35    3 ar
    34   36   16 ar
    35   37   36 1
    36   38   17 ar
    37   39   38 1
    38   40   22 ar
    39   41   40 1
    40   10   12 ar
    41   32   34 ar
    42   34   35 1
    43   35   36 ar
    44   38   40 ar
@<TRIPOS>SUBSTRUCTURE
     1 RES1 1

@<TRIPOS>CRYSIN
  19.1173   10.9251    7.7581  90.0000  93.4160  90.0000  15 1

