# MOL2 file generated by ConQuest
# Please check atom types

@<TRIPOS>MOLECULE
LIJQEB
    33    35     1
SMALL
NO_CHARGES
****
Generated from CSD

@<TRIPOS>ATOM
      1 N1         0.4670    3.4664   10.0261 N.pl3     1 RES1    0.0000
      2 H1         0.1456    3.2673   10.7975 H         1 RES1    0.0000
      3 N2         0.0119    8.1010    9.3981 N.1       1 RES1    0.0000
      4 N3         3.1894   10.9141    3.6628 N.pl3     1 RES1    0.0000
      5 O1         2.9821   12.1020    3.9060 O.2       1 RES1    0.0000
      6 O2         3.7684   10.5373    2.6559 O.2       1 RES1    0.0000
      7 C1         0.6453    4.7225    9.5576 C.2       1 RES1    0.0000
      8 H2         0.4373    5.5010   10.0234 H         1 RES1    0.0000
      9 C2         1.1822    4.6794    8.2861 C.2       1 RES1    0.0000
     10 C3         1.3355    3.2849    7.9788 C.ar      1 RES1    0.0000
     11 C4         0.8781    2.5595    9.0830 C.ar      1 RES1    0.0000
     12 C5         0.8857    1.1734    9.1229 C.ar      1 RES1    0.0000
     13 H3         0.5777    0.7043    9.8640 H         1 RES1    0.0000
     14 C6         1.3642    0.5340    8.0256 C.ar      1 RES1    0.0000
     15 H4         1.3881   -0.3954    8.0213 H         1 RES1    0.0000
     16 C7         1.8216    1.2255    6.9039 C.ar      1 RES1    0.0000
     17 H5         2.1415    0.7513    6.1700 H         1 RES1    0.0000
     18 C8         1.8047    2.5958    6.8673 C.ar      1 RES1    0.0000
     19 H6         2.1017    3.0550    6.1140 H         1 RES1    0.0000
     20 C9         1.5830    5.7370    7.4065 C.2       1 RES1    0.0000
     21 H7         2.0731    5.4577    6.6669 H         1 RES1    0.0000
     22 C10        1.3732    7.0696    7.4672 C.2       1 RES1    0.0000
     23 C11        0.6217    7.6209    8.5554 C.1       1 RES1    0.0000
     24 C12        1.8441    8.0470    6.4647 C.ar      1 RES1    0.0000
     25 C13        2.4541    7.6602    5.2778 C.ar      1 RES1    0.0000
     26 H8         2.5722    6.7545    5.1029 H         1 RES1    0.0000
     27 C14        2.8872    8.5803    4.3569 C.ar      1 RES1    0.0000
     28 H9         3.2966    8.3017    3.5690 H         1 RES1    0.0000
     29 C15        2.7108    9.9149    4.6117 C.ar      1 RES1    0.0000
     30 C16        2.0963   10.3322    5.7577 C.ar      1 RES1    0.0000
     31 H10        1.9666   11.2397    5.9172 H         1 RES1    0.0000
     32 C17        1.6719    9.4021    6.6711 C.ar      1 RES1    0.0000
     33 H11        1.2575    9.6912    7.4511 H         1 RES1    0.0000
@<TRIPOS>BOND
     1    1    2 1
     2    3   23 3
     3    4    5 2
     4    6    4 2
     5    7    1 1
     6    8    7 1
     7    9    7 2
     8   10    9 1
     9   11    1 1
    10   12   11 ar
    11   13   12 1
    12   14   12 ar
    13   15   14 1
    14   16   14 ar
    15   17   16 1
    16   18   10 ar
    17   19   18 1
    18   20    9 1
    19   21   20 1
    20   22   20 2
    21   23   22 1
    22   24   22 1
    23   25   24 ar
    24   26   25 1
    25   27   25 ar
    26   28   27 1
    27   29    4 1
    28   30   29 ar
    29   31   30 1
    30   32   24 ar
    31   33   32 1
    32   10   11 ar
    33   16   18 ar
    34   27   29 ar
    35   30   32 ar
@<TRIPOS>SUBSTRUCTURE
     1 RES1 1

@<TRIPOS>CRYSIN
   7.6534   12.7131   14.3741  90.0000  92.3290  90.0000  14 1

