# MOL2 file generated by ConQuest
# Please check atom types

@<TRIPOS>MOLECULE
LIJZOT
    43    45     1
SMALL
USER_CHARGES
****
Generated from CSD

@<TRIPOS>ATOM
      1 C1         4.4354   15.9691    6.9305 C.ar      1 RES1    0.0000
      2 C2         5.2511   14.8829    6.6693 C.ar      1 RES1    0.0000
      3 C3         6.3960   14.6708    7.4252 C.ar      1 RES1    0.0000
      4 C4         6.7137   15.5353    8.4310 C.ar      1 RES1    0.0000
      5 C5         5.9211   16.6202    8.6932 C.ar      1 RES1    0.0000
      6 C6         4.7886   16.8468    7.9528 C.ar      1 RES1    0.0000
      7 C7         3.1938   16.1993    6.1449 C.2       1 RES1    0.0000
      8 N1         2.7361   17.3881    6.0134 N.2       1 RES1    0.0000
      9 C8         1.4948   17.5866    5.3556 C.ar      1 RES1    0.0000
     10 C9         0.3698   16.8177    5.6244 C.ar      1 RES1    0.0000
     11 C10       -0.8343   17.0570    4.9827 C.ar      1 RES1    0.0000
     12 C11       -0.9224   18.0822    4.0576 C.ar      1 RES1    0.0000
     13 O1        -2.0450   18.3912    3.3438 O.3       1 RES1    0.0000
     14 C12       -3.2219   17.6260    3.5799 C.3       1 RES1    0.0000
     15 C13        0.1773   18.9034    3.8360 C.ar      1 RES1    0.0000
     16 C14        1.3697   18.6646    4.4757 C.ar      1 RES1    0.0000
     17 C15        2.6298   15.0070    5.4762 C.2       1 RES1    0.0000
     18 N2         2.2460   13.9975    6.2001 N.pl3     1 RES1    1.0000
     19 O2         2.1517   14.0887    7.4886 O.2       1 RES1   -1.0000
     20 C16        1.8957   12.7147    5.6189 C.ar      1 RES1    0.0000
     21 C17        1.0463   11.8939    6.3340 C.ar      1 RES1    0.0000
     22 C18        0.7143   10.6544    5.8096 C.ar      1 RES1    0.0000
     23 C19        1.2202   10.2498    4.6001 C.ar      1 RES1    0.0000
     24 C20        2.0664   11.0798    3.8967 C.ar      1 RES1    0.0000
     25 C21        2.4152   12.3211    4.4027 C.ar      1 RES1    0.0000
     26 H1         5.0562   14.2746    5.9967 H         1 RES1    0.0000
     27 H2         6.9622   13.9292    7.1671 H         1 RES1    0.0000
     28 H3         7.4272   15.4143    8.9709 H         1 RES1    0.0000
     29 H4         6.1764   17.2564    9.4502 H         1 RES1    0.0000
     30 H5         4.2559   17.6116    8.2161 H         1 RES1    0.0000
     31 H6         0.4317   16.1070    6.2549 H         1 RES1    0.0000
     32 H7        -1.6082   16.5207    5.2048 H         1 RES1    0.0000
     33 H8        -3.0614   16.6632    3.4102 H         1 RES1    0.0000
     34 H9        -3.5113   17.8067    4.5497 H         1 RES1    0.0000
     35 H10       -3.9123   17.9882    3.0164 H         1 RES1    0.0000
     36 H11        0.0852   19.6801    3.2303 H         1 RES1    0.0000
     37 H12        2.1539   19.2527    4.3245 H         1 RES1    0.0000
     38 H13        2.6119   14.9459    4.5045 H         1 RES1    0.0000
     39 H14        0.6829   12.2120    7.1815 H         1 RES1    0.0000
     40 H15        0.0745   10.0713    6.3515 H         1 RES1    0.0000
     41 H16        0.9933    9.3512    4.2525 H         1 RES1    0.0000
     42 H17        2.4173   10.7894    3.0554 H         1 RES1    0.0000
     43 H18        3.0196   12.8911    3.9265 H         1 RES1    0.0000
@<TRIPOS>BOND
     1    1    2 ar
     2    2    3 ar
     3    3    4 ar
     4    4    5 ar
     5    5    6 ar
     6    6    1 ar
     7    7    1 1
     8    8    7 2
     9    9    8 1
    10   10    9 ar
    11   11   10 ar
    12   12   11 ar
    13   13   12 1
    14   14   13 1
    15   15   12 ar
    16   16    9 ar
    17   17    7 1
    18   18   17 2
    19   19   18 1
    20   20   18 1
    21   21   20 ar
    22   22   21 ar
    23   23   22 ar
    24   24   23 ar
    25   25   20 ar
    26   26    2 1
    27   27    3 1
    28   28    4 1
    29   29    5 1
    30   30    6 1
    31   31   10 1
    32   32   11 1
    33   33   14 1
    34   34   14 1
    35   35   14 1
    36   36   15 1
    37   37   16 1
    38   38   17 1
    39   39   21 1
    40   40   22 1
    41   41   23 1
    42   42   24 1
    43   43   25 1
    44   15   16 ar
    45   24   25 ar
@<TRIPOS>SUBSTRUCTURE
     1 RES1 1

@<TRIPOS>CRYSIN
   8.6439   19.5142   10.5033  90.0000 101.7230  90.0000  14 1

