# MOL2 file generated by ConQuest
# Please check atom types

@<TRIPOS>MOLECULE
LIKFIW
    47    36     2
SMALL
NO_CHARGES
****
Generated from CSD

@<TRIPOS>ATOM
      1 O1        11.2793    2.2302    1.9395 O.3       1 RES1    0.0000
      2 O2        13.4482    1.6771    1.7629 O.2       1 RES1    0.0000
      3 N1        10.3516    3.1079    1.2635 N.3       1 RES1    0.0000
      4 C1        11.1067    3.8655    0.3775 C.ar      1 RES1    0.0000
      5 N2        10.5929    4.8136   -0.3663 N.ar      1 RES1    0.0000
      6 C2        11.0090    6.4188   -2.0830 C.ar      1 RES1    0.0000
      7 H1        10.0936    6.6700   -2.0483 H         1 RES1    0.0000
      8 C3        11.8489    7.0463   -2.9557 C.ar      1 RES1    0.0000
      9 H2        11.5112    7.7280   -3.5247 H         1 RES1    0.0000
     10 C4        13.2143    6.6941   -3.0238 C.ar      1 RES1    0.0000
     11 H3        13.7915    7.1497   -3.6254 H         1 RES1    0.0000
     12 C5        13.7092    5.7016   -2.2292 C.ar      1 RES1    0.0000
     13 H4        14.6274    5.4637   -2.2910 H         1 RES1    0.0000
     14 C6        12.8645    5.0185   -1.3081 C.ar      1 RES1    0.0000
     15 C7        11.4862    5.3992   -1.2293 C.ar      1 RES1    0.0000
     16 C8        13.3424    3.9945   -0.4677 C.ar      1 RES1    0.0000
     17 H5        14.2493    3.7147   -0.4927 H         1 RES1    0.0000
     18 C9        12.4428    3.4217    0.3847 C.ar      1 RES1    0.0000
     19 C10       12.5361    2.3721    1.3850 C.2       1 RES1    0.0000
     20 C11        9.4560    3.7271    2.1675 C.3       1 RES1    0.0000
     21 H6         9.0216    4.4688    1.7192 H         1 RES1    0.0000
     22 H7         9.9658    4.0896    2.9078 H         1 RES1    0.0000
     23 C12        8.4089    2.8080    2.7046 C.ar      1 RES1    0.0000
     24 H8         6.6777    2.2874    5.4093 H         1 RES1    0.0000
     25 C13        7.8235    1.8165    1.9278 C.ar      1 RES1    0.0000
     26 H9         8.0936    1.7007    1.0448 H         1 RES1    0.0000
     27 C14        6.8309    1.0028    2.4565 C.ar      1 RES1    0.0000
     28 H10        6.4500    0.3379    1.9296 H         1 RES1    0.0000
     29 C15        6.3966    1.1678    3.7584 C.ar      1 RES1    0.0000
     30 H11        5.7321    0.6176    4.1055 H         1 RES1    0.0000
     31 C16        6.9570    2.1687    4.5299 C.ar      1 RES1    0.0000
     32 C17        7.9579    2.9759    4.0030 C.ar      1 RES1    0.0000
     33 H12        8.3279    3.6458    4.5317 H         1 RES1    0.0000
     34 C18        9.0174    2.7459    1.0538 Du        2 SUP2    0.0000
     35 H13        9.2224    2.0568    0.4172 Du        2 SUP2    0.0000
     36 H14        8.6143    3.4921    0.6042 Du        2 SUP2    0.0000
     37 C19        8.1628    2.3100    2.2712 Du        2 SUP2    0.0000
     38 C20        8.3991    2.8173    3.4455 Du        2 SUP2    0.0000
     39 H15        9.1294    3.4138    3.5696 Du        2 SUP2    0.0000
     40 C21        7.5834    2.4923    4.5155 Du        2 SUP2    0.0000
     41 H16        7.7082    2.8991    5.3643 Du        2 SUP2    0.0000
     42 C22        6.5960    1.5712    4.3267 Du        2 SUP2    0.0000
     43 H17        6.0888    1.2624    5.0694 Du        2 SUP2    0.0000
     44 C23        6.3401    1.1033    3.1164 Du        2 SUP2    0.0000
     45 H18        5.6027    0.5152    2.9960 Du        2 SUP2    0.0000
     46 C24        7.0759    1.4284    2.0680 Du        2 SUP2    0.0000
     47 H19        6.8829    1.0796    1.2049 Du        2 SUP2    0.0000
@<TRIPOS>BOND
     1    1    3 1
     2    2   19 2
     3    3    4 1
     4    4    5 ar
     5    5   15 ar
     6    6    7 1
     7    8    6 ar
     8    9    8 1
     9   10    8 ar
    10   11   10 1
    11   12   10 ar
    12   13   12 1
    13   14   12 ar
    14   15    6 ar
    15   16   14 ar
    16   17   16 1
    17   18    4 ar
    18   19    1 1
    19   20    3 1
    20   21   20 1
    21   22   20 1
    22   23   20 1
    23   24   31 1
    24   25   23 ar
    25   26   25 1
    26   27   25 ar
    27   28   27 1
    28   29   27 ar
    29   30   29 1
    30   31   29 ar
    31   32   23 ar
    32   33   32 1
    33   14   15 ar
    34   16   18 ar
    35   18   19 1
    36   31   32 ar
@<TRIPOS>SUBSTRUCTURE
     1 RES1 1
     2 SUP2 34

@<TRIPOS>CRYSIN
  14.8748    4.9254   18.9056  90.0000 107.9740  90.0000 231 1

