# MOL2 file generated by ConQuest
# Please check atom types

@<TRIPOS>MOLECULE
LIKFIW01
    47    36     2
SMALL
NO_CHARGES
****
Generated from CSD

@<TRIPOS>ATOM
      1 N1        10.3516    3.1084    1.2635 N.3       1 RES1    0.0000
      2 O1        11.2793    2.2297    1.9395 O.3       1 RES1    0.0000
      3 C1        12.5361    2.3721    1.3850 C.2       1 RES1    0.0000
      4 C2        13.3424    3.9940   -0.4677 C.ar      1 RES1    0.0000
      5 H1        14.2493    3.7142   -0.4927 H         1 RES1    0.0000
      6 C3        13.7092    5.7016   -2.2292 C.ar      1 RES1    0.0000
      7 H2        14.6274    5.4642   -2.2910 H         1 RES1    0.0000
      8 C4        13.2142    6.6941   -3.0240 C.ar      1 RES1    0.0000
      9 H3        13.7900    7.1497   -3.6254 H         1 RES1    0.0000
     10 C5        11.8489    7.0458   -2.9557 C.ar      1 RES1    0.0000
     11 H4        11.5112    7.7280   -3.5247 H         1 RES1    0.0000
     12 C6        11.0089    6.4188   -2.0828 C.ar      1 RES1    0.0000
     13 H5        10.0936    6.6700   -2.0483 H         1 RES1    0.0000
     14 N2        10.5931    4.8141   -0.3663 N.ar      1 RES1    0.0000
     15 C7        11.4863    5.3992   -1.2293 C.ar      1 RES1    0.0000
     16 C8        12.8647    5.0185   -1.3083 C.ar      1 RES1    0.0000
     17 C9        11.1068    3.8655    0.3775 C.ar      1 RES1    0.0000
     18 C10       12.4427    3.4217    0.3845 C.ar      1 RES1    0.0000
     19 O2        13.4482    1.6766    1.7629 O.2       1 RES1    0.0000
     20 C11        9.4559    3.7266    2.1673 C.3       1 RES1    0.0000
     21 H6         9.0216    4.4688    1.7192 H         1 RES1    0.0000
     22 H7         9.9658    4.0891    2.9078 H         1 RES1    0.0000
     23 C12        8.4101    2.8099    2.7100 C.ar      1 RES1    0.0000
     24 H8         6.6789    2.2888    5.4147 H         1 RES1    0.0000
     25 C13        7.8224    1.8224    1.9310 C.ar      1 RES1    0.0000
     26 H9         8.0924    1.7062    1.0484 H         1 RES1    0.0000
     27 C14        6.8326    0.9999    2.4511 C.ar      1 RES1    0.0000
     28 H10        6.4517    0.3354    1.9242 H         1 RES1    0.0000
     29 C15        6.3969    1.1732    3.7530 C.ar      1 RES1    0.0000
     30 H11        5.7324    0.6231    4.1001 H         1 RES1    0.0000
     31 C16        6.9516    2.1682    4.5281 C.ar      1 RES1    0.0000
     32 C17        7.9559    2.9779    4.0048 C.ar      1 RES1    0.0000
     33 H12        8.3258    3.6478    4.5335 H         1 RES1    0.0000
     34 C18        9.0174    2.7459    1.0538 Du        2 SUP2    0.0000
     35 H13        9.2209    2.0564    0.4172 Du        2 SUP2    0.0000
     36 H14        8.6143    3.4916    0.6042 Du        2 SUP2    0.0000
     37 C19        8.1723    2.3248    2.2784 Du        2 SUP2    0.0000
     38 C20        8.3962    2.8124    3.4635 Du        2 SUP2    0.0000
     39 H15        9.1188    3.4182    3.5930 Du        2 SUP2    0.0000
     40 C21        7.5869    2.4627    4.5461 Du        2 SUP2    0.0000
     41 H16        7.7263    2.8356    5.4093 Du        2 SUP2    0.0000
     42 C22        6.5858    1.5712    4.3123 Du        2 SUP2    0.0000
     43 H17        6.0461    1.2870    5.0406 Du        2 SUP2    0.0000
     44 C23        6.3394    1.0737    3.1003 Du        2 SUP2    0.0000
     45 H18        5.6240    0.4600    2.9762 Du        2 SUP2    0.0000
     46 C24        7.0866    1.4333    2.0626 Du        2 SUP2    0.0000
     47 H19        6.8974    1.1043    1.1923 Du        2 SUP2    0.0000
@<TRIPOS>BOND
     1    1    2 1
     2    2    3 1
     3    3   18 1
     4    4    5 1
     5    6    7 1
     6    8    6 ar
     7    9    8 1
     8   10    8 ar
     9   11   10 1
    10   12   10 ar
    11   13   12 1
    12   14   15 ar
    13   15   12 ar
    14   16    4 ar
    15   17    1 1
    16   18    4 ar
    17   19    3 2
    18   20    1 1
    19   21   20 1
    20   22   20 1
    21   23   20 1
    22   24   31 1
    23   25   23 ar
    24   26   25 1
    25   27   25 ar
    26   28   27 1
    27   29   27 ar
    28   30   29 1
    29   31   29 ar
    30   32   23 ar
    31   33   32 1
    32    6   16 ar
    33   14   17 ar
    34   15   16 ar
    35   17   18 ar
    36   31   32 ar
@<TRIPOS>SUBSTRUCTURE
     1 RES1 1
     2 SUP2 34

@<TRIPOS>CRYSIN
  14.8748    4.9254   18.9056  90.0000 107.9740  90.0000 231 1

