# MOL2 file generated by ConQuest
# Please check atom types

@<TRIPOS>MOLECULE
LILJOF
    42    43     1
SMALL
NO_CHARGES
****
Generated from CSD

@<TRIPOS>ATOM
      1 O1         4.3424    0.3343   17.2324 O.2       1 RES1    0.0000
      2 O2         4.8697   -1.2257   15.9234 O.2       1 RES1    0.0000
      3 O3         4.4569   -0.7249   11.2164 O.2       1 RES1    0.0000
      4 O4         4.2087    1.2391   10.3686 O.2       1 RES1    0.0000
      5 O5         4.9256    8.5343   19.0297 O.3       1 RES1    0.0000
      6 O6         5.1966    7.3354   21.3764 O.3       1 RES1    0.0000
      7 O7         5.1995    4.6491   21.6019 O.3       1 RES1    0.0000
      8 N1         4.6472   -0.0644   16.1370 N.pl3     1 RES1    0.0000
      9 N2         4.4107    0.4967   11.3181 N.pl3     1 RES1    0.0000
     10 C1         4.8514    2.2729   15.1807 C.ar      1 RES1    0.0000
     11 C2         4.7353    0.8807   15.0044 C.ar      1 RES1    0.0000
     12 C3         4.6097    0.3088   13.7530 C.ar      1 RES1    0.0000
     13 C4         4.6031    1.1089   12.6441 C.ar      1 RES1    0.0000
     14 C5         4.7662    2.4742   12.7424 C.ar      1 RES1    0.0000
     15 C6         4.8940    3.0354   13.9938 C.ar      1 RES1    0.0000
     16 C7         4.9476    2.9495   16.5084 C.2       1 RES1    0.0000
     17 C8         4.6641    4.2356   16.6796 C.2       1 RES1    0.0000
     18 C9         4.7713    4.9914   17.9428 C.ar      1 RES1    0.0000
     19 C10        4.7471    6.3890   17.8581 C.ar      1 RES1    0.0000
     20 C11        4.8719    7.1528   19.0111 C.ar      1 RES1    0.0000
     21 C12        4.9917    6.5460   20.2506 C.ar      1 RES1    0.0000
     22 C13        5.0100    5.1458   20.3421 C.ar      1 RES1    0.0000
     23 C14        4.8969    4.3712   19.1755 C.ar      1 RES1    0.0000
     24 C15        4.8330    9.2122   17.7665 C.3       1 RES1    0.0000
     25 C16        4.2601    7.1918   22.4548 C.3       1 RES1    0.0000
     26 C17        5.1268    3.2448   21.7851 C.3       1 RES1    0.0000
     27 H1         4.4364   -0.5101   13.6665 H         1 RES1    0.0000
     28 H2         4.8697    2.9535   12.0218 H         1 RES1    0.0000
     29 H3         4.8991    4.0946   14.0565 H         1 RES1    0.0000
     30 H4         5.3765    2.4836   17.2103 H         1 RES1    0.0000
     31 H5         4.2381    4.7256   15.9386 H         1 RES1    0.0000
     32 H6         4.6347    6.7394   17.0577 H         1 RES1    0.0000
     33 H7         4.7963    3.4368   19.3129 H         1 RES1    0.0000
     34 H8         4.9946   10.0151   18.0751 H         1 RES1    0.0000
     35 H9         3.8194    8.9948   17.4816 H         1 RES1    0.0000
     36 H10        5.5455    8.9545   17.1425 H         1 RES1    0.0000
     37 H11        4.1867    7.9879   23.0093 H         1 RES1    0.0000
     38 H12        4.3336    6.1755   22.8228 H         1 RES1    0.0000
     39 H13        3.5256    7.0750   22.1445 H         1 RES1    0.0000
     40 H14        5.4353    3.1549   22.7210 H         1 RES1    0.0000
     41 H15        4.1573    3.0609   21.7715 H         1 RES1    0.0000
     42 H16        5.2150    2.7119   21.1441 H         1 RES1    0.0000
@<TRIPOS>BOND
     1    1    8 2
     2    2    8 2
     3    3    9 2
     4    4    9 2
     5    5   20 1
     6    6   21 1
     7    7   22 1
     8    8   11 1
     9    9   13 1
    10   10   11 ar
    11   11   12 ar
    12   12   13 ar
    13   13   14 ar
    14   14   15 ar
    15   15   10 ar
    16   16   10 1
    17   17   16 2
    18   18   17 1
    19   19   18 ar
    20   20   19 ar
    21   21   20 ar
    22   22   21 ar
    23   23   18 ar
    24   24    5 1
    25   25    6 1
    26   26    7 1
    27   27   12 1
    28   28   14 1
    29   29   15 1
    30   30   16 1
    31   31   17 1
    32   32   19 1
    33   33   23 1
    34   34   24 1
    35   35   24 1
    36   36   24 1
    37   37   25 1
    38   38   25 1
    39   39   25 1
    40   40   26 1
    41   41   26 1
    42   42   26 1
    43   22   23 ar
@<TRIPOS>SUBSTRUCTURE
     1 RES1 1

@<TRIPOS>CRYSIN
   7.3450   13.4250   16.9560  90.0000  90.0000  90.0000  19 1

