# MOL2 file generated by ConQuest
# Please check atom types

@<TRIPOS>MOLECULE
LILJUL
    66    70     2
SMALL
NO_CHARGES
****
Generated from CSD

@<TRIPOS>ATOM
      1 O1        -2.1605    8.8409    2.9889 O.2       1 RES1    0.0000
      2 O2        -3.2618    7.9079    1.3734 O.2       1 RES1    0.0000
      3 O3        -2.0367    3.0729    1.5983 O.2       1 RES1    0.0000
      4 O4        -0.0171    2.6118    0.9936 O.2       1 RES1    0.0000
      5 O5         1.0932   14.3683    2.2612 O.3       1 RES1    0.0000
      6 O6         3.3544   14.7900    1.9463 O.3       1 RES1    0.0000
      7 N1        -2.2776    8.0149    2.0918 N.pl3     1 RES1    0.0000
      8 N2        -0.8780    3.4033    1.3390 N.pl3     1 RES1    0.0000
      9 C1         0.1588    7.5460    1.7160 C.ar      1 RES1    0.0000
     10 C2        -1.1641    7.0724    1.8431 C.ar      1 RES1    0.0000
     11 C3        -1.5238    5.7445    1.7240 C.ar      1 RES1    0.0000
     12 C4        -0.5273    4.8272    1.4673 C.ar      1 RES1    0.0000
     13 C5         0.7830    5.2158    1.2966 C.ar      1 RES1    0.0000
     14 C6         1.1131    6.5485    1.4236 C.ar      1 RES1    0.0000
     15 C7         0.5089    8.9684    1.8166 C.2       1 RES1    0.0000
     16 C8         1.7331    9.4561    1.7213 C.2       1 RES1    0.0000
     17 C9         2.1597   10.8502    1.7862 C.ar      1 RES1    0.0000
     18 C10        1.2498   11.9185    2.0018 C.ar      1 RES1    0.0000
     19 C11        1.7695   13.1835    2.0323 C.ar      1 RES1    0.0000
     20 C12        3.1205   13.4431    1.8457 C.ar      1 RES1    0.0000
     21 C13        4.0274   12.4393    1.6539 C.ar      1 RES1    0.0000
     22 C14        3.5216   11.1412    1.6314 C.ar      1 RES1    0.0000
     23 C15        2.0814   15.4130    2.1196 C.3       1 RES1    0.0000
     24 H1        -2.4221    5.5541    1.8391 H         1 RES1    0.0000
     25 H2         1.4430    4.6101    1.0982 H         1 RES1    0.0000
     26 H3         2.0174    6.8443    1.3099 H         1 RES1    0.0000
     27 H4        -0.1994    9.5505    1.9582 H         1 RES1    0.0000
     28 H5         2.3562    8.9212    1.6142 H         1 RES1    0.0000
     29 H6         0.3197   11.7218    2.1434 H         1 RES1    0.0000
     30 H7         4.9126   12.6187    1.5612 H         1 RES1    0.0000
     31 H8         4.0284   10.4474    1.4951 H         1 RES1    0.0000
     32 H9         2.0180   16.0172    2.9373 H         1 RES1    0.0000
     33 H10        1.8540   15.9071    1.2569 H         1 RES1    0.0000
     34 O7        -8.7199    1.7748    2.7970 O.2       2 RES2    0.0000
     35 O8        -9.9944    2.9596    1.5242 O.2       2 RES2    0.0000
     36 O9        -8.6095    7.6483    1.6644 O.2       2 RES2    0.0000
     37 O10       -6.5224    8.1298    1.4144 O.2       2 RES2    0.0000
     38 O11       -5.5054   -3.6896    1.9899 O.3       2 RES2    0.0000
     39 O12       -3.2267   -4.0940    1.7557 O.3       2 RES2    0.0000
     40 N3        -8.9109    2.7094    2.0270 N.pl3     2 RES2    0.0000
     41 N4        -7.4355    7.3258    1.5335 N.pl3     2 RES2    0.0000
     42 C16       -6.4892    3.1484    1.5440 C.ar      2 RES2    0.0000
     43 C17       -7.7935    3.6330    1.7359 C.ar      2 RES2    0.0000
     44 C18       -8.1269    4.9782    1.7280 C.ar      2 RES2    0.0000
     45 C19       -7.1120    5.8924    1.5268 C.ar      2 RES2    0.0000
     46 C20       -5.7969    5.4817    1.3019 C.ar      2 RES2    0.0000
     47 C21       -5.5044    4.1365    1.3165 C.ar      2 RES2    0.0000
     48 C22       -6.1364    1.7182    1.5401 C.2       2 RES2    0.0000
     49 C23       -4.8944    1.2335    1.4858 C.2       2 RES2    0.0000
     50 C24       -4.4735   -0.1636    1.5255 C.ar      2 RES2    0.0000
     51 C25       -5.3614   -1.2351    1.7227 C.ar      2 RES2    0.0000
     52 C26       -4.8308   -2.5033    1.7915 C.ar      2 RES2    0.0000
     53 C27       -3.4764   -2.7361    1.6618 C.ar      2 RES2    0.0000
     54 C28       -2.5746   -1.7244    1.4726 C.ar      2 RES2    0.0000
     55 C29       -3.1032   -0.4264    1.4250 C.ar      2 RES2    0.0000
     56 C30       -4.4965   -4.7186    2.0058 C.3       2 RES2    0.0000
     57 H11       -9.0611    5.2709    1.9317 H         2 RES2    0.0000
     58 H12       -5.1511    6.1205    1.1775 H         2 RES2    0.0000
     59 H13       -4.6044    3.9020    1.1643 H         2 RES2    0.0000
     60 H14       -6.9520    1.1328    1.6142 H         2 RES2    0.0000
     61 H15       -4.1435    1.8723    1.3628 H         2 RES2    0.0000
     62 H16       -6.2959   -1.1328    1.8523 H         2 RES2    0.0000
     63 H17       -1.6267   -1.8566    1.3099 H         2 RES2    0.0000
     64 H18       -2.5426    0.3147    1.2569 H         2 RES2    0.0000
     65 H19       -4.4754   -5.0506    2.9637 H         2 RES2    0.0000
     66 H20       -4.6658   -5.2866    1.2834 H         2 RES2    0.0000
@<TRIPOS>BOND
     1    1    7 2
     2    2    7 2
     3    3    8 2
     4    4    8 2
     5    5   19 1
     6    6   20 1
     7    7   10 1
     8    8   12 1
     9    9   10 ar
    10   10   11 ar
    11   11   12 ar
    12   12   13 ar
    13   13   14 ar
    14   14    9 ar
    15   15    9 1
    16   16   15 2
    17   17   16 1
    18   18   17 ar
    19   19   18 ar
    20   20   19 ar
    21   21   20 ar
    22   22   17 ar
    23   23    5 1
    24   24   11 1
    25   25   13 1
    26   26   14 1
    27   27   15 1
    28   28   16 1
    29   29   18 1
    30   30   21 1
    31   31   22 1
    32   32   23 1
    33   33   23 1
    34   34   40 2
    35   35   40 2
    36   36   41 2
    37   37   41 2
    38   38   52 1
    39   39   53 1
    40   40   43 1
    41   41   45 1
    42   42   43 ar
    43   43   44 ar
    44   44   45 ar
    45   45   46 ar
    46   46   47 ar
    47   47   42 ar
    48   48   42 1
    49   49   48 2
    50   50   49 1
    51   51   50 ar
    52   52   51 ar
    53   53   52 ar
    54   54   53 ar
    55   55   50 ar
    56   56   38 1
    57   57   44 1
    58   58   46 1
    59   59   47 1
    60   60   48 1
    61   61   49 1
    62   62   51 1
    63   63   54 1
    64   64   55 1
    65   65   56 1
    66   66   56 1
    67    6   23 1
    68   21   22 ar
    69   39   56 1
    70   54   55 ar
@<TRIPOS>SUBSTRUCTURE
     1 RES1 1
     2 RES2 34

@<TRIPOS>CRYSIN
  13.2030   15.7340   14.2760  90.0000 112.0600  90.0000  14 1

