# MOL2 file generated by ConQuest
# Please check atom types

@<TRIPOS>MOLECULE
LILKIB
    28    28     1
SMALL
NO_CHARGES
****
Generated from CSD

@<TRIPOS>ATOM
      1 O1         7.7916    2.8392    0.7733 O.2       1 RES1    0.0000
      2 O2         3.6490    1.1573    2.4295 O.2       1 RES1    0.0000
      3 N1         7.4006    4.0849    0.8688 N.pl3     1 RES1    0.0000
      4 N2         1.8000    2.4257    2.7021 N.am      1 RES1    0.0000
      5 C1         8.2470    5.0777    0.4807 C.ar      1 RES1    0.0000
      6 H1         9.0979    4.8611    0.1464 H         1 RES1    0.0000
      7 C2         7.8673    6.3927    0.5743 C.ar      1 RES1    0.0000
      8 H2         8.4573    7.0722    0.3034 H         1 RES1    0.0000
      9 C3         6.6291    6.7179    1.0631 C.ar      1 RES1    0.0000
     10 H3         6.3661    7.6176    1.1336 H         1 RES1    0.0000
     11 C4         5.7695    5.7024    1.4513 C.ar      1 RES1    0.0000
     12 H4         4.9176    5.9176    1.7841 H         1 RES1    0.0000
     13 C5         6.1510    4.3741    1.3536 C.ar      1 RES1    0.0000
     14 C6         5.3211    3.1933    1.7271 C.3       1 RES1    0.0000
     15 H5         5.7645    2.7182    2.4603 H         1 RES1    0.0000
     16 H6         5.2819    2.5838    0.9600 H         1 RES1    0.0000
     17 C7         3.9058    3.5276    2.1530 C.3       1 RES1    0.0000
     18 H7         3.9296    4.0887    2.9569 H         1 RES1    0.0000
     19 H8         3.4614    4.0344    1.4415 H         1 RES1    0.0000
     20 C8         3.1195    2.2658    2.4410 C.2       1 RES1    0.0000
     21 C9         0.9900    1.2633    2.9886 C.3       1 RES1    0.0000
     22 H9         1.4730    0.4617    2.7335 H         1 RES1    0.0000
     23 H10        0.1609    1.3149    2.4875 H         1 RES1    0.0000
     24 H11        0.7918    1.2327    3.9380 H         1 RES1    0.0000
     25 C10        1.1479    3.7127    2.8113 C.3       1 RES1    0.0000
     26 H12        1.2649    4.0595    3.7101 H         1 RES1    0.0000
     27 H13        0.2011    3.6131    2.6249 H         1 RES1    0.0000
     28 H14        1.5400    4.3290    2.1735 H         1 RES1    0.0000
@<TRIPOS>BOND
     1    1    3 1
     2    2   20 2
     3    3    5 ar
     4    4   20 1
     5    5    6 1
     6    7    5 ar
     7    8    7 1
     8    9    7 ar
     9   10    9 1
    10   11    9 ar
    11   12   11 1
    12   13    3 ar
    13   14   13 1
    14   15   14 1
    15   16   14 1
    16   17   14 1
    17   18   17 1
    18   19   17 1
    19   20   17 1
    20   21    4 1
    21   22   21 1
    22   23   21 1
    23   24   21 1
    24   25    4 1
    25   26   25 1
    26   27   25 1
    27   28   25 1
    28   11   13 ar
@<TRIPOS>SUBSTRUCTURE
     1 RES1 1

@<TRIPOS>CRYSIN
   9.5942    6.9643   15.2146  90.0000  97.2160  90.0000  14 1

