# MOL2 file generated by ConQuest
# Please check atom types

@<TRIPOS>MOLECULE
LILKAU
    42    43     1
SMALL
NO_CHARGES
****
Generated from CSD

@<TRIPOS>ATOM
      1 O1        -0.3916   11.1553    7.0117 O.2       1 RES1    0.0000
      2 O2        -0.1734    8.9357    6.9392 O.3       1 RES1    0.0000
      3 O3        -0.4677    6.5988    8.0171 O.2       1 RES1    0.0000
      4 O4         5.8852    4.5769    1.4256 O.2       1 RES1    0.0000
      5 O5         4.6265    3.4541    2.7013 O.2       1 RES1    0.0000
      6 O6         5.3708    9.2632    1.0813 O.2       1 RES1    0.0000
      7 O7         4.2216   10.4068    2.4839 O.2       1 RES1    0.0000
      8 N1         2.7095    9.2128    4.2388 N.3       1 RES1    0.0000
      9 N2         1.7141    9.1319    5.1643 N.2       1 RES1    0.0000
     10 N3         5.0029    4.5041    2.2438 N.pl3     1 RES1    0.0000
     11 N4         4.6263    9.3335    2.0469 N.pl3     1 RES1    0.0000
     12 C1         3.2659    8.0728    3.7406 C.ar      1 RES1    0.0000
     13 C2         2.8958    6.8133    4.2370 C.ar      1 RES1    0.0000
     14 C3         3.4343    5.6669    3.7443 C.ar      1 RES1    0.0000
     15 C4         4.3852    5.7309    2.7337 C.ar      1 RES1    0.0000
     16 C5         4.7671    6.9285    2.1932 C.ar      1 RES1    0.0000
     17 C6         4.2104    8.0950    2.6889 C.ar      1 RES1    0.0000
     18 C7         1.2106   10.2547    5.5363 C.2       1 RES1    0.0000
     19 C8         1.6020   11.6071    5.0561 C.3       1 RES1    0.0000
     20 C9         0.1363   10.1737    6.5634 C.2       1 RES1    0.0000
     21 C10       -1.2227    8.8315    7.9108 C.3       1 RES1    0.0000
     22 C11       -1.2165    7.4377    8.4741 C.2       1 RES1    0.0000
     23 C12       -2.1638    7.1321    9.5754 C.ar      1 RES1    0.0000
     24 C13       -2.9807    8.0994   10.1455 C.ar      1 RES1    0.0000
     25 C14       -3.8697    7.7559   11.1472 C.ar      1 RES1    0.0000
     26 C15       -3.9558    6.4576   11.5723 C.ar      1 RES1    0.0000
     27 C16       -3.1518    5.4956   11.0278 C.ar      1 RES1    0.0000
     28 C17       -2.2522    5.8237   10.0360 C.ar      1 RES1    0.0000
     29 H1         2.9557    9.9888    3.9021 H         1 RES1    0.0000
     30 H2         2.2427    6.7976    4.9578 H         1 RES1    0.0000
     31 H3         3.2116    4.8646    4.0594 H         1 RES1    0.0000
     32 H4         5.4519    6.9514    1.5055 H         1 RES1    0.0000
     33 H5         1.4570   11.7118    4.1540 H         1 RES1    0.0000
     34 H6         1.0848   12.2616    5.5182 H         1 RES1    0.0000
     35 H7         2.4658   11.8288    5.2233 H         1 RES1    0.0000
     36 H8        -2.0229    8.9950    7.4748 H         1 RES1    0.0000
     37 H9        -1.0345    9.4855    8.6374 H         1 RES1    0.0000
     38 H10       -2.9336    9.0030    9.8443 H         1 RES1    0.0000
     39 H11       -4.3816    8.4068   11.5600 H         1 RES1    0.0000
     40 H12       -4.5483    6.2093   12.2777 H         1 RES1    0.0000
     41 H13       -3.1576    4.5360   11.3191 H         1 RES1    0.0000
     42 H14       -1.6806    5.1707    9.6366 H         1 RES1    0.0000
@<TRIPOS>BOND
     1    1   20 2
     2    2   20 1
     3    3   22 2
     4    4   10 2
     5    5   10 2
     6    6   11 2
     7    7   11 2
     8    8    9 1
     9    9   18 2
    10   10   15 1
    11   11   17 1
    12   12    8 1
    13   13   12 ar
    14   14   13 ar
    15   15   14 ar
    16   16   15 ar
    17   17   12 ar
    18   18   19 1
    19   19   33 1
    20   20   18 1
    21   21    2 1
    22   22   21 1
    23   23   22 1
    24   24   23 ar
    25   25   24 ar
    26   26   25 ar
    27   27   26 ar
    28   28   23 ar
    29   29    8 1
    30   30   13 1
    31   31   14 1
    32   32   16 1
    33   34   19 1
    34   35   19 1
    35   36   21 1
    36   37   21 1
    37   38   24 1
    38   39   25 1
    39   40   26 1
    40   41   27 1
    41   42   28 1
    42   16   17 ar
    43   27   28 ar
@<TRIPOS>SUBSTRUCTURE
     1 RES1 1

@<TRIPOS>CRYSIN
   9.0778   16.0282   12.5829  90.0000 102.3866  90.0000  14 2

