# MOL2 file generated by ConQuest
# Please check atom types

@<TRIPOS>MOLECULE
LILLEY
    27    27     1
SMALL
NO_CHARGES
****
Generated from CSD

@<TRIPOS>ATOM
      1 O1         6.5573    0.2537   12.3962 O.2       1 RES1    0.0000
      2 C1         5.9010    2.4510   13.1004 C.3       1 RES1    0.0000
      3 H1         6.8570    2.5761   13.2741 H         1 RES1    0.0000
      4 H2         5.4019    2.5413   13.9396 H         1 RES1    0.0000
      5 H3         5.5929    3.1292   12.4626 H         1 RES1    0.0000
      6 N1         4.3619    0.7558   12.2259 N.am      1 RES1    0.0000
      7 C2         5.6709    1.0796   12.5244 C.2       1 RES1    0.0000
      8 O2         3.3746   -2.5294   11.4183 O.2       1 RES1    0.0000
      9 N2         4.1089   -0.4090   11.4765 N.am      1 RES1    0.0000
     10 C3         4.1809   -1.7216   13.5310 C.3       1 RES1    0.0000
     11 H4         3.9378   -2.6124   13.8604 H         1 RES1    0.0000
     12 H5         3.6934   -1.0411   14.0403 H         1 RES1    0.0000
     13 H6         5.1453   -1.5846   13.6415 H         1 RES1    0.0000
     14 C4         3.8264   -1.6120   12.0875 C.2       1 RES1    0.0000
     15 C5         3.4528   -0.0629   10.2164 C.3       1 RES1    0.0000
     16 H7         2.6915   -0.6686   10.0320 H         1 RES1    0.0000
     17 H8         4.0900   -0.1044    9.4596 H         1 RES1    0.0000
     18 O3         0.9596    2.5200   10.7096 O.2       1 RES1    0.0000
     19 O4         0.9773    0.8307    9.3396 O.2       1 RES1    0.0000
     20 O5         4.8877    2.4538    9.7404 O.2       1 RES1    0.0000
     21 O6         3.0986    2.8130    8.5751 O.2       1 RES1    0.0000
     22 N3         3.7047    2.3162    9.5034 N.pl3     1 RES1    0.0000
     23 N4         1.4956    1.5908   10.1416 N.pl3     1 RES1    0.0000
     24 C6         2.9698    1.3773   10.4554 C.3       1 RES1    0.0000
     25 C7         3.2939    1.7127   11.9146 C.3       1 RES1    0.0000
     26 H9         3.6090    2.6464   12.0072 H         1 RES1    0.0000
     27 H10        2.5060    1.5757   12.4991 H         1 RES1    0.0000
@<TRIPOS>BOND
     1    1    7 2
     2    2    3 1
     3    4    2 1
     4    5    2 1
     5    6    7 1
     6    7    2 1
     7    8   14 2
     8    9    6 1
     9   10   11 1
    10   12   10 1
    11   13   10 1
    12   14    9 1
    13   15    9 1
    14   16   15 1
    15   17   15 1
    16   18   23 2
    17   19   23 2
    18   20   22 2
    19   21   22 2
    20   22   24 1
    21   23   24 1
    22   24   15 1
    23   25    6 1
    24   26   25 1
    25   27   25 1
    26   10   14 1
    27   24   25 1
@<TRIPOS>SUBSTRUCTURE
     1 RES1 1

@<TRIPOS>CRYSIN
  11.1081    7.4047   12.5809  90.0000  90.0000  90.0000  29 1

