# MOL2 file generated by ConQuest
# Please check atom types

@<TRIPOS>MOLECULE
LIMHOF
    56    59     1
SMALL
NO_CHARGES
****
Generated from CSD

@<TRIPOS>ATOM
      1 O1         0.8590    0.0182   12.7773 O.2       1 RES1    0.0000
      2 O2        -5.1312   -1.5564   15.8049 O.2       1 RES1    0.0000
      3 O3        -4.0482   -1.4275   17.6638 O.2       1 RES1    0.0000
      4 N1         0.7674    2.0352   13.7725 N.am      1 RES1    0.0000
      5 N2        -4.1305   -1.2753   16.4564 N.pl3     1 RES1    0.0000
      6 N3         3.0460    2.2877   19.8075 N.3       1 RES1    0.0000
      7 C1         0.2951    2.9774   14.8264 C.3       1 RES1    0.0000
      8 C2         0.5145    4.3724   14.1632 C.3       1 RES1    0.0000
      9 C3         1.6554    4.0718   13.2198 C.ar      1 RES1    0.0000
     10 C4         2.5362    4.9267   12.5869 C.ar      1 RES1    0.0000
     11 C5         3.4506    4.4088   11.6879 C.ar      1 RES1    0.0000
     12 C6         3.4882    3.0542   11.4170 C.ar      1 RES1    0.0000
     13 C7         2.6293    2.1810   12.0522 C.ar      1 RES1    0.0000
     14 C8         1.7229    2.7132   12.9606 C.ar      1 RES1    0.0000
     15 C9        -0.7389    4.7432   13.3436 C.3       1 RES1    0.0000
     16 C10        0.8111    5.4928   15.1487 C.3       1 RES1    0.0000
     17 C11        0.3572    0.7665   13.5981 C.2       1 RES1    0.0000
     18 C12       -0.8209    0.2889   14.4154 C.ar      1 RES1    0.0000
     19 C13       -0.7029   -0.0742   15.7395 C.ar      1 RES1    0.0000
     20 C14       -1.7865   -0.5908   16.4051 C.ar      1 RES1    0.0000
     21 C15       -2.9704   -0.7300   15.7465 C.ar      1 RES1    0.0000
     22 C16       -3.1149   -0.3774   14.4224 C.ar      1 RES1    0.0000
     23 C17       -2.0289    0.1366   13.7639 C.ar      1 RES1    0.0000
     24 C18        1.0237    2.7379   16.1295 C.ar      1 RES1    0.0000
     25 C19        2.3513    2.3554   16.1855 C.ar      1 RES1    0.0000
     26 C20        3.0040    2.1784   17.3952 C.ar      1 RES1    0.0000
     27 C21        2.3654    2.4009   18.5978 C.ar      1 RES1    0.0000
     28 C22        1.0103    2.7783   18.5441 C.ar      1 RES1    0.0000
     29 C23        0.3806    2.9370   17.3321 C.ar      1 RES1    0.0000
     30 C24        4.3082    1.6227   19.8542 C.3       1 RES1    0.0000
     31 C25        2.3697    2.5857   21.0475 C.3       1 RES1    0.0000
     32 H1        -0.6357    2.8446   14.9642 H         1 RES1    0.0000
     33 H2         2.5073    5.8572   12.7714 H         1 RES1    0.0000
     34 H3         4.0673    4.9879   11.2559 H         1 RES1    0.0000
     35 H4         4.1119    2.7223   10.7818 H         1 RES1    0.0000
     36 H5         2.6542    1.2466   11.8794 H         1 RES1    0.0000
     37 H6        -0.7229    4.2839   12.5122 H         1 RES1    0.0000
     38 H7        -0.7624    5.6802   13.1871 H         1 RES1    0.0000
     39 H8        -1.5106    4.4843   13.8340 H         1 RES1    0.0000
     40 H9         1.4168    6.1135   14.7611 H         1 RES1    0.0000
     41 H10        0.0030    5.9378   15.3752 H         1 RES1    0.0000
     42 H11        1.1984    5.1219   15.9333 H         1 RES1    0.0000
     43 H12        0.1294    0.0377   16.1832 H         1 RES1    0.0000
     44 H13       -1.7202   -0.8563   17.3158 H         1 RES1    0.0000
     45 H14       -3.9498   -0.4945   13.9834 H         1 RES1    0.0000
     46 H15       -2.1026    0.3956   12.8532 H         1 RES1    0.0000
     47 H16        2.8209    2.2135   15.3729 H         1 RES1    0.0000
     48 H17        3.9124    1.8986   17.3999 H         1 RES1    0.0000
     49 H18        0.5301    2.9123   19.3521 H         1 RES1    0.0000
     50 H19       -0.5314    3.2025   17.3181 H         1 RES1    0.0000
     51 H20        4.7531    1.7177   19.0205 H         1 RES1    0.0000
     52 H21        4.8425    2.0014   20.5431 H         1 RES1    0.0000
     53 H22        4.1663    0.7014   20.0364 H         1 RES1    0.0000
     54 H23        2.4743    3.5070   21.2530 H         1 RES1    0.0000
     55 H24        2.7381    2.0613   21.7504 H         1 RES1    0.0000
     56 H25        1.4459    2.3853   20.9541 H         1 RES1    0.0000
@<TRIPOS>BOND
     1    1   17 2
     2    2    5 2
     3    3    5 2
     4    4    7 1
     5    5   21 1
     6    6   27 1
     7    7    8 1
     8    8    9 1
     9    9   10 ar
    10   10   11 ar
    11   11   12 ar
    12   12   13 ar
    13   13   14 ar
    14   14    4 1
    15   15    8 1
    16   16    8 1
    17   17    4 1
    18   18   17 1
    19   19   18 ar
    20   20   19 ar
    21   21   20 ar
    22   22   21 ar
    23   23   18 ar
    24   24    7 1
    25   25   24 ar
    26   26   25 ar
    27   27   26 ar
    28   28   27 ar
    29   29   24 ar
    30   30    6 1
    31   31    6 1
    32   32    7 1
    33   33   10 1
    34   34   11 1
    35   35   12 1
    36   36   13 1
    37   37   15 1
    38   38   15 1
    39   39   15 1
    40   40   16 1
    41   41   16 1
    42   42   16 1
    43   43   19 1
    44   44   20 1
    45   45   22 1
    46   46   23 1
    47   47   25 1
    48   48   26 1
    49   49   28 1
    50   50   29 1
    51   51   30 1
    52   52   30 1
    53   53   30 1
    54   54   31 1
    55   55   31 1
    56   56   31 1
    57    9   14 ar
    58   22   23 ar
    59   28   29 ar
@<TRIPOS>SUBSTRUCTURE
     1 RES1 1

@<TRIPOS>CRYSIN
   7.3530   13.0130   23.4360  90.0000  94.8410  90.0000 231 1

