# MOL2 file generated by ConQuest
# Please check atom types

@<TRIPOS>MOLECULE
LIMKIB
    36    34     2
SMALL
NO_CHARGES
****
Generated from CSD

@<TRIPOS>ATOM
      1 C1         3.8670    1.5044    3.8744 C.2       1 RES1    0.0000
      2 C2         3.0201    2.7356    3.7795 C.3       1 RES1    0.0000
      3 C3         2.4698    3.1799    5.1204 C.3       1 RES1    0.0000
      4 C4         1.6347    4.4169    5.0935 C.2       1 RES1    0.0000
      5 C5         1.0473    4.9085    6.3782 C.3       1 RES1    0.0000
      6 N1         1.4484    4.9978    3.9728 N.2       1 RES1    0.0000
      7 O1         0.6415    6.1532    4.0913 O.3       1 RES1    0.0000
      8 O2         4.1366    0.9276    4.9075 O.2       1 RES1    0.0000
      9 O3         4.3148    1.1093    2.6908 O.3       1 RES1    0.0000
     10 C6         1.7364    6.0716    0.8508 C.2       2 RES2    0.0000
     11 C7         2.2070    6.3130   -0.5508 C.3       2 RES2    0.0000
     12 C8         1.6452    7.5819   -1.1539 C.3       2 RES2    0.0000
     13 C9         1.9042    7.7807   -2.6169 C.2       2 RES2    0.0000
     14 C10        1.2621    8.9409   -3.2854 C.3       2 RES2    0.0000
     15 N2         2.6631    6.9359   -3.2060 N.2       2 RES2    0.0000
     16 O4         2.8258    7.2175   -4.5801 O.3       2 RES2    0.0000
     17 O5         0.9559    6.7868    1.4435 O.2       2 RES2    0.0000
     18 O6         2.2499    4.9724    1.3778 O.3       2 RES2    0.0000
     19 H1         0.6167    6.4354    3.2078 H         1 RES1    0.0000
     20 H2         4.8943    0.3017    2.8068 H         1 RES1    0.0000
     21 H3         3.3484    6.5579   -4.8038 H         2 RES2    0.0000
     22 H4         1.9831    4.8701    2.2687 H         2 RES2    0.0000
     23 H5         3.5678    3.4265    3.4057 H         1 RES1    0.0000
     24 H6         2.3174    2.5776    3.1471 H         1 RES1    0.0000
     25 H7         3.1961    3.3076    5.7218 H         1 RES1    0.0000
     26 H8         1.9464    2.4646    5.5082 H         1 RES1    0.0000
     27 H9         1.1745    4.2719    7.0250 H         1 RES1    0.0000
     28 H10        0.1351    5.1014    6.2468 H         1 RES1    0.0000
     29 H11        1.4890    5.7646    6.6530 H         1 RES1    0.0000
     30 H12        3.1955    6.3195   -0.5039 H         2 RES2    0.0000
     31 H13        1.9209    5.5735   -1.0869 H         2 RES2    0.0000
     32 H14        1.9915    8.3037   -0.6437 H         2 RES2    0.0000
     33 H15        0.6620    7.5914   -1.0183 H         2 RES2    0.0000
     34 H16        0.6497    9.3071   -2.7567 H         2 RES2    0.0000
     35 H17        0.8296    8.7089   -4.1311 H         2 RES2    0.0000
     36 H18        1.8981    9.5632   -3.5982 H         2 RES2    0.0000
@<TRIPOS>BOND
     1    1    2 1
     2    2    3 1
     3    3    4 1
     4    4    5 1
     5    5   27 1
     6    6    4 2
     7    7    6 1
     8    8    1 2
     9    9    1 1
    10   10   11 1
    11   11   12 1
    12   12   13 1
    13   13   14 1
    14   14   34 1
    15   15   13 2
    16   16   15 1
    17   17   10 2
    18   18   10 1
    19   19    7 1
    20   20    9 1
    21   21   16 1
    22   22   18 1
    23   23    2 1
    24   24    2 1
    25   25    3 1
    26   26    3 1
    27   28    5 1
    28   29    5 1
    29   30   11 1
    30   31   11 1
    31   32   12 1
    32   33   12 1
    33   35   14 1
    34   36   14 1
@<TRIPOS>SUBSTRUCTURE
     1 RES1 1
     2 RES2 10

@<TRIPOS>CRYSIN
   8.5680    5.9160   26.4030  90.0000  92.3900  90.0000  14 1

