# MOL2 file generated by ConQuest
# Please check atom types

@<TRIPOS>MOLECULE
LIMKEX
    50    39     3
SMALL
NO_CHARGES
****
Generated from CSD

@<TRIPOS>ATOM
      1 N1         1.7887    9.0344    2.7350 N.2       1 RES1    0.0000
      2 O1         1.9355   10.3434    3.1579 O.3       1 RES1    0.0000
      3 O2         2.5632    5.8671    3.8705 O.2       1 RES1    0.0000
      4 O3         1.5968    6.5697    1.9627 O.3       1 RES1    0.0000
      5 C1         2.1606    6.7584    3.1446 C.2       1 RES1    0.0000
      6 C2         2.3055    8.1746    3.5520 C.2       1 RES1    0.0000
      7 C3         3.0131    8.5141    4.8314 C.3       1 RES1    0.0000
      8 C4         4.4552    8.9947    4.6306 C.3       1 RES1    0.0000
      9 C5         5.0437    9.3517    5.9909 C.3       1 RES1    0.0000
     10 C6         5.3220    7.9546    3.9600 C.3       1 RES1    0.0000
     11 N2        -0.7480    9.9191   -1.8391 N.2       2 RES2    0.0000
     12 O4        -1.3416   10.3498   -3.0087 O.3       2 RES2    0.0000
     13 O5         0.6663   11.2868    1.0013 O.2       2 RES2    0.0000
     14 O6         0.4295    9.1462    0.3244 O.3       2 RES2    0.0000
     15 C7         0.2810   10.4525    0.1880 C.2       2 RES2    0.0000
     16 C8        -0.3926   10.8901   -1.0599 C.2       2 RES2    0.0000
     17 C9        -0.5663   12.3479   -1.3315 C.3       2 RES2    0.0000
     18 C10       -1.8640   12.8440   -0.5747 C.3       2 RES2    0.0000
     19 C11       -1.8081   14.3712   -0.5561 C.3       2 RES2    0.0000
     20 C12       -3.0763   12.4448   -1.3789 C.3       2 RES2    0.0000
     21 C13       -1.9231   12.9394   -1.1542 Du        3 SUP3    0.0000
     22 C14       -2.2212   12.9511    0.3334 Du        3 SUP3    0.0000
     23 C15       -2.0288   14.3382   -1.7113 Du        3 SUP3    0.0000
     24 H1         1.6314   10.8482    2.5848 H         1 RES1    0.0000
     25 H2         1.5143    5.5476    1.6745 H         1 RES1    0.0000
     26 H3        -1.4578    9.5775   -3.4098 H         2 RES2    0.0000
     27 H4         0.9091    8.7942    1.2037 H         2 RES2    0.0000
     28 H5         2.5034    9.1910    5.2788 H         1 RES1    0.0000
     29 H6         2.9628    7.7360    5.4465 H         1 RES1    0.0000
     30 H7         4.5356    9.8163    4.0058 H         1 RES1    0.0000
     31 H8         6.0721    9.7658    5.9136 H         1 RES1    0.0000
     32 H9         4.4861   10.0311    6.4010 H         1 RES1    0.0000
     33 H10        5.0976    8.5037    6.6183 H         1 RES1    0.0000
     34 H11        5.3375    7.0683    4.5485 H         1 RES1    0.0000
     35 H12        5.7087    7.8359    3.0844 H         1 RES1    0.0000
     36 H13        6.2811    8.3773    3.8146 H         1 RES1    0.0000
     37 H14        0.1737   12.8158   -0.9837 H         2 RES2    0.0000
     38 H15       -0.4725   12.4869   -2.2716 H         2 RES2    0.0000
     39 H16       -1.5283   14.0632    0.3089 H         2 RES2    0.0000
     40 H17       -2.6331   14.8549   -0.4740 H         2 RES2    0.0000
     41 H18       -1.1340   14.9502   -0.9225 H         2 RES2    0.0000
     42 H19       -3.0453   11.4859   -1.4423 H         2 RES2    0.0000
     43 H20       -3.0723   12.8244   -2.2604 H         2 RES2    0.0000
     44 H21       -3.8762   12.7103   -0.9193 H         2 RES2    0.0000
     45 H22       -3.1667   13.1167    0.3622 Du        3 SUP3    0.0000
     46 H23       -1.7525   13.7158    0.6764 Du        3 SUP3    0.0000
     47 H24       -2.0152   12.1823    0.8735 Du        3 SUP3    0.0000
     48 H25       -2.5085   15.0837   -1.3422 Du        3 SUP3    0.0000
     49 H26       -2.6527   13.7094   -2.0825 Du        3 SUP3    0.0000
     50 H27       -1.4377   14.6511   -2.4021 Du        3 SUP3    0.0000
@<TRIPOS>BOND
     1    1    2 1
     2    2   24 1
     3    3    5 2
     4    4    5 1
     5    5    6 1
     6    6    1 2
     7    7    6 1
     8    8    7 1
     9    9    8 1
    10   10    8 1
    11   11   12 1
    12   12   26 1
    13   13   15 2
    14   14   15 1
    15   15   16 1
    16   16   11 2
    17   17   16 1
    18   18   17 1
    19   19   18 1
    20   20   18 1
    21   25    4 1
    22   27   14 1
    23   28    7 1
    24   29    7 1
    25   30    8 1
    26   31    9 1
    27   32    9 1
    28   33    9 1
    29   34   10 1
    30   35   10 1
    31   36   10 1
    32   37   17 1
    33   38   17 1
    34   39   19 1
    35   40   19 1
    36   41   19 1
    37   42   20 1
    38   43   20 1
    39   44   20 1
@<TRIPOS>SUBSTRUCTURE
     1 RES1 1
     2 RES2 11
     3 SUP3 21

@<TRIPOS>CRYSIN
  10.8220   13.7430    5.4080  96.4700  97.9700  86.3100   2 1

