# MOL2 file generated by ConQuest
# Please check atom types

@<TRIPOS>MOLECULE
LINCUG
    53    57     1
SMALL
NO_CHARGES
****
Generated from CSD

@<TRIPOS>ATOM
      1 C1         5.3438    2.6339    1.1700 C.3       1 RES1    0.0000
      2 C2         6.2496    3.0466    2.3207 C.3       1 RES1    0.0000
      3 C3         6.0196    2.1222    3.4677 C.2       1 RES1    0.0000
      4 C4         4.9394    1.2017    3.5295 C.2       1 RES1    0.0000
      5 C5         3.9239    1.0025    2.4529 C.3       1 RES1    0.0000
      6 C6         2.5640    0.6028    3.0149 C.3       1 RES1    0.0000
      7 C7         1.9138    1.7525    3.7868 C.3       1 RES1    0.0000
      8 C8         1.8409    3.0427    2.9697 C.3       1 RES1    0.0000
      9 C9         3.2323    3.4242    2.4270 C.3       1 RES1    0.0000
     10 C10        3.8803    2.2915    1.5833 C.3       1 RES1    0.0000
     11 C11        3.2165    4.7770    1.7033 C.3       1 RES1    0.0000
     12 C12        2.6325    5.9032    2.5571 C.3       1 RES1    0.0000
     13 C13        1.2478    5.5282    3.0602 C.3       1 RES1    0.0000
     14 C14        1.3403    4.2015    3.8314 C.3       1 RES1    0.0000
     15 C15       -0.0113    4.0713    4.5336 C.3       1 RES1    0.0000
     16 C16       -0.4698    5.5269    4.7772 C.3       1 RES1    0.0000
     17 C17        0.6329    6.4396    4.1685 C.3       1 RES1    0.0000
     18 C18        0.2631    5.4657    1.8751 C.3       1 RES1    0.0000
     19 C19        3.1143    2.0142    0.2932 C.3       1 RES1    0.0000
     20 C20        1.6365    6.7638    5.1962 C.1       1 RES1    0.0000
     21 C21        2.4084    7.0177    6.0550 C.1       1 RES1    0.0000
     22 N1         4.9860    0.5898    4.6780 N.2       1 RES1    0.0000
     23 N2         6.7262    2.0649    4.5630 N.2       1 RES1    0.0000
     24 O1         6.0985    1.1080    5.3313 O.3       1 RES1    0.0000
     25 O2         0.1067    7.6504    3.6136 O.3       1 RES1    0.0000
     26 H1         5.2642    3.4359    0.4499 H         1 RES1    0.0000
     27 H2         5.7986    1.7733    0.7015 H         1 RES1    0.0000
     28 H3         7.2697    2.9802    1.9757 H         1 RES1    0.0000
     29 H4         6.0309    4.0661    2.6039 H         1 RES1    0.0000
     30 H5         4.1336    0.1627    1.8082 H         1 RES1    0.0000
     31 H6         2.7084   -0.2383    3.6776 H         1 RES1    0.0000
     32 H7         1.9086    0.3164    2.2064 H         1 RES1    0.0000
     33 H8         0.8953    1.4621    4.0046 H         1 RES1    0.0000
     34 H9         2.4498    1.9022    4.7111 H         1 RES1    0.0000
     35 H10        1.1794    2.8344    2.1417 H         1 RES1    0.0000
     36 H11        3.7953    3.5844    3.3340 H         1 RES1    0.0000
     37 H12        4.2479    5.0322    1.5071 H         1 RES1    0.0000
     38 H13        2.6791    4.7054    0.7683 H         1 RES1    0.0000
     39 H14        2.5783    6.8224    1.9930 H         1 RES1    0.0000
     40 H15        3.2526    6.0529    3.4289 H         1 RES1    0.0000
     41 H16        2.0747    4.1898    4.6220 H         1 RES1    0.0000
     42 H17        0.0661    3.4841    5.4362 H         1 RES1    0.0000
     43 H18       -0.7224    3.6104    3.8630 H         1 RES1    0.0000
     44 H19       -1.4590    5.7118    4.3848 H         1 RES1    0.0000
     45 H20       -0.4736    5.6714    5.8473 H         1 RES1    0.0000
     46 H21       -0.7359    5.2223    2.2057 H         1 RES1    0.0000
     47 H22        0.6036    4.7171    1.1744 H         1 RES1    0.0000
     48 H23        0.2563    6.4331    1.3943 H         1 RES1    0.0000
     49 H24        3.1181    2.8592   -0.3788 H         1 RES1    0.0000
     50 H25        2.0950    1.7199    0.4966 H         1 RES1    0.0000
     51 H26        3.6412    1.1900   -0.1631 H         1 RES1    0.0000
     52 H27        3.1662    7.0958    6.8197 H         1 RES1    0.0000
     53 H28       -0.2315    8.0515    4.2188 H         1 RES1    0.0000
@<TRIPOS>BOND
     1    1    2 1
     2    2    3 1
     3    3    4 1
     4    4    5 1
     5    5    6 1
     6    6    7 1
     7    7    8 1
     8    8    9 1
     9    9   10 1
    10   10    1 1
    11   11    9 1
    12   12   11 1
    13   13   12 1
    14   14    8 1
    15   15   14 1
    16   16   15 1
    17   17   13 1
    18   18   13 1
    19   19   10 1
    20   20   17 1
    21   21   20 3
    22   22    4 2
    23   23    3 2
    24   24   22 1
    25   25   17 1
    26   26    1 1
    27   27    1 1
    28   28    2 1
    29   29    2 1
    30   30    5 1
    31   31    6 1
    32   32    6 1
    33   33    7 1
    34   34    7 1
    35   35    8 1
    36   36    9 1
    37   37   11 1
    38   38   11 1
    39   39   12 1
    40   40   12 1
    41   41   14 1
    42   42   15 1
    43   43   15 1
    44   44   16 1
    45   45   16 1
    46   46   18 1
    47   47   18 1
    48   48   18 1
    49   49   19 1
    50   50   19 1
    51   51   19 1
    52   52   21 1
    53   53   25 1
    54    5   10 1
    55   13   14 1
    56   16   17 1
    57   23   24 1
@<TRIPOS>SUBSTRUCTURE
     1 RES1 1

@<TRIPOS>CRYSIN
  15.0340   15.0340    7.1870  90.0000  90.0000 120.0000 145 1

