# MOL2 file generated by ConQuest
# Please check atom types

@<TRIPOS>MOLECULE
LINDAN
    53    57     1
SMALL
NO_CHARGES
****
Generated from CSD

@<TRIPOS>ATOM
      1 C1         4.5394    5.7878   -0.7765 C.3       1 RES1    0.0000
      2 C2         4.1738    6.5769   -2.0489 C.3       1 RES1    0.0000
      3 C3         4.4140    5.7214   -3.2441 C.2       1 RES1    0.0000
      4 C4         4.6625    4.3213   -3.1751 C.2       1 RES1    0.0000
      5 C5         4.8286    3.5814   -1.8890 C.3       1 RES1    0.0000
      6 C6         4.5179    2.0882   -1.9603 C.3       1 RES1    0.0000
      7 C7         4.8740    1.4387   -0.6293 C.3       1 RES1    0.0000
      8 C8         4.1905    2.1122    0.5625 C.3       1 RES1    0.0000
      9 C9         4.4128    3.6478    0.5706 C.3       1 RES1    0.0000
     10 C10        4.0507    4.3186   -0.7742 C.3       1 RES1    0.0000
     11 C11        3.7221    4.2774    1.7889 C.3       1 RES1    0.0000
     12 C12        4.2072    3.6770    3.1141 C.3       1 RES1    0.0000
     13 C13        4.0388    2.1587    3.1233 C.3       1 RES1    0.0000
     14 C14        4.7306    1.5702    1.8867 C.3       1 RES1    0.0000
     15 C15        4.7163    0.0531    2.1397 C.3       1 RES1    0.0000
     16 C16        4.8788   -0.0531    3.6801 C.3       1 RES1    0.0000
     17 C17        4.8047    1.3895    4.2530 C.3       1 RES1    0.0000
     18 C18        2.5571    1.7854    3.2062 C.3       1 RES1    0.0000
     19 C19        2.5368    4.2748   -1.0388 C.3       1 RES1    0.0000
     20 C20        6.1418    1.9421    4.4647 C.1       1 RES1    0.0000
     21 C21        7.1981    2.4310    4.7224 C.1       1 RES1    0.0000
     22 N1         4.7438    3.8417   -4.3750 N.2       1 RES1    0.0000
     23 N2         4.3435    6.0841   -4.4969 N.2       1 RES1    0.0000
     24 O1         4.1236    1.3457    5.5081 O.3       1 RES1    0.0000
     25 O2         4.5562    4.9257   -5.2286 O.3       1 RES1    0.0000
     26 H1         5.6148    5.7945   -0.6787 H         1 RES1    0.0000
     27 H2         4.0985    6.2913    0.0713 H         1 RES1    0.0000
     28 H3         3.1271    6.8386   -2.0109 H         1 RES1    0.0000
     29 H4         4.7677    7.4762   -2.1144 H         1 RES1    0.0000
     30 H5         5.8825    3.5721   -1.6554 H         1 RES1    0.0000
     31 H6         5.0700    1.6206   -2.7621 H         1 RES1    0.0000
     32 H7         3.4592    1.9727   -2.1374 H         1 RES1    0.0000
     33 H8         5.9422    1.5170   -0.4970 H         1 RES1    0.0000
     34 H9         4.5896    0.3972   -0.6523 H         1 RES1    0.0000
     35 H10        3.1330    1.9129    0.4682 H         1 RES1    0.0000
     36 H11        5.4762    3.8072    0.6649 H         1 RES1    0.0000
     37 H12        3.9121    5.3402    1.7935 H         1 RES1    0.0000
     38 H13        2.6598    4.1008    1.7049 H         1 RES1    0.0000
     39 H14        5.2540    3.9121    3.2326 H         1 RES1    0.0000
     40 H15        3.6492    4.0941    3.9390 H         1 RES1    0.0000
     41 H16        5.7582    1.8717    1.7417 H         1 RES1    0.0000
     42 H17        5.5479   -0.4158    1.6359 H         1 RES1    0.0000
     43 H18        3.7938   -0.3998    1.8084 H         1 RES1    0.0000
     44 H19        4.0842   -0.6562    4.0943 H         1 RES1    0.0000
     45 H20        5.8323   -0.4902    3.9355 H         1 RES1    0.0000
     46 H21        2.0672    2.1294    2.3066 H         1 RES1    0.0000
     47 H22        2.4185    0.7187    3.3039 H         1 RES1    0.0000
     48 H23        2.1281    2.2835    4.0632 H         1 RES1    0.0000
     49 H24        2.0982    3.3237   -0.7754 H         1 RES1    0.0000
     50 H25        2.1257    5.0479   -0.4061 H         1 RES1    0.0000
     51 H26        2.3133    4.4993   -2.0719 H         1 RES1    0.0000
     52 H27        8.2197    2.7777    4.7189 H         1 RES1    0.0000
     53 H28        4.4737    2.0949    5.9821 H         1 RES1    0.0000
@<TRIPOS>BOND
     1    1    2 1
     2    2    3 1
     3    3    4 1
     4    4    5 1
     5    5    6 1
     6    6    7 1
     7    7    8 1
     8    8    9 1
     9    9   10 1
    10   10    1 1
    11   11    9 1
    12   12   11 1
    13   13   12 1
    14   14    8 1
    15   15   14 1
    16   16   15 1
    17   17   13 1
    18   18   13 1
    19   19   10 1
    20   20   17 1
    21   21   20 3
    22   22    4 2
    23   23    3 2
    24   24   17 1
    25   25   22 1
    26   26    1 1
    27   27    1 1
    28   28    2 1
    29   29    2 1
    30   30    5 1
    31   31    6 1
    32   32    6 1
    33   33    7 1
    34   34    7 1
    35   35    8 1
    36   36    9 1
    37   37   11 1
    38   38   11 1
    39   39   12 1
    40   40   12 1
    41   41   14 1
    42   42   15 1
    43   43   15 1
    44   44   16 1
    45   45   16 1
    46   46   18 1
    47   47   18 1
    48   48   18 1
    49   49   19 1
    50   50   19 1
    51   51   19 1
    52   52   21 1
    53   53   24 1
    54    5   10 1
    55   13   14 1
    56   16   17 1
    57   23   25 1
@<TRIPOS>SUBSTRUCTURE
     1 RES1 1

@<TRIPOS>CRYSIN
  11.9490   13.2840   11.5040  90.0000  90.0000  90.0000  19 1

