# MOL2 file generated by ConQuest
# Please check atom types

@<TRIPOS>MOLECULE
LINHUL
    54    58     2
SMALL
NO_CHARGES
****
Generated from CSD

@<TRIPOS>ATOM
      1 C1         3.7464    2.3724    2.8718 C.3       1 RES1    0.0000
      2 C2         4.6446    3.2122    3.7870 C.3       1 RES1    0.0000
      3 C3         3.9836    4.5681    3.6287 C.3       1 RES1    0.0000
      4 N1         4.2155    5.5180    4.7824 N.pl3     1 RES1    0.0000
      5 O1         3.8396    6.6653    4.6443 O.2       1 RES1    0.0000
      6 O2         4.7461    5.1022    5.7897 O.2       1 RES1    0.0000
      7 C4         4.4129    5.1755    2.2920 C.3       1 RES1    0.0000
      8 C5         3.5123    4.3826    1.3497 C.3       1 RES1    0.0000
      9 C6         2.1567    4.6733    1.9815 C.3       1 RES1    0.0000
     10 C7         2.4386    4.2319    3.4020 C.3       1 RES1    0.0000
     11 N2         1.5311    4.8557    4.4353 N.pl3     1 RES1    0.0000
     12 O3         1.6749    4.5173    5.5889 O.2       1 RES1    0.0000
     13 O4         0.7010    5.6742    4.0680 O.2       1 RES1    0.0000
     14 C8         2.3802    2.7134    3.4658 C.3       1 RES1    0.0000
     15 C9         3.8340    2.8791    1.4241 C.3       1 RES1    0.0000
     16 C10       -0.2629    1.8637   -4.5014 C.3       2 RES2    0.0000
     17 C11        0.4265    0.9167   -3.5343 C.3       2 RES2    0.0000
     18 C12       -0.0853    1.4891   -2.2188 C.3       2 RES2    0.0000
     19 N3         0.7836    1.1814   -1.0273 N.pl3     2 RES2    0.0000
     20 O5         0.4259    1.6347    0.0614 O.2       2 RES2    0.0000
     21 O6         1.7822    0.4826   -1.1749 O.2       2 RES2    0.0000
     22 C13       -1.5245    1.0174   -1.9933 C.3       2 RES2    0.0000
     23 C14       -2.2561    1.9680   -2.9379 C.3       2 RES2    0.0000
     24 C15       -1.7330    3.3166   -2.4113 C.3       2 RES2    0.0000
     25 C16       -0.2428    3.0493   -2.4916 C.3       2 RES2    0.0000
     26 N4         0.5954    3.9173   -1.5764 N.pl3     2 RES2    0.0000
     27 O7         1.8016    3.7153   -1.5705 O.2       2 RES2    0.0000
     28 O8         0.0401    4.7786   -0.9093 O.2       2 RES2    0.0000
     29 C17        0.2092    3.2096   -3.9476 C.3       2 RES2    0.0000
     30 C18       -1.7999    1.7516   -4.3916 C.3       2 RES2    0.0000
     31 H1         3.9589    1.4367    2.8399 H         1 RES1    0.0000
     32 H2         5.5537    3.2215    3.4788 H         1 RES1    0.0000
     33 H3         4.6172    2.9039    4.6950 H         1 RES1    0.0000
     34 H4         5.3429    5.0212    2.1114 H         1 RES1    0.0000
     35 H5         4.2309    6.1166    2.2519 H         1 RES1    0.0000
     36 H6         3.5899    4.6119    0.4204 H         1 RES1    0.0000
     37 H7         1.4563    4.1550    1.5800 H         1 RES1    0.0000
     38 H8         1.9326    5.6060    1.9342 H         1 RES1    0.0000
     39 H9         2.2919    2.3961    4.3679 H         1 RES1    0.0000
     40 H10        1.6641    2.3644    2.9309 H         1 RES1    0.0000
     41 H11        4.7226    2.7309    1.0923 H         1 RES1    0.0000
     42 H12        3.2059    2.3959    0.8833 H         1 RES1    0.0000
     43 H13       -0.0617    1.7089   -5.4283 H         2 RES2    0.0000
     44 H14        0.1457    0.0080   -3.6618 H         2 RES2    0.0000
     45 H15        1.3830    0.9679   -3.6004 H         2 RES2    0.0000
     46 H16       -1.8004    1.1366   -1.0817 H         2 RES2    0.0000
     47 H17       -1.6441    0.0993   -2.2460 H         2 RES2    0.0000
     48 H18       -3.2116    1.8734   -2.9533 H         2 RES2    0.0000
     49 H19       -2.0194    3.4857   -1.5103 H         2 RES2    0.0000
     50 H20       -1.9972    4.0487   -2.9734 H         2 RES2    0.0000
     51 H21        1.1618    3.3106   -4.0172 H         2 RES2    0.0000
     52 H22       -0.2235    3.9486   -4.3798 H         2 RES2    0.0000
     53 H23       -2.0723    0.8775   -4.6797 H         2 RES2    0.0000
     54 H24       -2.2074    2.4150   -4.9536 H         2 RES2    0.0000
@<TRIPOS>BOND
     1    1    2 1
     2    2    3 1
     3    3    4 1
     4    4    5 2
     5    6    4 2
     6    7    3 1
     7    8    7 1
     8    9    8 1
     9   10    3 1
    10   11   10 1
    11   12   11 2
    12   13   11 2
    13   14    1 1
    14   15    1 1
    15   16   17 1
    16   17   18 1
    17   18   19 1
    18   19   20 2
    19   21   19 2
    20   22   18 1
    21   23   22 1
    22   24   23 1
    23   25   18 1
    24   26   25 1
    25   27   26 2
    26   28   26 2
    27   29   16 1
    28   30   16 1
    29   31    1 1
    30   32    2 1
    31   33    2 1
    32   34    7 1
    33   35    7 1
    34   36    8 1
    35   37    9 1
    36   38    9 1
    37   39   14 1
    38   40   14 1
    39   41   15 1
    40   42   15 1
    41   43   16 1
    42   44   17 1
    43   45   17 1
    44   46   22 1
    45   47   22 1
    46   48   23 1
    47   49   24 1
    48   50   24 1
    49   51   29 1
    50   52   29 1
    51   53   30 1
    52   54   30 1
    53    8   15 1
    54    9   10 1
    55   10   14 1
    56   23   30 1
    57   24   25 1
    58   25   29 1
@<TRIPOS>SUBSTRUCTURE
     1 RES1 1
     2 RES2 16

@<TRIPOS>CRYSIN
   6.7180   12.2700   13.2730  64.1900  81.7600  89.2500   2 1

