# MOL2 file generated by ConQuest
# Please check atom types

@<TRIPOS>MOLECULE
LINJUN
    17    18     1
SMALL
NO_CHARGES
****
Generated from CSD

@<TRIPOS>ATOM
      1 O1         9.3718    0.7324    3.1995 O.3       1 RES1    0.0000
      2 O2         9.7641    0.3831    5.9494 O.2       1 RES1    0.0000
      3 O3         6.8855    2.0921    2.8436 O.2       1 RES1    0.0000
      4 N1         8.5761    1.2620    4.1860 N.am      1 RES1    0.0000
      5 C1         8.7990    0.9841    5.5236 C.2       1 RES1    0.0000
      6 C2         7.3218    1.8254    3.9398 C.2       1 RES1    0.0000
      7 C3         7.6224    1.5137    6.2194 C.ar      1 RES1    0.0000
      8 C4         6.7222    2.0095    5.2695 C.ar      1 RES1    0.0000
      9 C5         5.5075    2.5278    5.6491 C.ar      1 RES1    0.0000
     10 C6         5.2155    2.5428    6.9947 C.ar      1 RES1    0.0000
     11 C7         6.1049    2.0620    7.9463 C.ar      1 RES1    0.0000
     12 C8         7.3194    1.5362    7.5587 C.ar      1 RES1    0.0000
     13 H1         4.8720    2.8921    4.9406 H         1 RES1    0.0000
     14 H2         4.3486    2.8170    7.2918 H         1 RES1    0.0000
     15 H3         5.6863    2.1034    8.9439 H         1 RES1    0.0000
     16 H4         7.9447    1.1644    8.0543 H         1 RES1    0.0000
     17 H5        10.0469    1.3897    2.8595 H         1 RES1    0.0000
@<TRIPOS>BOND
     1    1    4 1
     2    2    5 2
     3    3    6 2
     4    4    5 1
     5    5    7 1
     6    6    4 1
     7    7    8 ar
     8    8    6 1
     9    9    8 ar
    10   10    9 ar
    11   11   10 ar
    12   12    7 ar
    13   13    9 1
    14   14   10 1
    15   15   11 1
    16   16   12 1
    17   17    1 1
    18   11   12 ar
@<TRIPOS>SUBSTRUCTURE
     1 RES1 1

@<TRIPOS>CRYSIN
  11.5490    3.7560   16.4420  90.0000 104.9400  90.0000  14 1

