# MOL2 file generated by ConQuest
# Please check atom types

@<TRIPOS>MOLECULE
LINJAT
    29    31     1
SMALL
NO_CHARGES
****
Generated from CSD

@<TRIPOS>ATOM
      1 C1         7.7088    3.1298    6.5653 C.3       1 RES1    0.0000
      2 C2         8.1189    1.6715    6.7923 C.3       1 RES1    0.0000
      3 C3         8.3361    1.2408    5.3430 C.3       1 RES1    0.0000
      4 N1         8.2444   -0.2458    5.1202 N.pl3     1 RES1    0.0000
      5 O1         8.0637   -0.9657    6.0780 O.2       1 RES1    0.0000
      6 O2         8.3949   -0.6340    3.9810 O.2       1 RES1    0.0000
      7 C4         9.6789    1.7802    4.8682 C.3       1 RES1    0.0000
      8 C5         9.3140    3.2386    4.5734 C.3       1 RES1    0.0000
      9 C6         8.0988    3.0135    3.6460 C.3       1 RES1    0.0000
     10 C7         7.2773    2.0869    4.5097 C.3       1 RES1    0.0000
     11 N2         6.2621    1.2626    3.7636 N.pl3     1 RES1    0.0000
     12 O3         6.1044    1.4551    2.5829 O.2       1 RES1    0.0000
     13 O4         5.6312    0.4426    4.4114 O.2       1 RES1    0.0000
     14 C8         6.5661    2.9406    5.5811 C.3       1 RES1    0.0000
     15 C9         8.8114    3.9270    5.8524 C.3       1 RES1    0.0000
     16 N3         9.9771    4.1978    6.8020 N.pl3     1 RES1    0.0000
     17 O5        11.0410    4.4577    6.3064 O.2       1 RES1    0.0000
     18 O6         9.7627    4.2260    7.9868 O.2       1 RES1    0.0000
     19 H1         7.5138    3.6040    7.3778 H         1 RES1    0.0000
     20 H2         7.4192    1.1658    7.2117 H         1 RES1    0.0000
     21 H3         8.9225    1.5986    7.3113 H         1 RES1    0.0000
     22 H4         9.9893    1.3257    4.0806 H         1 RES1    0.0000
     23 H5        10.3456    1.7204    5.5562 H         1 RES1    0.0000
     24 H6        10.0316    3.7704    4.2218 H         1 RES1    0.0000
     25 H7         8.3526    2.5970    2.8196 H         1 RES1    0.0000
     26 H8         7.6371    3.8345    3.4619 H         1 RES1    0.0000
     27 H9         5.8305    2.4686    5.9784 H         1 RES1    0.0000
     28 H10        6.2557    3.7769    5.2267 H         1 RES1    0.0000
     29 H11        8.4143    4.7578    5.5825 H         1 RES1    0.0000
@<TRIPOS>BOND
     1    1    2 1
     2    2    3 1
     3    3    4 1
     4    4    5 2
     5    6    4 2
     6    7    3 1
     7    8    7 1
     8    9    8 1
     9   10    3 1
    10   11   10 1
    11   12   11 2
    12   13   11 2
    13   14    1 1
    14   15    1 1
    15   16   15 1
    16   17   16 2
    17   18   16 2
    18   19    1 1
    19   20    2 1
    20   21    2 1
    21   22    7 1
    22   23    7 1
    23   24    8 1
    24   25    9 1
    25   26    9 1
    26   27   14 1
    27   28   14 1
    28   29   15 1
    29    8   15 1
    30    9   10 1
    31   10   14 1
@<TRIPOS>SUBSTRUCTURE
     1 RES1 1

@<TRIPOS>CRYSIN
   7.1690   10.8750   13.8420  90.0000  90.0000  90.0000  33 6

