# MOL2 file generated by ConQuest
# Please check atom types

@<TRIPOS>MOLECULE
LINVUZ
    46    46     2
SMALL
NO_CHARGES
****
Generated from CSD

@<TRIPOS>ATOM
      1 O1         2.6107    2.8211   12.5823 O.2       1 RES1    0.0000
      2 O2         2.4673    4.0725   14.3402 O.2       1 RES1    0.0000
      3 O3        -4.6823    1.2677   17.3453 O.3       1 RES1    0.0000
      4 N1         0.0510    0.8076   12.1868 N.1       1 RES1    0.0000
      5 N2         2.0489    3.1935   13.5973 N.pl3     1 RES1    0.0000
      6 C1         0.3742    1.5688   12.9585 C.1       1 RES1    0.0000
      7 C2         0.7785    2.5292   13.9351 C.2       1 RES1    0.0000
      8 C3         0.1418    2.8771   15.0622 C.2       1 RES1    0.0000
      9 C4        -1.1036    2.4284   15.6162 C.ar      1 RES1    0.0000
     10 C5        -1.9726    1.5021   15.0142 C.ar      1 RES1    0.0000
     11 C6        -3.1410    1.1347   15.6130 C.ar      1 RES1    0.0000
     12 C7        -3.5009    1.6781   16.8442 C.ar      1 RES1    0.0000
     13 C8        -2.6591    2.5815   17.4798 C.ar      1 RES1    0.0000
     14 C9        -1.4907    2.9498   16.8538 C.ar      1 RES1    0.0000
     15 C10       -5.1374    1.8375   18.5829 C.3       1 RES1    0.0000
     16 H1         0.6349    3.5258   15.6578 H         1 RES1    0.0000
     17 H2        -1.7729    1.1325   14.1481 H         1 RES1    0.0000
     18 H3        -3.7801    0.5354   15.1567 H         1 RES1    0.0000
     19 H4        -2.8651    2.9374   18.3219 H         1 RES1    0.0000
     20 H5        -0.9116    3.5765   17.3133 H         1 RES1    0.0000
     21 H6        -5.2589    2.8252   18.4115 H         1 RES1    0.0000
     22 H7        -4.4346    1.6190   19.3161 H         1 RES1    0.0000
     23 H8        -5.9497    1.4378   18.7382 H         1 RES1    0.0000
     24 O4        -3.2795    5.8612   11.4184 O.2       2 RES2    0.0000
     25 O5        -4.3737    5.0161    9.7437 O.2       2 RES2    0.0000
     26 O6         1.6575    0.3882    6.5385 O.3       2 RES2    0.0000
     27 N3        -0.2754    4.5687   11.7882 N.1       2 RES2    0.0000
     28 N4        -3.3828    5.1227   10.4482 N.pl3     2 RES2    0.0000
     29 C11       -1.1332    4.4677   11.0677 C.1       2 RES2    0.0000
     30 C12       -2.1961    4.3107   10.1264 C.2       2 RES2    0.0000
     31 C13       -2.2046    3.5648    9.0056 C.2       2 RES2    0.0000
     32 C14       -1.2017    2.7280    8.4277 C.ar      2 RES2    0.0000
     33 C15        0.0894    2.5267    8.9464 C.ar      2 RES2    0.0000
     34 C16        1.0034    1.7437    8.3044 C.ar      2 RES2    0.0000
     35 C17        0.6569    1.1236    7.0940 C.ar      2 RES2    0.0000
     36 C18       -0.6038    1.2766    6.5689 C.ar      2 RES2    0.0000
     37 C19       -1.5137    2.0742    7.2301 C.ar      2 RES2    0.0000
     38 C20        1.4125   -0.2319    5.2721 C.3       2 RES2    0.0000
     39 H9        -3.0695    3.6228    8.5782 H         2 RES2    0.0000
     40 H10        0.2899    2.8944    9.7741 H         2 RES2    0.0000
     41 H11        1.9323    1.6216    8.6390 H         2 RES2    0.0000
     42 H12       -0.8557    0.9125    5.7412 H         2 RES2    0.0000
     43 H13       -2.3761    2.2098    6.8267 H         2 RES2    0.0000
     44 H14        2.2958   -0.5233    5.0175 H         2 RES2    0.0000
     45 H15        1.1482    0.4120    4.5517 H         2 RES2    0.0000
     46 H16        0.7388   -0.8901    5.3474 H         2 RES2    0.0000
@<TRIPOS>BOND
     1    1    5 2
     2    2    5 2
     3    3   12 1
     4    4    6 3
     5    5    7 1
     6    6    7 1
     7    7    8 2
     8    8    9 1
     9    9   10 ar
    10   10   11 ar
    11   11   12 ar
    12   12   13 ar
    13   13   14 ar
    14   14    9 ar
    15   15    3 1
    16   16    8 1
    17   17   10 1
    18   18   11 1
    19   19   13 1
    20   20   14 1
    21   21   15 1
    22   22   15 1
    23   23   15 1
    24   24   28 2
    25   25   28 2
    26   26   35 1
    27   27   29 3
    28   28   30 1
    29   29   30 1
    30   30   31 2
    31   31   32 1
    32   32   33 ar
    33   33   34 ar
    34   34   35 ar
    35   35   36 ar
    36   36   37 ar
    37   37   32 ar
    38   38   26 1
    39   39   31 1
    40   40   33 1
    41   41   34 1
    42   42   36 1
    43   43   37 1
    44   44   38 1
    45   45   38 1
    46   46   38 1
@<TRIPOS>SUBSTRUCTURE
     1 RES1 1
     2 RES2 24

@<TRIPOS>CRYSIN
   6.8430    9.1300   16.0930  89.9100  95.8200  90.4000   2 1

