# MOL2 file generated by ConQuest
# Please check atom types

@<TRIPOS>MOLECULE
LIPCIY
    28    29     1
SMALL
NO_CHARGES
****
Generated from CSD

@<TRIPOS>ATOM
      1 C1         4.0721    9.9019    7.5134 C.ar      1 RES1    0.0000
      2 C2         5.4279    9.4461    7.8434 C.2       1 RES1    0.0000
      3 C3         6.3811    9.1214    6.7189 C.3       1 RES1    0.0000
      4 H1         6.9628    8.3678    6.9936 H         1 RES1    0.0000
      5 H2         6.9604    9.9053    6.5477 H         1 RES1    0.0000
      6 C4         5.6567    8.7499    5.4394 C.3       1 RES1    0.0000
      7 H3         6.3151    8.6310    4.7096 H         1 RES1    0.0000
      8 H4         5.1817    7.8909    5.5663 H         1 RES1    0.0000
      9 C5         4.6660    9.8193    5.0520 C.3       1 RES1    0.0000
     10 H5         4.1768    9.5388    4.2385 H         1 RES1    0.0000
     11 H6         5.1478   10.6603    4.8470 H         1 RES1    0.0000
     12 C6         3.6855   10.0577    6.1763 C.ar      1 RES1    0.0000
     13 C7         2.3729   10.4177    5.8725 C.ar      1 RES1    0.0000
     14 H7         2.1084   10.5190    4.9662 H         1 RES1    0.0000
     15 C8         1.4516   10.6280    6.8894 C.ar      1 RES1    0.0000
     16 C9         1.8386   10.5125    8.2256 C.ar      1 RES1    0.0000
     17 H8         1.2139   10.6856    8.9201 H         1 RES1    0.0000
     18 C10        3.1255   10.1485    8.5314 C.ar      1 RES1    0.0000
     19 H9         3.3837   10.0616    9.4416 H         1 RES1    0.0000
     20 C11       -0.3177   10.9403    5.3170 C.3       1 RES1    0.0000
     21 H10        0.1370   11.6474    4.8148 H         1 RES1    0.0000
     22 H11       -1.2846   11.0981    5.2999 H         1 RES1    0.0000
     23 H12       -0.1200   10.0708    4.9087 H         1 RES1    0.0000
     24 N1         5.7231    9.3581    9.0963 N.2       1 RES1    0.0000
     25 N2         7.0228    8.8558    9.3776 N.pl3     1 RES1    0.0000
     26 O1         7.9034    9.6686    9.5799 O.2       1 RES1    0.0000
     27 O2         7.1419    7.6536    9.5102 O.2       1 RES1    0.0000
     28 O3         0.1417   10.9468    6.6718 O.3       1 RES1    0.0000
@<TRIPOS>BOND
     1    1    2 1
     2    2    3 1
     3    3    4 1
     4    5    3 1
     5    6    3 1
     6    7    6 1
     7    8    6 1
     8    9    6 1
     9   10    9 1
    10   11    9 1
    11   12    1 ar
    12   13   12 ar
    13   14   13 1
    14   15   13 ar
    15   16   15 ar
    16   17   16 1
    17   18    1 ar
    18   19   18 1
    19   20   21 1
    20   22   20 1
    21   23   20 1
    22   24    2 2
    23   25   24 1
    24   26   25 2
    25   27   25 2
    26   28   15 1
    27    9   12 1
    28   16   18 ar
    29   20   28 1
@<TRIPOS>SUBSTRUCTURE
     1 RES1 1

@<TRIPOS>CRYSIN
  13.0629   11.4911   14.3136  90.0000 101.6080  90.0000  15 1

