# MOL2 file generated by ConQuest
# Please check atom types

@<TRIPOS>MOLECULE
LIPJOL
    41    44     1
SMALL
NO_CHARGES
****
Generated from CSD

@<TRIPOS>ATOM
      1 O1         1.3851   -0.2132    3.6724 O.3       1 RES1    0.0000
      2 O2         0.0144    3.8104    1.5811 O.2       1 RES1    0.0000
      3 O3        -0.0335    5.6508    0.4698 O.2       1 RES1    0.0000
      4 N1         3.8743    2.0474    1.2076 N.3       1 RES1    0.0000
      5 H1         4.3879    2.6386    0.8352 H         1 RES1    0.0000
      6 N2         0.3183    4.4784    0.6104 N.pl3     1 RES1    0.0000
      7 C1         4.3833    1.4895    2.3835 C.ar      1 RES1    0.0000
      8 C2         5.7677    1.4651    2.5950 C.ar      1 RES1    0.0000
      9 H2         6.3350    1.8502    1.9665 H         1 RES1    0.0000
     10 C3         6.3000    0.8770    3.7245 C.ar      1 RES1    0.0000
     11 H3         7.2211    0.8636    3.8510 H         1 RES1    0.0000
     12 C4         5.4608    0.3058    4.6716 C.ar      1 RES1    0.0000
     13 H4         5.8153   -0.0902    5.4347 H         1 RES1    0.0000
     14 C5         4.0905    0.3311    4.4708 C.ar      1 RES1    0.0000
     15 H5         3.5306   -0.0474    5.1095 H         1 RES1    0.0000
     16 C6         3.5320    0.9102    3.3331 C.ar      1 RES1    0.0000
     17 C7         2.0225    0.9558    3.1446 C.3       1 RES1    0.0000
     18 H6         1.6928    1.7199    3.6624 H         1 RES1    0.0000
     19 C8         1.6227   -1.3955    2.8978 C.3       1 RES1    0.0000
     20 H7         1.1688   -2.1470    3.3089 H         1 RES1    0.0000
     21 H8         2.5733   -1.5885    2.8866 H         1 RES1    0.0000
     22 C9         1.1264   -1.2232    1.4788 C.3       1 RES1    0.0000
     23 H9         0.1689   -1.0667    1.4829 H         1 RES1    0.0000
     24 H10        1.2999   -2.0308    0.9700 H         1 RES1    0.0000
     25 C10        1.8390   -0.0420    0.8282 C.3       1 RES1    0.0000
     26 H11        2.7862   -0.2358    0.7457 H         1 RES1    0.0000
     27 H12        1.4816    0.1060   -0.0613 H         1 RES1    0.0000
     28 C11        1.6413    1.2112    1.6787 C.3       1 RES1    0.0000
     29 H13        0.6923    1.4528    1.6488 H         1 RES1    0.0000
     30 C12        2.4612    2.4261    1.1986 C.3       1 RES1    0.0000
     31 H14        2.3282    3.1660    1.8270 H         1 RES1    0.0000
     32 C13        2.0794    2.8940   -0.2000 C.ar      1 RES1    0.0000
     33 C14        1.1066    3.8679   -0.4669 C.ar      1 RES1    0.0000
     34 C15        0.8065    4.3151   -1.7491 C.ar      1 RES1    0.0000
     35 H15        0.1564    4.9664   -1.8788 H         1 RES1    0.0000
     36 C16        1.4831    3.7826   -2.8260 C.ar      1 RES1    0.0000
     37 H16        1.2961    4.0725   -3.6898 H         1 RES1    0.0000
     38 C17        2.4455    2.8090   -2.6041 C.ar      1 RES1    0.0000
     39 H17        2.8992    2.4380   -3.3268 H         1 RES1    0.0000
     40 C18        2.7384    2.3831   -1.3211 C.ar      1 RES1    0.0000
     41 H18        3.3951    1.7355   -1.2010 H         1 RES1    0.0000
@<TRIPOS>BOND
     1    1   17 1
     2    2    6 2
     3    3    6 2
     4    4    5 1
     5    6   33 1
     6    7    4 1
     7    8    7 ar
     8    9    8 1
     9   10    8 ar
    10   11   10 1
    11   12   10 ar
    12   13   12 1
    13   14   12 ar
    14   15   14 1
    15   16    7 ar
    16   17   16 1
    17   18   17 1
    18   19    1 1
    19   20   19 1
    20   21   19 1
    21   22   19 1
    22   23   22 1
    23   24   22 1
    24   25   22 1
    25   26   25 1
    26   27   25 1
    27   28   17 1
    28   29   28 1
    29   30    4 1
    30   31   30 1
    31   32   30 1
    32   33   32 ar
    33   34   33 ar
    34   35   34 1
    35   36   34 ar
    36   37   36 1
    37   38   36 ar
    38   39   38 1
    39   40   32 ar
    40   41   40 1
    41   14   16 ar
    42   25   28 1
    43   28   30 1
    44   38   40 ar
@<TRIPOS>SUBSTRUCTURE
     1 RES1 1

@<TRIPOS>CRYSIN
   8.2315   10.0246   10.7097 115.3210  94.9260 105.2470   2 1

