# MOL2 file generated by ConQuest
# Please check atom types

@<TRIPOS>MOLECULE
LIPKAY
    84    90     2
SMALL
NO_CHARGES
****
Generated from CSD

@<TRIPOS>ATOM
      1 O1         3.6829   15.2160   -1.6466 O.3       1 RES1    0.0000
      2 O2         3.8822   15.3373    3.6298 O.3       1 RES1    0.0000
      3 O3        10.7135   17.2967    4.5476 O.2       1 RES1    0.0000
      4 O4         8.6028   17.2970    4.2001 O.2       1 RES1    0.0000
      5 N1         7.1250   13.7434    2.4713 N.3       1 RES1    0.0000
      6 H1         7.9022   13.3472    2.1734 H         1 RES1    0.0000
      7 N2         9.6342   16.7215    4.4981 N.pl3     1 RES1    0.0000
      8 C1         6.1804   14.0930    1.4844 C.ar      1 RES1    0.0000
      9 C2         6.1555   13.4018    0.2704 C.ar      1 RES1    0.0000
     10 H2         6.7293   12.6826    0.1339 H         1 RES1    0.0000
     11 C3         5.2798   13.7810   -0.7272 C.ar      1 RES1    0.0000
     12 H3         5.2564   13.3066   -1.5269 H         1 RES1    0.0000
     13 C4         4.4389   14.8620   -0.5438 C.ar      1 RES1    0.0000
     14 C5         4.4097   15.5133    0.6702 C.ar      1 RES1    0.0000
     15 H4         3.8164   16.2168    0.8072 H         1 RES1    0.0000
     16 C6         5.2730   15.1181    1.6977 C.ar      1 RES1    0.0000
     17 C7         5.1433   15.7626    3.0537 C.3       1 RES1    0.0000
     18 H5         5.1422   16.7368    2.9521 H         1 RES1    0.0000
     19 C8         4.1027   14.8403    4.9491 C.3       1 RES1    0.0000
     20 H6         3.4812   14.1245    5.1559 H         1 RES1    0.0000
     21 H7         3.9958   15.5470    5.6059 H         1 RES1    0.0000
     22 C9         5.5257   14.3292    4.9369 C.3       1 RES1    0.0000
     23 H8         5.5783   13.4406    4.5522 H         1 RES1    0.0000
     24 H9         5.9028   14.3131    5.8309 H         1 RES1    0.0000
     25 C10        6.2286   15.3556    4.0574 C.3       1 RES1    0.0000
     26 H10        6.4577   16.1358    4.6058 H         1 RES1    0.0000
     27 C11        7.4993   14.8657    3.3418 C.3       1 RES1    0.0000
     28 H11        7.8373   15.5928    2.7788 H         1 RES1    0.0000
     29 C12        8.5980   14.4494    4.2931 C.ar      1 RES1    0.0000
     30 C13        8.6953   13.1046    4.6728 C.ar      1 RES1    0.0000
     31 H12        8.0603   12.5011    4.3611 H         1 RES1    0.0000
     32 C14        9.7011   12.6491    5.4916 C.ar      1 RES1    0.0000
     33 H13        9.7380   11.7502    5.7256 H         1 RES1    0.0000
     34 C15       10.6596   13.5270    5.9684 C.ar      1 RES1    0.0000
     35 H14       11.3406   13.2167    6.5221 H         1 RES1    0.0000
     36 C16       10.6047   14.8366    5.6286 C.ar      1 RES1    0.0000
     37 H15       11.2506   15.4272    5.9434 H         1 RES1    0.0000
     38 C17        9.5845   15.2904    4.8106 C.ar      1 RES1    0.0000
     39 C18        2.8231   16.3339   -1.5098 C.3       1 RES1    0.0000
     40 H16        2.3481   16.4742   -2.3324 H         1 RES1    0.0000
     41 H17        3.3428   17.1141   -1.3019 H         1 RES1    0.0000
     42 H18        2.1952   16.1692   -0.8019 H         1 RES1    0.0000
     43 O5         1.8020    1.1035    0.4927 O.3       2 RES2    0.0000
     44 O6         1.2005    6.1035   -0.7645 O.3       2 RES2    0.0000
     45 O7        -5.7956    7.4063    0.2922 O.2       2 RES2    0.0000
     46 O8        -3.7038    7.0275    0.6436 O.2       2 RES2    0.0000
     47 N3        -1.8804    4.3974   -2.0879 N.3       2 RES2    0.0000
     48 H19       -2.5446    3.9908   -2.4181 H         2 RES2    0.0000
     49 N4        -4.6595    7.1594   -0.1095 N.pl3     2 RES2    0.0000
     50 C19       -0.9441    3.5959   -1.4234 C.ar      2 RES2    0.0000
     51 C20       -0.8201    2.2423   -1.7334 C.ar      2 RES2    0.0000
     52 H20       -1.3737    1.8667   -2.3806 H         2 RES2    0.0000
     53 C21        0.1116    1.4518   -1.0942 C.ar      2 RES2    0.0000
     54 H21        0.1992    0.5570   -1.3341 H         2 RES2    0.0000
     55 C22        0.9197    1.9795   -0.0959 C.ar      2 RES2    0.0000
     56 C23        0.8097    3.3170    0.2168 C.ar      2 RES2    0.0000
     57 H22        1.3459    3.6770    0.8858 H         2 RES2    0.0000
     58 C24       -0.0967    4.1388   -0.4574 C.ar      2 RES2    0.0000
     59 C25       -0.0532    5.6265   -0.2198 C.3       2 RES2    0.0000
     60 H23       -0.0872    5.8099    0.7429 H         2 RES2    0.0000
     61 C26        0.9780    7.2412   -1.5555 C.3       2 RES2    0.0000
     62 H24        1.6313    7.2976   -2.2699 H         2 RES2    0.0000
     63 H25        1.0252    8.0485   -1.0215 H         2 RES2    0.0000
     64 C27       -0.4059    7.0459   -2.1104 C.3       2 RES2    0.0000
     65 H26       -0.3972    6.4532   -2.8771 H         2 RES2    0.0000
     66 H27       -0.8045    7.8916   -2.3663 H         2 RES2    0.0000
     67 C28       -1.1501    6.4180   -0.9349 C.3       2 RES2    0.0000
     68 H28       -1.4555    7.1336   -0.3411 H         2 RES2    0.0000
     69 C29       -2.3543    5.5493   -1.3123 C.3       2 RES2    0.0000
     70 H29       -2.7734    5.2211   -0.4893 H         2 RES2    0.0000
     71 C30       -3.3871    6.3232   -2.1061 C.ar      2 RES2    0.0000
     72 C31       -3.3104    6.3262   -3.5002 C.ar      2 RES2    0.0000
     73 H30       -2.6298    5.8434   -3.9111 H         2 RES2    0.0000
     74 C32       -4.2036    7.0164   -4.2908 C.ar      2 RES2    0.0000
     75 H31       -4.1073    7.0085   -5.2166 H         2 RES2    0.0000
     76 C33       -5.2397    7.7201   -3.7114 C.ar      2 RES2    0.0000
     77 H32       -5.8420    8.1877   -4.2433 H         2 RES2    0.0000
     78 C34       -5.3724    7.7249   -2.3483 C.ar      2 RES2    0.0000
     79 H33       -6.0788    8.1807   -1.9502 H         2 RES2    0.0000
     80 C35       -4.4530    7.0506   -1.5691 C.ar      2 RES2    0.0000
     81 C36        2.3521    1.4479    1.7384 C.3       2 RES2    0.0000
     82 H34        2.9427    0.7491    2.0323 H         2 RES2    0.0000
     83 H35        1.6468    1.5618    2.3788 H         2 RES2    0.0000
     84 H36        2.8439    2.2686    1.6555 H         2 RES2    0.0000
@<TRIPOS>BOND
     1    1   13 1
     2    2   17 1
     3    3    7 2
     4    4    7 2
     5    5    6 1
     6    7   38 1
     7    8    5 1
     8    9    8 ar
     9   10    9 1
    10   11    9 ar
    11   12   11 1
    12   13   11 ar
    13   14   13 ar
    14   15   14 1
    15   16    8 ar
    16   17   16 1
    17   18   17 1
    18   19    2 1
    19   20   19 1
    20   21   19 1
    21   22   19 1
    22   23   22 1
    23   24   22 1
    24   25   17 1
    25   26   25 1
    26   27    5 1
    27   28   27 1
    28   29   27 1
    29   30   29 ar
    30   31   30 1
    31   32   30 ar
    32   33   32 1
    33   34   32 ar
    34   35   34 1
    35   36   34 ar
    36   37   36 1
    37   38   29 ar
    38   39    1 1
    39   40   39 1
    40   41   39 1
    41   42   39 1
    42   43   55 1
    43   44   59 1
    44   45   49 2
    45   46   49 2
    46   47   48 1
    47   49   80 1
    48   50   47 1
    49   51   50 ar
    50   52   51 1
    51   53   51 ar
    52   54   53 1
    53   55   53 ar
    54   56   55 ar
    55   57   56 1
    56   58   50 ar
    57   59   58 1
    58   60   59 1
    59   61   44 1
    60   62   61 1
    61   63   61 1
    62   64   61 1
    63   65   64 1
    64   66   64 1
    65   67   59 1
    66   68   67 1
    67   69   47 1
    68   70   69 1
    69   71   69 1
    70   72   71 ar
    71   73   72 1
    72   74   72 ar
    73   75   74 1
    74   76   74 ar
    75   77   76 1
    76   78   76 ar
    77   79   78 1
    78   80   71 ar
    79   81   43 1
    80   82   81 1
    81   83   81 1
    82   84   81 1
    83   14   16 ar
    84   22   25 1
    85   25   27 1
    86   36   38 ar
    87   56   58 ar
    88   64   67 1
    89   67   69 1
    90   78   80 ar
@<TRIPOS>SUBSTRUCTURE
     1 RES1 1
     2 RES2 43

@<TRIPOS>CRYSIN
  10.2180   17.6270   18.0314  90.0000  97.9320  90.0000  14 1

