# MOL2 file generated by ConQuest
# Please check atom types

@<TRIPOS>MOLECULE
LIPLAY
    52    53     1
SMALL
NO_CHARGES
****
Generated from CSD

@<TRIPOS>ATOM
      1 O1         9.8535    1.9749   -0.0019 O.3       1 RES1    0.0000
      2 H1         9.5909    2.6636   -0.5288 H         1 RES1    0.0000
      3 N1        10.9633    0.4299    1.7342 N.pl3     1 RES1    0.0000
      4 H2        10.5483    0.1690    1.0083 H         1 RES1    0.0000
      5 N2        10.4763    2.6490    1.1061 N.2       1 RES1    0.0000
      6 C1         9.6046   -0.4318    3.6682 C.3       1 RES1    0.0000
      7 H3         9.6293    0.3995    4.2055 H         1 RES1    0.0000
      8 H4         9.5687   -1.1965    4.2962 H         1 RES1    0.0000
      9 C2        10.8884   -0.5273    2.8423 C.3       1 RES1    0.0000
     10 H5        11.6639   -0.3809    3.4409 H         1 RES1    0.0000
     11 H6        10.9625   -1.4442    2.4754 H         1 RES1    0.0000
     12 C3        10.9596    1.7834    1.9383 C.2       1 RES1    0.0000
     13 C4        11.6326    2.3162    3.1573 C.ar      1 RES1    0.0000
     14 C5        10.9358    3.0656    4.0996 C.ar      1 RES1    0.0000
     15 H7        10.0181    3.2672    3.9580 H         1 RES1    0.0000
     16 C6        11.5767    3.5231    5.2525 C.ar      1 RES1    0.0000
     17 H8        11.0886    4.0283    5.8916 H         1 RES1    0.0000
     18 C7        12.9250    3.2467    5.4762 C.ar      1 RES1    0.0000
     19 C8        13.6083    2.4858    4.5312 C.ar      1 RES1    0.0000
     20 H9        14.5236    2.2798    4.6747 H         1 RES1    0.0000
     21 C9        12.9796    2.0211    3.3840 C.ar      1 RES1    0.0000
     22 H10       13.4655    1.5029    2.7527 H         1 RES1    0.0000
     23 C10       13.6498    3.7432    6.7019 C.3       1 RES1    0.0000
     24 H11       14.1179    2.9958    7.1293 H         1 RES1    0.0000
     25 H12       13.0039    4.1264    7.3315 H         1 RES1    0.0000
     26 H13       14.2990    4.4300    6.4424 H         1 RES1    0.0000
     27 O1B        8.0856    1.9749    6.4819 O.3       1 RES1    0.0000
     28 H1B        8.3482    2.6636    7.0087 H         1 RES1    0.0000
     29 N1B        6.9757    0.4299    4.7458 N.pl3     1 RES1    0.0000
     30 H2B        7.3908    0.1690    5.4717 H         1 RES1    0.0000
     31 N2B        7.4628    2.6490    5.3738 N.2       1 RES1    0.0000
     32 C1B        8.3345   -0.4318    2.8118 C.3       1 RES1    0.0000
     33 H3B        8.3098    0.3995    2.2745 H         1 RES1    0.0000
     34 H4B        8.3704   -1.1965    2.1838 H         1 RES1    0.0000
     35 C2B        7.0507   -0.5273    3.6377 C.3       1 RES1    0.0000
     36 H5B        6.2752   -0.3809    3.0391 H         1 RES1    0.0000
     37 H6B        6.9766   -1.4442    4.0046 H         1 RES1    0.0000
     38 C3B        6.9795    1.7834    4.5417 C.2       1 RES1    0.0000
     39 C4B        6.3065    2.3162    3.3227 C.ar      1 RES1    0.0000
     40 C5B        7.0033    3.0656    2.3804 C.ar      1 RES1    0.0000
     41 H7B        7.9210    3.2672    2.5220 H         1 RES1    0.0000
     42 C6B        6.3624    3.5231    1.2274 C.ar      1 RES1    0.0000
     43 H8B        6.8505    4.0283    0.5884 H         1 RES1    0.0000
     44 C7B        5.0141    3.2467    1.0037 C.ar      1 RES1    0.0000
     45 C8B        4.3308    2.4858    1.9488 C.ar      1 RES1    0.0000
     46 H9B        3.4155    2.2798    1.8053 H         1 RES1    0.0000
     47 C9B        4.9595    2.0211    3.0960 C.ar      1 RES1    0.0000
     48 H10B       4.4735    1.5029    3.7273 H         1 RES1    0.0000
     49 C10B       4.2893    3.7432   -0.2219 C.3       1 RES1    0.0000
     50 H11B       3.8212    2.9958   -0.6493 H         1 RES1    0.0000
     51 H12B       4.9352    4.1264   -0.8515 H         1 RES1    0.0000
     52 H13B       3.6400    4.4300    0.0376 H         1 RES1    0.0000
@<TRIPOS>BOND
     1    1    2 1
     2    3    4 1
     3    5    1 1
     4    6    7 1
     5    8    6 1
     6    9    3 1
     7   10    9 1
     8   11    9 1
     9   12    3 1
    10   13   12 1
    11   14   13 ar
    12   15   14 1
    13   16   14 ar
    14   17   16 1
    15   18   16 ar
    16   19   18 ar
    17   20   19 1
    18   21   13 ar
    19   22   21 1
    20   23   18 1
    21   24   23 1
    22   25   23 1
    23   26   23 1
    24   27   28 1
    25   29   30 1
    26   31   27 1
    27   32    6 1
    28   33   32 1
    29   34   32 1
    30   35   29 1
    31   36   35 1
    32   37   35 1
    33   38   29 1
    34   39   38 1
    35   40   39 ar
    36   41   40 1
    37   42   40 ar
    38   43   42 1
    39   44   42 ar
    40   45   44 ar
    41   46   45 1
    42   47   39 ar
    43   48   47 1
    44   49   44 1
    45   50   49 1
    46   51   49 1
    47   52   49 1
    48    5   12 2
    49    6    9 1
    50   19   21 ar
    51   31   38 2
    52   32   35 1
    53   45   47 ar
@<TRIPOS>SUBSTRUCTURE
     1 RES1 1

@<TRIPOS>CRYSIN
  19.8540    7.1601   13.5140  90.0000 106.4630  90.0000  15 1

