# MOL2 file generated by ConQuest
# Please check atom types

@<TRIPOS>MOLECULE
LIPTOV
    31    34     1
SMALL
NO_CHARGES
****
Generated from CSD

@<TRIPOS>ATOM
      1 O1         6.1705    3.6887    0.6757 O.3       1 RES1    0.0000
      2 N1        10.9230   -0.9539    1.5772 N.2       1 RES1    0.0000
      3 N2         9.1787   -1.8747    0.1724 N.2       1 RES1    0.0000
      4 N3         9.2623    0.3855    0.9764 N.pl3     1 RES1    0.0000
      5 N4        10.0493    1.1601    1.7675 N.2       1 RES1    0.0000
      6 N5         6.3401    2.3249    0.6867 N.2       1 RES1    0.0000
      7 N6         7.3829    4.3333    0.4412 N.2       1 RES1    0.0000
      8 C1        11.0344    0.3030    2.0889 C.2       1 RES1    0.0000
      9 C2         9.7884   -0.8986    0.8775 C.2       1 RES1    0.0000
     10 C3         8.0475   -1.5248   -0.4193 C.2       1 RES1    0.0000
     11 H1         7.5873   -2.1905   -0.9173 H         1 RES1    0.0000
     12 C4         7.4719   -0.2322   -0.3656 C.2       1 RES1    0.0000
     13 H2         6.6574   -0.0485   -0.8186 H         1 RES1    0.0000
     14 C5         8.1064    0.7494    0.3496 C.2       1 RES1    0.0000
     15 C6        12.1708    0.7226    2.9204 C.ar      1 RES1    0.0000
     16 C7        13.1353   -0.2211    3.2857 C.ar      1 RES1    0.0000
     17 H3        13.0290   -1.1289    3.0295 H         1 RES1    0.0000
     18 C8        14.2507    0.1639    4.0229 C.ar      1 RES1    0.0000
     19 H4        14.9039   -0.4807    4.2687 H         1 RES1    0.0000
     20 C9        14.4092    1.4935    4.3999 C.ar      1 RES1    0.0000
     21 H5        15.1765    1.7599    4.8930 H         1 RES1    0.0000
     22 C10       13.4402    2.4323    4.0526 C.ar      1 RES1    0.0000
     23 H6        13.5431    3.3383    4.3216 H         1 RES1    0.0000
     24 C11       12.3236    2.0538    3.3148 C.ar      1 RES1    0.0000
     25 H7        11.6666    2.6994    3.0795 H         1 RES1    0.0000
     26 C12        7.6177    2.1281    0.4715 C.2       1 RES1    0.0000
     27 C13        8.2846    3.3918    0.3167 C.2       1 RES1    0.0000
     28 C14        9.7148    3.6979    0.0248 C.3       1 RES1    0.0000
     29 H8         9.7895    4.6113   -0.3219 H         1 RES1    0.0000
     30 H9        10.0544    3.0658   -0.6432 H         1 RES1    0.0000
     31 H10       10.2402    3.6170    0.8476 H         1 RES1    0.0000
@<TRIPOS>BOND
     1    1    6 1
     2    2    8 1
     3    3    9 1
     4    4    5 1
     5    5    8 2
     6    6   26 2
     7    7    1 1
     8    8   15 1
     9    9    2 2
    10   10    3 2
    11   11   10 1
    12   12   10 1
    13   13   12 1
    14   14    4 1
    15   15   16 ar
    16   16   17 1
    17   18   16 ar
    18   19   18 1
    19   20   18 ar
    20   21   20 1
    21   22   20 ar
    22   23   22 1
    23   24   15 ar
    24   25   24 1
    25   26   14 1
    26   27    7 2
    27   28   27 1
    28   29   28 1
    29   30   28 1
    30   31   28 1
    31    4    9 1
    32   12   14 2
    33   22   24 ar
    34   26   27 1
@<TRIPOS>SUBSTRUCTURE
     1 RES1 1

@<TRIPOS>CRYSIN
  11.1397   15.6579    7.3952  90.0000 101.3320  90.0000  14 1

