# MOL2 file generated by ConQuest
# Please check atom types

@<TRIPOS>MOLECULE
LIPVEN
    34    36     1
SMALL
NO_CHARGES
****
Generated from CSD

@<TRIPOS>ATOM
      1 O1         4.8881    0.3693    2.2165 O.3       1 RES1    0.0000
      2 H1         4.3520    0.8778    2.5719 H         1 RES1    0.0000
      3 O2        -0.2485    4.8686    9.1995 O.2       1 RES1    0.0000
      4 O3        -1.7161    6.1015    8.3300 O.2       1 RES1    0.0000
      5 N1        -0.7701    5.3780    8.2536 N.pl3     1 RES1    0.0000
      6 C1         5.6411   -0.2321    3.1700 C.ar      1 RES1    0.0000
      7 C2         6.6041   -1.1221    2.8658 C.ar      1 RES1    0.0000
      8 H2         6.7637   -1.3263    1.9723 H         1 RES1    0.0000
      9 C3         7.3592   -1.7372    3.8358 C.ar      1 RES1    0.0000
     10 H3         8.0077   -2.3550    3.5918 H         1 RES1    0.0000
     11 C4         7.1578   -1.4447    5.1791 C.ar      1 RES1    0.0000
     12 H4         7.6742   -1.8574    5.8331 H         1 RES1    0.0000
     13 C5         6.1711   -0.5240    5.5391 C.ar      1 RES1    0.0000
     14 C6         5.8447   -0.1429    6.8559 C.ar      1 RES1    0.0000
     15 H5         6.3018   -0.5188    7.5731 H         1 RES1    0.0000
     16 C7         4.8776    0.7599    7.0818 C.ar      1 RES1    0.0000
     17 H6         4.6758    1.0089    7.9552 H         1 RES1    0.0000
     18 C8         4.1555    1.3400    6.0019 C.ar      1 RES1    0.0000
     19 N2         4.4265    1.0037    4.7554 N.ar      1 RES1    0.0000
     20 C9         5.3928    0.1080    4.5277 C.ar      1 RES1    0.0000
     21 C10        3.1007    2.2966    6.2698 C.2       1 RES1    0.0000
     22 H7         2.8703    2.4484    7.1572 H         1 RES1    0.0000
     23 C11        2.4394    2.9739    5.3334 C.2       1 RES1    0.0000
     24 H8         2.6888    2.8140    4.4516 H         1 RES1    0.0000
     25 C12        1.3746    3.9328    5.5385 C.ar      1 RES1    0.0000
     26 C13        0.8172    4.2087    6.8011 C.ar      1 RES1    0.0000
     27 H9         1.1374    3.7767    7.5599 H         1 RES1    0.0000
     28 C14       -0.1991    5.1181    6.9030 C.ar      1 RES1    0.0000
     29 C15       -0.7250    5.7813    5.8331 C.ar      1 RES1    0.0000
     30 H10       -1.4274    6.3826    5.9315 H         1 RES1    0.0000
     31 C16       -0.1661    5.5200    4.5941 C.ar      1 RES1    0.0000
     32 H11       -0.4874    5.9680    3.8461 H         1 RES1    0.0000
     33 C17        0.8439    4.6200    4.4503 C.ar      1 RES1    0.0000
     34 H12        1.1900    4.4596    3.6021 H         1 RES1    0.0000
@<TRIPOS>BOND
     1    1    2 1
     2    3    5 2
     3    4    5 2
     4    5   28 1
     5    6    1 1
     6    7    6 ar
     7    8    7 1
     8    9    7 ar
     9   10    9 1
    10   11    9 ar
    11   12   11 1
    12   13   11 ar
    13   14   13 ar
    14   15   14 1
    15   16   14 ar
    16   17   16 1
    17   18   16 ar
    18   19   18 ar
    19   20    6 ar
    20   21   18 1
    21   22   21 1
    22   23   21 2
    23   24   23 1
    24   25   23 1
    25   26   25 ar
    26   27   26 1
    27   28   26 ar
    28   29   28 ar
    29   30   29 1
    30   31   29 ar
    31   32   31 1
    32   33   25 ar
    33   34   33 1
    34   13   20 ar
    35   19   20 ar
    36   31   33 ar
@<TRIPOS>SUBSTRUCTURE
     1 RES1 1

@<TRIPOS>CRYSIN
  20.3346    4.7167   15.5674  90.0000 109.2550  90.0000  14 1

