# MOL2 file generated by ConQuest
# Please check atom types

@<TRIPOS>MOLECULE
LIPWAJ
    49    52     1
SMALL
NO_CHARGES
****
Generated from CSD

@<TRIPOS>ATOM
      1 O1        12.4554    6.7057   -4.0461 O.2       1 RES1    0.0000
      2 O2        13.7514    3.9734   -0.6176 O.2       1 RES1    0.0000
      3 O3         6.6967    3.3671   -2.1092 O.2       1 RES1    0.0000
      4 O4         7.6936    1.4630   -2.1534 O.2       1 RES1    0.0000
      5 N1         7.6933    2.6831   -2.1605 N.pl3     1 RES1    0.0000
      6 N2        12.7307    5.2202   -2.2830 N.am      1 RES1    0.0000
      7 C1        13.1598    6.1949   -3.1998 C.2       1 RES1    0.0000
      8 C2        14.6240    6.4471   -2.9177 C.2       1 RES1    0.0000
      9 C3        14.9861    5.6506   -1.8948 C.2       1 RES1    0.0000
     10 C4        13.8101    4.8293   -1.4738 C.2       1 RES1    0.0000
     11 C5        16.3155    5.4804   -1.2687 C.ar      1 RES1    0.0000
     12 C6        17.4566    5.6588   -2.0294 C.ar      1 RES1    0.0000
     13 H1        17.3798    5.8163   -2.9427 H         1 RES1    0.0000
     14 C7        18.7299    5.6065   -1.4418 C.ar      1 RES1    0.0000
     15 H2        19.4905    5.7599   -1.9539 H         1 RES1    0.0000
     16 C8        18.8417    5.3199   -0.0798 C.ar      1 RES1    0.0000
     17 H3        19.6840    5.2881    0.3163 H         1 RES1    0.0000
     18 C9        17.7356    5.0869    0.6732 C.ar      1 RES1    0.0000
     19 H4        17.8217    4.8655    1.5714 H         1 RES1    0.0000
     20 C10       16.4526    5.1843    0.0883 C.ar      1 RES1    0.0000
     21 H5        15.6944    5.0507    0.6112 H         1 RES1    0.0000
     22 C11       15.3509    7.4625   -3.6835 C.2       1 RES1    0.0000
     23 C12       16.0436    8.5421   -2.9021 C.3       1 RES1    0.0000
     24 H6        16.0939    8.2505   -1.9789 H         1 RES1    0.0000
     25 H7        15.4761    9.3287   -2.9220 H         1 RES1    0.0000
     26 C13       17.4599    8.9755   -3.3337 C.3       1 RES1    0.0000
     27 H8        17.8191    9.5689   -2.6556 H         1 RES1    0.0000
     28 H9        18.0267    8.1883   -3.3594 H         1 RES1    0.0000
     29 C14       17.5484    9.6702   -4.6708 C.3       1 RES1    0.0000
     30 H10       16.9044   10.3952   -4.6808 H         1 RES1    0.0000
     31 H11       18.4314   10.0653   -4.7513 H         1 RES1    0.0000
     32 C15       17.3063    8.8106   -5.8732 C.3       1 RES1    0.0000
     33 H12       17.8729    8.0262   -5.8105 H         1 RES1    0.0000
     34 H13       17.5763    9.3040   -6.6639 H         1 RES1    0.0000
     35 C16       15.8850    8.3590   -6.0541 C.3       1 RES1    0.0000
     36 H14       15.8236    7.9191   -6.9168 H         1 RES1    0.0000
     37 H15       15.3286    9.1521   -6.0990 H         1 RES1    0.0000
     38 C17       15.2799    7.4334   -5.0277 C.2       1 RES1    0.0000
     39 H16       14.7790    6.7324   -5.3781 H         1 RES1    0.0000
     40 C18       11.4457    4.5934   -2.2866 C.ar      1 RES1    0.0000
     41 C19       11.3783    3.2113   -2.2887 C.ar      1 RES1    0.0000
     42 H17       12.1605    2.7092   -2.3094 H         1 RES1    0.0000
     43 C20       10.1521    2.5775   -2.2602 C.ar      1 RES1    0.0000
     44 H18       10.0930    1.6484   -2.2602 H         1 RES1    0.0000
     45 C21        9.0184    3.3604   -2.2332 C.ar      1 RES1    0.0000
     46 C22        9.0473    4.7381   -2.2610 C.ar      1 RES1    0.0000
     47 H19        8.2624    5.2374   -2.2581 H         1 RES1    0.0000
     48 C23       10.2872    5.3504   -2.2923 C.ar      1 RES1    0.0000
     49 H20       10.3434    6.2780   -2.3179 H         1 RES1    0.0000
@<TRIPOS>BOND
     1    1    7 2
     2    2   10 2
     3    3    5 2
     4    4    5 2
     5    5   45 1
     6    6    7 1
     7    7    8 1
     8    8    9 2
     9    9   10 1
    10   10    6 1
    11   11    9 1
    12   12   11 ar
    13   13   12 1
    14   14   12 ar
    15   15   14 1
    16   16   14 ar
    17   17   16 1
    18   18   16 ar
    19   19   18 1
    20   20   11 ar
    21   21   20 1
    22   22    8 1
    23   23   22 1
    24   24   23 1
    25   25   23 1
    26   26   23 1
    27   27   26 1
    28   28   26 1
    29   29   26 1
    30   30   29 1
    31   31   29 1
    32   32   29 1
    33   33   32 1
    34   34   32 1
    35   35   32 1
    36   36   35 1
    37   37   35 1
    38   38   22 2
    39   39   38 1
    40   40    6 1
    41   41   40 ar
    42   42   41 1
    43   43   41 ar
    44   44   43 1
    45   45   43 ar
    46   46   45 ar
    47   47   46 1
    48   48   40 ar
    49   49   48 1
    50   18   20 ar
    51   35   38 1
    52   46   48 ar
@<TRIPOS>SUBSTRUCTURE
     1 RES1 1

@<TRIPOS>CRYSIN
  19.3680   14.4720    7.2337  90.0000 100.0200  90.0000  14 1

