# MOL2 file generated by ConQuest
# Please check atom types

@<TRIPOS>MOLECULE
LIPWOY
    43    47     1
SMALL
NO_CHARGES
****
Generated from CSD

@<TRIPOS>ATOM
      1 O1         3.4473    8.4412    8.9146 O.3       1 RES1    0.0000
      2 O2        -1.3619   10.3940    7.2030 O.3       1 RES1    0.0000
      3 O3         3.8578    4.0010   16.2321 O.2       1 RES1    0.0000
      4 O4         2.2037    5.2664   16.7443 O.2       1 RES1    0.0000
      5 N1         1.2584    7.2608   10.9614 N.pl3     1 RES1    0.0000
      6 N2         0.9409    7.3233   12.2835 N.2       1 RES1    0.0000
      7 N3         2.9610    4.7716   15.9320 N.pl3     1 RES1    0.0000
      8 C1         0.5966    8.0826   10.0100 C.ar      1 RES1    0.0000
      9 C2        -0.5425    8.8016   10.3411 C.ar      1 RES1    0.0000
     10 H1        -0.8898    8.7666   11.2021 H         1 RES1    0.0000
     11 C3        -1.1515    9.5688    9.3714 C.ar      1 RES1    0.0000
     12 H2        -1.9031   10.0699    9.5903 H         1 RES1    0.0000
     13 C4        -0.6600    9.6048    8.0742 C.ar      1 RES1    0.0000
     14 C5         0.4821    8.8948    7.7562 C.ar      1 RES1    0.0000
     15 H3         0.8169    8.9193    6.8887 H         1 RES1    0.0000
     16 C6         1.1325    8.1440    8.7267 C.ar      1 RES1    0.0000
     17 C7         2.4626    7.4952    8.4651 C.3       1 RES1    0.0000
     18 H4         2.5692    7.3450    7.5026 H         1 RES1    0.0000
     19 C8         4.7897    7.9776    8.6872 C.3       1 RES1    0.0000
     20 H5         5.4177    8.6518    8.9902 H         1 RES1    0.0000
     21 H6         4.9271    7.8481    7.7348 H         1 RES1    0.0000
     22 C9         5.0575    6.6843    9.4108 C.3       1 RES1    0.0000
     23 H7         5.0149    6.8312   10.3675 H         1 RES1    0.0000
     24 H8         5.9479    6.3672    9.1926 H         1 RES1    0.0000
     25 C10        4.0339    5.6429    9.0102 C.3       1 RES1    0.0000
     26 H9         4.1572    4.8450    9.5467 H         1 RES1    0.0000
     27 H10        4.1646    5.4025    8.0797 H         1 RES1    0.0000
     28 C11        2.6093    6.1732    9.2047 C.3       1 RES1    0.0000
     29 H11        1.9884    5.5303    8.8040 H         1 RES1    0.0000
     30 C12        2.2269    6.3561   10.6450 C.2       1 RES1    0.0000
     31 C13        2.5956    5.7700   11.8565 C.2       1 RES1    0.0000
     32 C14        3.5320    4.7864   12.2617 C.2       1 RES1    0.0000
     33 H12        4.0683    4.3585   11.6344 H         1 RES1    0.0000
     34 C15        3.6350    4.4788   13.5752 C.2       1 RES1    0.0000
     35 H13        4.2512    3.8424   13.8578 H         1 RES1    0.0000
     36 C16        2.8028    5.1267   14.5161 C.2       1 RES1    0.0000
     37 C17        1.8752    6.0637   14.1933 C.2       1 RES1    0.0000
     38 H14        1.3396    6.4631   14.8396 H         1 RES1    0.0000
     39 C18        1.7631    6.4017   12.8277 C.2       1 RES1    0.0000
     40 C19       -0.9293   10.4487    5.8597 C.3       1 RES1    0.0000
     41 H15       -1.5015   11.0382    5.3619 H         1 RES1    0.0000
     42 H16       -0.9639    9.5692    5.4769 H         1 RES1    0.0000
     43 H17       -0.0272   10.7766    5.8264 H         1 RES1    0.0000
@<TRIPOS>BOND
     1    1   17 1
     2    2   13 1
     3    3    7 2
     4    4    7 2
     5    5    6 1
     6    6   39 2
     7    7   36 1
     8    8    5 1
     9    9    8 ar
    10   10    9 1
    11   11    9 ar
    12   12   11 1
    13   13   11 ar
    14   14   13 ar
    15   15   14 1
    16   16    8 ar
    17   17   16 1
    18   18   17 1
    19   19    1 1
    20   20   19 1
    21   21   19 1
    22   22   19 1
    23   23   22 1
    24   24   22 1
    25   25   22 1
    26   26   25 1
    27   27   25 1
    28   28   17 1
    29   29   28 1
    30   30    5 1
    31   31   30 2
    32   32   31 1
    33   33   32 1
    34   34   32 2
    35   35   34 1
    36   36   34 1
    37   37   36 2
    38   38   37 1
    39   39   31 1
    40   40    2 1
    41   41   40 1
    42   42   40 1
    43   43   40 1
    44   14   16 ar
    45   25   28 1
    46   28   30 1
    47   37   39 1
@<TRIPOS>SUBSTRUCTURE
     1 RES1 1

@<TRIPOS>CRYSIN
  12.3580   11.8372   22.9929  90.0000  90.0000  90.0000  61 1

