# MOL2 file generated by ConQuest
# Please check atom types

@<TRIPOS>MOLECULE
LIQKAZ
    56    58     1
SMALL
NO_CHARGES
****
Generated from CSD

@<TRIPOS>ATOM
      1 O1         2.1049    3.9138    7.5694 O.2       1 RES1    0.0000
      2 N1         3.0006    3.4994    8.3892 N.2       1 RES1    0.0000
      3 N2         4.4044    2.1521    9.4279 N.2       1 RES1    0.0000
      4 C1         3.0130    1.0976    7.6883 C.2       1 RES1    0.0000
      5 C2         1.7328    1.0346    7.1567 C.2       1 RES1    0.0000
      6 C3         1.3502   -0.0461    6.3875 C.2       1 RES1    0.0000
      7 C4         3.4636    2.2310    8.4975 C.2       1 RES1    0.0000
      8 C5         3.8782    4.4503    9.1552 C.3       1 RES1    0.0000
      9 C6         4.5402    3.4528   10.1507 C.3       1 RES1    0.0000
     10 C7         4.8441    5.0455    8.1313 C.3       1 RES1    0.0000
     11 C8         3.0361    5.5713    9.7615 C.3       1 RES1    0.0000
     12 C9         6.0125    3.7134   10.4265 C.3       1 RES1    0.0000
     13 C10        3.7770    3.2907   11.4505 C.3       1 RES1    0.0000
     14 H1         0.4561   -0.1077    6.0870 H         1 RES1    0.0000
     15 H2         1.0914    1.7061    7.3118 H         1 RES1    0.0000
     16 H3         2.9804    6.2929    9.1463 H         1 RES1    0.0000
     17 H4         3.4487    5.8690   10.5633 H         1 RES1    0.0000
     18 H5         2.1628    5.2516    9.9537 H         1 RES1    0.0000
     19 H6         5.6214    4.5011    8.0860 H         1 RES1    0.0000
     20 H7         5.0883    5.9258    8.3915 H         1 RES1    0.0000
     21 H8         4.4258    5.0709    7.2786 H         1 RES1    0.0000
     22 H9         2.8815    3.5826   11.3278 H         1 RES1    0.0000
     23 H10        4.1895    3.8119   12.1297 H         1 RES1    0.0000
     24 H11        3.7794    2.3768   11.7080 H         1 RES1    0.0000
     25 H12        6.2545    3.3231   11.2587 H         1 RES1    0.0000
     26 H13        6.1637    4.6505   10.4610 H         1 RES1    0.0000
     27 H14        6.5386    3.3324    9.7339 H         1 RES1    0.0000
     28 O2         5.0530    1.2417    9.7809 O.2       1 RES1    0.0000
     29 O1B        3.1433   -3.9138    6.2552 O.2       1 RES1    0.0000
     30 N1B        2.2477   -3.4994    5.4354 N.2       1 RES1    0.0000
     31 N2B        0.8438   -2.1521    4.3966 N.2       1 RES1    0.0000
     32 C1B        2.2352   -1.0976    6.1363 C.2       1 RES1    0.0000
     33 C2B        3.5154   -1.0346    6.6679 C.2       1 RES1    0.0000
     34 C3B        3.8980    0.0461    7.4371 C.2       1 RES1    0.0000
     35 C4B        1.7846   -2.2310    5.3270 C.2       1 RES1    0.0000
     36 C5B        1.3700   -4.4503    4.6694 C.3       1 RES1    0.0000
     37 C6B        0.7080   -3.4528    3.6739 C.3       1 RES1    0.0000
     38 C7B        0.4041   -5.0455    5.6932 C.3       1 RES1    0.0000
     39 C8B        2.2121   -5.5713    4.0630 C.3       1 RES1    0.0000
     40 C9B       -0.7643   -3.7134    3.3981 C.3       1 RES1    0.0000
     41 C10B       1.4712   -3.2907    2.3741 C.3       1 RES1    0.0000
     42 H1B        4.7921    0.1077    7.7376 H         1 RES1    0.0000
     43 H2B        4.1568   -1.7061    6.5127 H         1 RES1    0.0000
     44 H3B        2.2678   -6.2929    4.6782 H         1 RES1    0.0000
     45 H4B        1.7995   -5.8690    3.2612 H         1 RES1    0.0000
     46 H5B        3.0855   -5.2516    3.8709 H         1 RES1    0.0000
     47 H6B       -0.3732   -4.5011    5.7386 H         1 RES1    0.0000
     48 H7B        0.1600   -5.9258    5.4331 H         1 RES1    0.0000
     49 H8B        0.8224   -5.0709    6.5459 H         1 RES1    0.0000
     50 H9B        2.3667   -3.5826    2.4967 H         1 RES1    0.0000
     51 H10B       1.0588   -3.8119    1.6949 H         1 RES1    0.0000
     52 H11B       1.4688   -2.3768    2.1165 H         1 RES1    0.0000
     53 H12B      -1.0062   -3.3231    2.5658 H         1 RES1    0.0000
     54 H13B      -0.9154   -4.6505    3.3635 H         1 RES1    0.0000
     55 H14B      -1.2904   -3.3324    4.0907 H         1 RES1    0.0000
     56 O2B        0.1952   -1.2417    4.0437 O.2       1 RES1    0.0000
@<TRIPOS>BOND
     1    1    2 1
     2    2    7 1
     3    3    7 1
     4    4    5 1
     5    5    6 1
     6    6   14 1
     7    7    4 1
     8    8    2 1
     9    9    3 1
    10   10    8 1
    11   11    8 1
    12   12    9 1
    13   13    9 1
    14   15    5 1
    15   16   11 1
    16   17   11 1
    17   18   11 1
    18   19   10 1
    19   20   10 1
    20   21   10 1
    21   22   13 1
    22   23   13 1
    23   24   13 1
    24   25   12 1
    25   26   12 1
    26   27   12 1
    27   28    3 1
    28   29   30 1
    29   30   35 1
    30   31   35 1
    31   32    6 1
    32   33   32 1
    33   34    4 1
    34   35   32 1
    35   36   30 1
    36   37   31 1
    37   38   36 1
    38   39   36 1
    39   40   37 1
    40   41   37 1
    41   42   34 1
    42   43   33 1
    43   44   39 1
    44   45   39 1
    45   46   39 1
    46   47   38 1
    47   48   38 1
    48   49   38 1
    49   50   41 1
    50   51   41 1
    51   52   41 1
    52   53   40 1
    53   54   40 1
    54   55   40 1
    55   56   31 1
    56    8    9 1
    57   33   34 1
    58   36   37 1
@<TRIPOS>SUBSTRUCTURE
     1 RES1 1

@<TRIPOS>CRYSIN
   6.2176   11.5828   13.8585  90.0000  94.0110  90.0000  14 1

