# MOL2 file generated by ConQuest
# Please check atom types

@<TRIPOS>MOLECULE
LIRLEF
    34    37     1
SMALL
NO_CHARGES
****
Generated from CSD

@<TRIPOS>ATOM
      1 C1         1.2445    0.0931    2.4619 C.2       1 RES1    0.0000
      2 C2         0.2528   -0.6645    3.1314 C.2       1 RES1    0.0000
      3 H1        -0.6518   -0.7295    2.9248 H         1 RES1    0.0000
      4 C3         0.9203   -1.2712    4.1390 C.2       1 RES1    0.0000
      5 C4         0.5459   -2.1926    5.2149 C.ar      1 RES1    0.0000
      6 C5        -0.6998   -2.8130    5.2036 C.ar      1 RES1    0.0000
      7 H2        -1.3052   -2.6295    4.5213 H         1 RES1    0.0000
      8 C6        -1.0369   -3.7048    6.2111 C.ar      1 RES1    0.0000
      9 H3        -1.8668   -4.1242    6.1982 H         1 RES1    0.0000
     10 C7        -0.1452   -3.9755    7.2378 C.ar      1 RES1    0.0000
     11 H4        -0.3739   -4.5786    7.9074 H         1 RES1    0.0000
     12 C8         1.0864   -3.3450    7.2626 C.ar      1 RES1    0.0000
     13 H5         1.6796   -3.5121    7.9593 H         1 RES1    0.0000
     14 C9         1.4359   -2.4666    6.2531 C.ar      1 RES1    0.0000
     15 H6         2.2699   -2.0557    6.2668 H         1 RES1    0.0000
     16 C10        1.0864    0.9970    1.3171 C.2       1 RES1    0.0000
     17 C11        2.0869    1.5983    0.5128 C.2       1 RES1    0.0000
     18 H7         3.0072    1.4692    0.5533 H         1 RES1    0.0000
     19 C12        1.3970    2.4021   -0.3250 C.2       1 RES1    0.0000
     20 C13        1.7646    3.3759   -1.3577 C.ar      1 RES1    0.0000
     21 C14        0.8617    4.3734   -1.7357 C.ar      1 RES1    0.0000
     22 H8         0.0195    4.4075   -1.3425 H         1 RES1    0.0000
     23 C15        1.2144    5.3100   -2.6906 C.ar      1 RES1    0.0000
     24 H9         0.6118    5.9753   -2.9326 H         1 RES1    0.0000
     25 C16        2.4648    5.2585   -3.2878 C.ar      1 RES1    0.0000
     26 H10        2.6968    5.8823   -3.9382 H         1 RES1    0.0000
     27 C17        3.3686    4.2752   -2.9138 C.ar      1 RES1    0.0000
     28 H11        4.2082    4.2425   -3.3135 H         1 RES1    0.0000
     29 C18        3.0283    3.3402   -1.9480 C.ar      1 RES1    0.0000
     30 H12        3.6425    2.6894   -1.6937 H         1 RES1    0.0000
     31 N1         2.4301   -0.0351    3.0130 N.2       1 RES1    0.0000
     32 N2        -0.1231    1.3832    0.9851 N.2       1 RES1    0.0000
     33 O1         2.2323   -0.9091    4.0943 O.3       1 RES1    0.0000
     34 O2         0.0615    2.2841   -0.0718 O.3       1 RES1    0.0000
@<TRIPOS>BOND
     1    1    2 1
     2    2    3 1
     3    4    2 2
     4    5    4 1
     5    6    5 ar
     6    7    6 1
     7    8    6 ar
     8    9    8 1
     9   10    8 ar
    10   11   10 1
    11   12   10 ar
    12   13   12 1
    13   14    5 ar
    14   15   14 1
    15   16    1 1
    16   17   16 1
    17   18   17 1
    18   19   17 2
    19   20   19 1
    20   21   20 ar
    21   22   21 1
    22   23   21 ar
    23   24   23 1
    24   25   23 ar
    25   26   25 1
    26   27   25 ar
    27   28   27 1
    28   29   20 ar
    29   30   29 1
    30   31    1 2
    31   32   16 2
    32   33    4 1
    33   34   19 1
    34   12   14 ar
    35   27   29 ar
    36   31   33 1
    37   32   34 1
@<TRIPOS>SUBSTRUCTURE
     1 RES1 1

@<TRIPOS>CRYSIN
   5.8521    8.9267   13.1255  98.9200  91.0290  96.1370   2 1

