# MOL2 file generated by ConQuest
# Please check atom types

@<TRIPOS>MOLECULE
LIRLOO
    63    67     1
SMALL
NO_CHARGES
****
Generated from CSD

@<TRIPOS>ATOM
      1 O1         5.2532    2.0463   25.3156 O.3       1 RES1    0.0000
      2 O2         1.7802    7.3477   26.0354 O.3       1 RES1    0.0000
      3 O3         0.4678    8.7382   27.1811 O.2       1 RES1    0.0000
      4 O4        -2.0803    8.3024   20.4805 O.2       1 RES1    0.0000
      5 O5        -3.8182    8.6675   21.7161 O.2       1 RES1    0.0000
      6 O6         4.2733    7.2739   29.8186 O.3       1 RES1    0.0000
      7 O7         5.6624    8.4631   31.0503 O.2       1 RES1    0.0000
      8 O8         1.3089    7.5285   36.3307 O.2       1 RES1    0.0000
      9 O9        -0.2888    7.2649   34.9131 O.2       1 RES1    0.0000
     10 N1        -2.6206    8.4374   21.5463 N.pl3     1 RES1    0.0000
     11 N2         0.8756    7.4269   35.1856 N.pl3     1 RES1    0.0000
     12 C1         4.4895    3.1780   24.7928 C.3       1 RES1    0.0000
     13 C2         4.6417    4.3119   25.7951 C.ar      1 RES1    0.0000
     14 C3         3.6343    5.2838   25.9777 C.ar      1 RES1    0.0000
     15 H1         2.8615    5.2375   25.4616 H         1 RES1    0.0000
     16 C4         3.7696    6.3136   26.9145 C.ar      1 RES1    0.0000
     17 C5         4.9305    6.3650   27.6784 C.ar      1 RES1    0.0000
     18 C6         5.9259    5.4252   27.4694 C.ar      1 RES1    0.0000
     19 H2         6.7072    5.4818   27.9700 H         1 RES1    0.0000
     20 C7         5.7984    4.4070   26.5415 C.ar      1 RES1    0.0000
     21 C8         6.9079    3.3850   26.3673 C.3       1 RES1    0.0000
     22 H3         7.7519    3.8427   26.2274 H         1 RES1    0.0000
     23 H4         6.9854    2.8489   27.1708 H         1 RES1    0.0000
     24 C9         6.6226    2.5095   25.2129 C.3       1 RES1    0.0000
     25 H5         7.2397    1.7471   25.2035 H         1 RES1    0.0000
     26 C10        6.6564    3.2294   23.8874 C.3       1 RES1    0.0000
     27 H6         7.1524    4.0586   23.9659 H         1 RES1    0.0000
     28 H7         7.0826    2.6766   23.2140 H         1 RES1    0.0000
     29 C11        5.2271    3.5071   23.5098 C.3       1 RES1    0.0000
     30 H8         4.9376    2.9363   22.7811 H         1 RES1    0.0000
     31 H9         5.1024    4.4353   23.2584 H         1 RES1    0.0000
     32 C12        3.0750    2.6920   24.6011 C.3       1 RES1    0.0000
     33 H10        2.6762    2.5223   25.4588 H         1 RES1    0.0000
     34 H11        3.0820    1.8821   24.0853 H         1 RES1    0.0000
     35 H12        2.5663    3.3618   24.1380 H         1 RES1    0.0000
     36 C13        2.6572    7.2855   27.1769 C.3       1 RES1    0.0000
     37 H13        2.1564    7.0052   27.9589 H         1 RES1    0.0000
     38 H14        3.0271    8.1648   27.3540 H         1 RES1    0.0000
     39 C14        0.7038    8.1211   26.1775 C.2       1 RES1    0.0000
     40 C15       -0.1479    8.1468   24.9629 C.ar      1 RES1    0.0000
     41 C16       -1.4181    8.7099   25.0545 C.ar      1 RES1    0.0000
     42 H15       -1.7154    9.0403   25.8722 H         1 RES1    0.0000
     43 C17       -2.2416    8.7845   23.9501 C.ar      1 RES1    0.0000
     44 H16       -3.0940    9.1522   24.0103 H         1 RES1    0.0000
     45 C18       -1.7696    8.3050   22.7744 C.ar      1 RES1    0.0000
     46 C19       -0.5396    7.7650   22.6460 C.ar      1 RES1    0.0000
     47 H17       -0.2388    7.4681   21.8183 H         1 RES1    0.0000
     48 C20        0.2677    7.6609   23.7645 C.ar      1 RES1    0.0000
     49 H18        1.1011    7.2534   23.6968 H         1 RES1    0.0000
     50 C21        5.1947    7.4333   28.6900 C.3       1 RES1    0.0000
     51 H19        6.1112    7.3716   29.0022 H         1 RES1    0.0000
     52 H20        5.0714    8.3063   28.2863 H         1 RES1    0.0000
     53 C22        4.6431    7.8409   30.9412 C.2       1 RES1    0.0000
     54 C23        3.6414    7.6879   32.0303 C.ar      1 RES1    0.0000
     55 C24        2.3853    7.1556   31.8239 C.ar      1 RES1    0.0000
     56 H21        2.1521    6.8432   30.9806 H         1 RES1    0.0000
     57 C25        1.4688    7.0798   32.8595 C.ar      1 RES1    0.0000
     58 H22        0.6129    6.7443   32.7177 H         1 RES1    0.0000
     59 C26        1.8534    7.5092   34.0890 C.ar      1 RES1    0.0000
     60 C27        3.0989    8.0299   34.3340 C.ar      1 RES1    0.0000
     61 H23        3.3349    8.3153   35.1872 H         1 RES1    0.0000
     62 C28        3.9837    8.1173   33.2998 C.ar      1 RES1    0.0000
     63 H24        4.8298    8.4721   33.4502 H         1 RES1    0.0000
@<TRIPOS>BOND
     1    1   12 1
     2    2   36 1
     3    3   39 2
     4    4   10 2
     5    5   10 2
     6    6   50 1
     7    7   53 2
     8    8   11 2
     9    9   11 2
    10   10   45 1
    11   11   59 1
    12   12   13 1
    13   13   14 ar
    14   14   15 1
    15   16   14 ar
    16   17   16 ar
    17   18   17 ar
    18   19   18 1
    19   20   13 ar
    20   21   20 1
    21   22   21 1
    22   23   21 1
    23   24    1 1
    24   25   24 1
    25   26   24 1
    26   27   26 1
    27   28   26 1
    28   29   12 1
    29   30   29 1
    30   31   29 1
    31   32   12 1
    32   33   32 1
    33   34   32 1
    34   35   32 1
    35   36   16 1
    36   37   36 1
    37   38   36 1
    38   39    2 1
    39   40   39 1
    40   41   40 ar
    41   42   41 1
    42   43   41 ar
    43   44   43 1
    44   45   43 ar
    45   46   45 ar
    46   47   46 1
    47   48   40 ar
    48   49   48 1
    49   50   17 1
    50   51   50 1
    51   52   50 1
    52   53    6 1
    53   54   53 1
    54   55   54 ar
    55   56   55 1
    56   57   55 ar
    57   58   57 1
    58   59   57 ar
    59   60   59 ar
    60   61   60 1
    61   62   54 ar
    62   63   62 1
    63   18   20 ar
    64   21   24 1
    65   26   29 1
    66   46   48 ar
    67   60   62 ar
@<TRIPOS>SUBSTRUCTURE
     1 RES1 1

@<TRIPOS>CRYSIN
   7.0446   12.8560   27.7480  90.0000  90.0000  90.0000  19 1

