# MOL2 file generated by ConQuest
# Please check atom types

@<TRIPOS>MOLECULE
LIRTAI
    30    31     1
SMALL
NO_CHARGES
****
Generated from CSD

@<TRIPOS>ATOM
      1 C1        11.0077    2.0768    8.7162 C.2       1 RES1    0.0000
      2 C2        10.6070    1.9457    7.2986 C.2       1 RES1    0.0000
      3 C3         9.3830    1.6067    6.8730 C.2       1 RES1    0.0000
      4 C4         8.3198    1.3268    7.7815 C.1       1 RES1    0.0000
      5 C5         7.4001    1.1253    8.5103 C.1       1 RES1    0.0000
      6 C6         6.4143    0.9885    9.5431 C.ar      1 RES1    0.0000
      7 C7         5.0835    0.6716    9.2687 C.ar      1 RES1    0.0000
      8 H1         4.8199    0.5064    8.3925 H         1 RES1    0.0000
      9 C8         4.1613    0.6018   10.2787 C.ar      1 RES1    0.0000
     10 H2         3.2681    0.4181   10.0926 H         1 RES1    0.0000
     11 C9         4.5800    0.8083   11.5754 C.ar      1 RES1    0.0000
     12 C10        5.8927    1.0954   11.8817 C.ar      1 RES1    0.0000
     13 H3         6.1556    1.2236   12.7642 H         1 RES1    0.0000
     14 C11        6.8007    1.1872   10.8638 C.ar      1 RES1    0.0000
     15 H4         7.6884    1.3859   11.0578 H         1 RES1    0.0000
     16 C12       11.7889    2.2890    6.4498 C.3       1 RES1    0.0000
     17 H5        11.6379    3.1116    5.9575 H         1 RES1    0.0000
     18 H6        11.9840    1.5768    5.8211 H         1 RES1    0.0000
     19 C13       12.9139    2.4550    7.4529 C.3       1 RES1    0.0000
     20 H7        13.5514    1.7299    7.3661 H         1 RES1    0.0000
     21 H8        13.3785    3.2939    7.3035 H         1 RES1    0.0000
     22 C14        9.0698    1.5419    5.4003 C.3       1 RES1    0.0000
     23 H9         9.4066    2.3296    4.9672 H         1 RES1    0.0000
     24 H10        8.1185    1.4899    5.2774 H         1 RES1    0.0000
     25 H11        9.4840    0.7642    5.0189 H         1 RES1    0.0000
     26 N1         3.6136    0.7492   12.6638 N.pl3     1 RES1    0.0000
     27 O1        10.3757    1.9386    9.7172 O.2       1 RES1    0.0000
     28 O2        12.3136    2.4400    8.7621 O.3       1 RES1    0.0000
     29 O3         2.4240    0.7920   12.3892 O.2       1 RES1    0.0000
     30 O4         4.0215    0.6638   13.8034 O.2       1 RES1    0.0000
@<TRIPOS>BOND
     1    1    2 1
     2    2    3 2
     3    3    4 1
     4    4    5 3
     5    5    6 1
     6    6    7 ar
     7    7    8 1
     8    9    7 ar
     9   10    9 1
    10   11    9 ar
    11   12   11 ar
    12   13   12 1
    13   14    6 ar
    14   15   14 1
    15   16    2 1
    16   17   16 1
    17   18   16 1
    18   19   16 1
    19   20   19 1
    20   21   19 1
    21   22    3 1
    22   23   22 1
    23   24   22 1
    24   25   22 1
    25   26   11 1
    26   27    1 2
    27   28    1 1
    28   29   26 2
    29   30   26 2
    30   12   14 ar
    31   19   28 1
@<TRIPOS>SUBSTRUCTURE
     1 RES1 1

@<TRIPOS>CRYSIN
  21.9920    7.1220   15.7790  90.0000  96.7600  90.0000  15 1

