# MOL2 file generated by ConQuest
# Please check atom types

@<TRIPOS>MOLECULE
LISREL
    48    49     1
SMALL
NO_CHARGES
****
Generated from CSD

@<TRIPOS>ATOM
      1 C1        -1.1582   -0.9612    9.6040 C.ar      1 RES1    0.0000
      2 O1        -0.0991   -4.3561    7.5607 O.3       1 RES1    0.0000
      3 H1        -0.5939   -4.4752    6.8927 H         1 RES1    0.0000
      4 N1        -1.5373    0.2277   10.3488 N.pl3     1 RES1    0.0000
      5 O2        -0.7028    0.7515   11.0878 O.2       1 RES1    0.0000
      6 N2        -2.0442   -3.8568    5.8168 N.pl3     1 RES1    0.0000
      7 H2        -1.6345   -3.2395    5.3484 H         1 RES1    0.0000
      8 C2         0.0528   -1.5782    9.8842 C.ar      1 RES1    0.0000
      9 H3         0.6393   -1.2231   10.5426 H         1 RES1    0.0000
     10 C3         0.3829   -2.7202    9.1821 C.ar      1 RES1    0.0000
     11 H4         1.2051   -3.1603    9.3610 H         1 RES1    0.0000
     12 O3        -2.6785    0.6563   10.2166 O.2       1 RES1    0.0000
     13 C4        -0.4801   -3.2359    8.2091 C.ar      1 RES1    0.0000
     14 C5        -1.7091   -2.6029    7.9371 C.ar      1 RES1    0.0000
     15 C6        -2.0325   -1.4546    8.6436 C.ar      1 RES1    0.0000
     16 H5        -2.8515   -1.0055    8.4715 H         1 RES1    0.0000
     17 C7        -2.7040   -3.1893    6.9659 C.3       1 RES1    0.0000
     18 H6        -3.2724   -3.8474    7.4409 H         1 RES1    0.0000
     19 H7        -3.2919   -2.4678    6.6285 H         1 RES1    0.0000
     20 C8        -3.0094   -4.5496    4.9897 C.ar      1 RES1    0.0000
     21 C9        -3.5566   -3.9152    3.8557 C.ar      1 RES1    0.0000
     22 C10       -4.4962   -4.6218    3.0981 C.ar      1 RES1    0.0000
     23 H8        -4.8653   -4.2215    2.3205 H         1 RES1    0.0000
     24 C11       -4.8977   -5.8947    3.4626 C.ar      1 RES1    0.0000
     25 H9        -5.5462   -6.3548    2.9425 H         1 RES1    0.0000
     26 C12       -4.3546   -6.4978    4.5846 C.ar      1 RES1    0.0000
     27 H10       -4.6343   -7.3729    4.8249 H         1 RES1    0.0000
     28 C13       -3.4044   -5.8433    5.3676 C.ar      1 RES1    0.0000
     29 C14       -3.1051   -2.5293    3.4254 C.3       1 RES1    0.0000
     30 H11       -2.8134   -2.0451    4.2505 H         1 RES1    0.0000
     31 C15       -4.2098   -1.7005    2.7843 C.3       1 RES1    0.0000
     32 H12       -3.8958   -0.7806    2.6553 H         1 RES1    0.0000
     33 H13       -4.9970   -1.6980    3.3676 H         1 RES1    0.0000
     34 H14       -4.4483   -2.0883    1.9168 H         1 RES1    0.0000
     35 C16       -1.8997   -2.6376    2.5229 C.3       1 RES1    0.0000
     36 H15       -1.5593   -1.7411    2.3238 H         1 RES1    0.0000
     37 H16       -2.1556   -3.0830    1.6887 H         1 RES1    0.0000
     38 H17       -1.2014   -3.1603    2.9704 H         1 RES1    0.0000
     39 C17       -2.8094   -6.5638    6.5638 C.3       1 RES1    0.0000
     40 H18       -2.3475   -5.8835    7.1340 H         1 RES1    0.0000
     41 C18       -3.8755   -7.2425    7.4167 C.3       1 RES1    0.0000
     42 H19       -4.5592   -6.5868    7.6690 H         1 RES1    0.0000
     43 H20       -3.4618   -7.6103    8.2253 H         1 RES1    0.0000
     44 H21       -4.2915   -7.9664    6.9042 H         1 RES1    0.0000
     45 C19       -1.7714   -7.5687    6.1027 C.3       1 RES1    0.0000
     46 H22       -1.0695   -7.1049    5.5995 H         1 RES1    0.0000
     47 H23       -2.1972   -8.2380    5.5289 H         1 RES1    0.0000
     48 H24       -1.3759   -8.0114    6.8829 H         1 RES1    0.0000
@<TRIPOS>BOND
     1    1    4 1
     2    2    3 1
     3    4    5 2
     4    6    7 1
     5    8    1 ar
     6    9    8 1
     7   10    8 ar
     8   11   10 1
     9   12    4 2
    10   13    2 1
    11   14   13 ar
    12   15    1 ar
    13   16   15 1
    14   17    6 1
    15   18   17 1
    16   19   17 1
    17   20    6 1
    18   21   20 ar
    19   22   21 ar
    20   23   22 1
    21   24   22 ar
    22   25   24 1
    23   26   24 ar
    24   27   26 1
    25   28   20 ar
    26   29   21 1
    27   30   29 1
    28   31   29 1
    29   32   31 1
    30   33   31 1
    31   34   31 1
    32   35   29 1
    33   36   35 1
    34   37   35 1
    35   38   35 1
    36   39   28 1
    37   40   39 1
    38   41   39 1
    39   42   41 1
    40   43   41 1
    41   44   41 1
    42   45   39 1
    43   46   45 1
    44   47   45 1
    45   48   45 1
    46   10   13 ar
    47   14   15 ar
    48   14   17 1
    49   26   28 ar
@<TRIPOS>SUBSTRUCTURE
     1 RES1 1

@<TRIPOS>CRYSIN
   5.9766   17.9870   16.4842  90.0000  95.3930  90.0000 231 1

