# MOL2 file generated by ConQuest
# Please check atom types

@<TRIPOS>MOLECULE
LISZOC
    26    27     1
SMALL
USER_CHARGES
****
Generated from CSD

@<TRIPOS>ATOM
      1 N1         5.0340    1.2098    0.9600 N.pl3     1 RES1    1.0000
      2 O1         3.2732    2.4861    3.8173 O.3       1 RES1    0.0000
      3 O2         4.6930   -0.0152    0.8167 O.2       1 RES1   -1.0000
      4 C1         2.3313    1.8982    4.6044 C.2       1 RES1    0.0000
      5 H1         1.9080    2.3170    5.3210 H         1 RES1    0.0000
      6 C2         2.0985    0.6743    4.2290 C.2       1 RES1    0.0000
      7 H2         1.5037    0.0817    4.6294 H         1 RES1    0.0000
      8 C3         2.9148    0.4068    3.1030 C.2       1 RES1    0.0000
      9 H3         2.9745   -0.3921    2.6298 H         1 RES1    0.0000
     10 C4         3.5987    1.5668    2.8504 C.2       1 RES1    0.0000
     11 C5         4.5778    1.9972    1.9177 C.2       1 RES1    0.0000
     12 H4         4.9103    2.8635    1.9837 H         1 RES1    0.0000
     13 C6         6.0997    1.7124    0.0182 C.3       1 RES1    0.0000
     14 H5         6.9265    1.2323    0.1797 H         1 RES1    0.0000
     15 H6         6.2607    2.6547    0.1843 H         1 RES1    0.0000
     16 C7         5.6703    1.5166   -1.4264 C.ar      1 RES1    0.0000
     17 C8         4.7717    2.3961   -2.0156 C.ar      1 RES1    0.0000
     18 H7         4.4237    3.0975   -1.5151 H         1 RES1    0.0000
     19 C9         4.3865    2.2463   -3.3350 C.ar      1 RES1    0.0000
     20 H8         3.7874    2.8431   -3.7240 H         1 RES1    0.0000
     21 C10        4.9085    1.1889   -4.0766 C.ar      1 RES1    0.0000
     22 H9         4.6679    1.0758   -4.9684 H         1 RES1    0.0000
     23 C11        5.7785    0.3204   -3.4829 C.ar      1 RES1    0.0000
     24 H10        6.1214   -0.3879   -3.9788 H         1 RES1    0.0000
     25 C12        6.1569    0.4633   -2.1816 C.ar      1 RES1    0.0000
     26 H11        6.7429   -0.1487   -1.7994 H         1 RES1    0.0000
@<TRIPOS>BOND
     1    1    3 1
     2    2    4 1
     3    4    5 1
     4    6    4 2
     5    7    6 1
     6    8    6 1
     7    9    8 1
     8   10    2 1
     9   11    1 2
    10   12   11 1
    11   13    1 1
    12   14   13 1
    13   15   13 1
    14   16   13 1
    15   17   16 ar
    16   18   17 1
    17   19   17 ar
    18   20   19 1
    19   21   19 ar
    20   22   21 1
    21   23   21 ar
    22   24   23 1
    23   25   16 ar
    24   26   25 1
    25    8   10 2
    26   10   11 1
    27   23   25 ar
@<TRIPOS>SUBSTRUCTURE
     1 RES1 1

@<TRIPOS>CRYSIN
   8.6570    5.2350   22.7490  90.0000  90.0000  90.0000  29 1

