# MOL2 file generated by ConQuest
# Please check atom types

@<TRIPOS>MOLECULE
LITMUX
    45    46     1
SMALL
NO_CHARGES
****
Generated from CSD

@<TRIPOS>ATOM
      1 C1         1.2165   10.0411    0.6818 C.ar      1 RES1    0.0000
      2 C2         2.1825   10.4471   -0.2387 C.ar      1 RES1    0.0000
      3 H1         2.3380    9.9255   -1.0179 H         1 RES1    0.0000
      4 C3         2.9176   11.6020   -0.0297 C.ar      1 RES1    0.0000
      5 H2         3.5503   11.8826   -0.6801 H         1 RES1    0.0000
      6 C4         2.7364   12.3546    1.1269 C.ar      1 RES1    0.0000
      7 C5         1.6426   12.0620    1.9406 C.ar      1 RES1    0.0000
      8 H3         1.4160   12.6430    2.6582 H         1 RES1    0.0000
      9 C6         0.8859   10.9270    1.7051 C.ar      1 RES1    0.0000
     10 H4         0.1283   10.7497    2.2510 H         1 RES1    0.0000
     11 C7         0.7339    8.6179    0.7084 C.3       1 RES1    0.0000
     12 H5         1.0312    8.1511   -0.1126 H         1 RES1    0.0000
     13 H6        -0.2562    8.6043    0.7292 H         1 RES1    0.0000
     14 C8         1.2917    7.8802    1.9569 C.3       1 RES1    0.0000
     15 H7         0.7536    8.1469    2.7448 H         1 RES1    0.0000
     16 H8         1.1677    6.9064    1.8265 H         1 RES1    0.0000
     17 C9         2.7581    8.1415    2.2659 C.2       1 RES1    0.0000
     18 C10        3.0513    9.0556    3.3905 C.2       1 RES1    0.0000
     19 H9         2.5900    8.8351    4.1915 H         1 RES1    0.0000
     20 C11        3.8398   10.1341    3.5037 C.2       1 RES1    0.0000
     21 H10        3.9105   10.4721    4.3879 H         1 RES1    0.0000
     22 C12        4.6184   10.8913    2.5016 C.2       1 RES1    0.0000
     23 C13        4.6912   12.3971    2.6886 C.3       1 RES1    0.0000
     24 H11        5.6387   12.6784    2.6351 H         1 RES1    0.0000
     25 H12        4.3637   12.6204    3.5952 H         1 RES1    0.0000
     26 C14        3.8648   13.2133    1.6412 C.3       1 RES1    0.0000
     27 H13        3.4999   14.0308    2.0633 H         1 RES1    0.0000
     28 H14        4.4491   13.4856    0.8909 H         1 RES1    0.0000
     29 C15        3.7064    7.4027    1.6716 C.2       1 RES1    0.0000
     30 H15        3.4564    6.8596    0.9327 H         1 RES1    0.0000
     31 C16        5.0772    7.3884    2.0898 C.1       1 RES1    0.0000
     32 N1         6.1553    7.2634    2.4705 N.1       1 RES1    0.0000
     33 N2         5.1782   10.2239    1.5542 N.2       1 RES1    0.0000
     34 O1         5.8698   11.1565    0.7085 O.3       1 RES1    0.0000
     35 O2         5.8990    9.4735   -0.8468 O.2       1 RES1    0.0000
     36 C17        6.2215   10.5860   -0.4999 C.2       1 RES1    0.0000
     37 N3         6.9215   11.4760   -1.2329 N.am      1 RES1    0.0000
     38 C18        7.3596   12.7845   -0.7577 C.3       1 RES1    0.0000
     39 H16        6.7829   13.0735   -0.0202 H         1 RES1    0.0000
     40 H17        7.3040   13.4332   -1.4901 H         1 RES1    0.0000
     41 H18        8.2864   12.7252   -0.4433 H         1 RES1    0.0000
     42 C19        7.5153   11.0363   -2.4840 C.3       1 RES1    0.0000
     43 H19        8.4912   11.0230   -2.3954 H         1 RES1    0.0000
     44 H20        7.2600   11.6532   -3.2010 H         1 RES1    0.0000
     45 H21        7.1946   10.1351   -2.6986 H         1 RES1    0.0000
@<TRIPOS>BOND
     1    1    2 ar
     2    2    3 1
     3    4    2 ar
     4    5    4 1
     5    6    4 ar
     6    7    6 ar
     7    8    7 1
     8    9    1 ar
     9   10    9 1
    10   11    1 1
    11   12   11 1
    12   13   11 1
    13   14   11 1
    14   15   14 1
    15   16   14 1
    16   17   14 1
    17   18   17 1
    18   19   18 1
    19   20   18 2
    20   21   20 1
    21   22   20 1
    22   23   22 1
    23   24   23 1
    24   25   23 1
    25   26    6 1
    26   27   26 1
    27   28   26 1
    28   29   17 2
    29   30   29 1
    30   31   29 1
    31   32   31 3
    32   33   22 2
    33   34   33 1
    34   35   36 2
    35   36   34 1
    36   37   36 1
    37   38   37 1
    38   39   38 1
    39   40   38 1
    40   41   38 1
    41   42   37 1
    42   43   42 1
    43   44   42 1
    44   45   42 1
    45    7    9 ar
    46   23   26 1
@<TRIPOS>SUBSTRUCTURE
     1 RES1 1

@<TRIPOS>CRYSIN
   8.1878   14.1611   14.4546  90.0000  92.6920  90.0000  14 1

