# MOL2 file generated by ConQuest
# Please check atom types

@<TRIPOS>MOLECULE
LITQAH
    98   104     2
SMALL
NO_CHARGES
****
Generated from CSD

@<TRIPOS>ATOM
      1 O1         9.0107    7.6069   29.9024 O.3       1 RES1    0.0000
      2 C1         8.7830    7.9983   32.1902 C.ar      1 RES1    0.0000
      3 C2         9.5556    7.8684   28.5837 C.3       1 RES1    0.0000
      4 H1        10.4050    8.3926   28.6327 H         1 RES1    0.0000
      5 O2         9.8982    9.5052   30.7341 O.2       1 RES1    0.0000
      6 C3         7.9913    6.8651   32.3094 C.ar      1 RES1    0.0000
      7 H2         7.7553    6.3541   31.5443 H         1 RES1    0.0000
      8 C4         9.7209    6.6111   27.7484 C.3       1 RES1    0.0000
      9 H3         9.1117    5.8732   28.0027 H         1 RES1    0.0000
     10 H4        10.6560    6.2950   27.6730 H         1 RES1    0.0000
     11 N1         6.6910    5.3206   33.6816 N.pl3     1 RES1    0.0000
     12 C5         7.5551    6.4969   33.5618 C.ar      1 RES1    0.0000
     13 C6         9.2377    7.4381   26.5381 C.3       1 RES1    0.0000
     14 H5         8.5841    6.9635   25.9659 H         1 RES1    0.0000
     15 H6         9.9729    7.8219   25.9986 H         1 RES1    0.0000
     16 C7         7.8553    7.2167   34.7000 C.ar      1 RES1    0.0000
     17 H7         7.5535    6.9408   35.5591 H         1 RES1    0.0000
     18 C8         8.5929    8.4435   27.5190 C.3       1 RES1    0.0000
     19 N2         8.8619    9.2097   35.7086 N.pl3     1 RES1    0.0000
     20 C9         8.6110    8.3511   34.5329 C.ar      1 RES1    0.0000
     21 C10        8.6343    9.9544   27.2249 C.3       1 RES1    0.0000
     22 C11        9.0949    8.7567   33.3079 C.ar      1 RES1    0.0000
     23 H8         9.6304    9.5375   33.2318 H         1 RES1    0.0000
     24 C12        8.0516   10.2662   25.8236 C.3       1 RES1    0.0000
     25 H9         8.0378    9.4465   25.2674 H         1 RES1    0.0000
     26 H10        7.1253   10.6050   25.9072 H         1 RES1    0.0000
     27 C13        9.2974    8.4712   30.8722 C.2       1 RES1    0.0000
     28 C14        8.9404   11.3177   25.1858 C.3       1 RES1    0.0000
     29 H11        9.4857   10.9199   24.4612 H         1 RES1    0.0000
     30 H12        8.3951   12.0511   24.8072 H         1 RES1    0.0000
     31 C15        9.8282   11.8342   26.3021 C.3       1 RES1    0.0000
     32 H13        9.3892   12.5741   26.7917 H         1 RES1    0.0000
     33 H14       10.6964   12.1523   25.9463 H         1 RES1    0.0000
     34 C16       10.0192   10.6183   27.2063 C.3       1 RES1    0.0000
     35 H15       10.2928   10.8926   28.1170 H         1 RES1    0.0000
     36 H16       10.7013   10.0047   26.8342 H         1 RES1    0.0000
     37 C17        7.1185    8.1839   27.8140 C.3       1 RES1    0.0000
     38 H17        7.0161    7.4069   28.4173 H         1 RES1    0.0000
     39 H18        6.6234    8.0015   26.9778 H         1 RES1    0.0000
     40 C18        6.5948    9.4581   28.4829 C.3       1 RES1    0.0000
     41 H19        6.4098    9.2976   29.4422 H         1 RES1    0.0000
     42 H20        5.7621    9.7660   28.0451 H         1 RES1    0.0000
     43 C19        7.7169   10.5033   28.3131 C.3       1 RES1    0.0000
     44 H21        7.3409   11.3781   28.0419 H         1 RES1    0.0000
     45 H22        8.2150   10.6209   29.1615 H         1 RES1    0.0000
     46 O3         6.5007    4.8405   34.7927 O.2       1 RES1    0.0000
     47 O4         6.2079    4.8682   32.6521 O.2       1 RES1    0.0000
     48 O5         8.3774    8.8645   36.7727 O.2       1 RES1    0.0000
     49 O6         9.5250   10.2253   35.5350 O.2       1 RES1    0.0000
     50 O7         4.1034    2.7494   29.1925 O.3       2 RES2    0.0000
     51 C20        3.8727    2.9514   31.5181 C.ar      2 RES2    0.0000
     52 C21        4.5366    2.0153   28.0246 C.3       2 RES2    0.0000
     53 H23        5.5042    1.7736   28.0974 H         2 RES2    0.0000
     54 O8         4.9565    1.1148   30.4766 O.2       2 RES2    0.0000
     55 C22        4.1777    2.4772   32.7801 C.ar      2 RES2    0.0000
     56 H24        4.6744    1.6747   32.8858 H         2 RES2    0.0000
     57 C23        3.7059    0.8009   27.5980 C.3       2 RES2    0.0000
     58 H25        2.7570    0.8402   27.8754 H         2 RES2    0.0000
     59 H26        4.1144   -0.0716   27.8265 H         2 RES2    0.0000
     60 C24        3.7522    3.1839   33.8742 C.ar      2 RES2    0.0000
     61 N3         4.1183    2.6849   35.2115 N.pl3     2 RES2    0.0000
     62 C25        3.9618    1.2587   26.1366 C.3       2 RES2    0.0000
     63 H27        3.1635    1.2017   25.5546 H         2 RES2    0.0000
     64 H28        4.7443    0.8265   25.7113 H         2 RES2    0.0000
     65 C26        3.0248    4.3568   33.7749 C.ar      2 RES2    0.0000
     66 H29        2.7344    4.8318   34.5440 H         2 RES2    0.0000
     67 C27        4.2469    2.6875   26.6762 C.3       2 RES2    0.0000
     68 N4         1.9898    6.0523   32.3606 N.pl3     2 RES2    0.0000
     69 C28        2.7445    4.8004   32.4987 C.ar      2 RES2    0.0000
     70 C29        5.3516    3.5364   26.0338 C.3       2 RES2    0.0000
     71 C30        3.1443    4.1277   31.3664 C.ar      2 RES2    0.0000
     72 H30        2.9283    4.4578   30.5030 H         2 RES2    0.0000
     73 C31        5.2079    3.5889   24.4961 C.3       2 RES2    0.0000
     74 H31        4.6213    2.8570   24.1805 H         2 RES2    0.0000
     75 H32        4.8122    4.4521   24.2164 H         2 RES2    0.0000
     76 C32        4.3711    2.1623   30.3529 C.2       2 RES2    0.0000
     77 C33        6.6115    3.4346   23.9105 C.3       2 RES2    0.0000
     78 H33        6.7326    2.5296   23.5276 H         2 RES2    0.0000
     79 H34        6.7690    4.1042   23.1980 H         2 RES2    0.0000
     80 C34        7.5575    3.6547   25.0735 C.3       2 RES2    0.0000
     81 H35        8.4177    3.1856   24.9312 H         2 RES2    0.0000
     82 H36        7.7327    4.6181   25.2152 H         2 RES2    0.0000
     83 C35        6.7936    3.0592   26.2336 C.3       2 RES2    0.0000
     84 H37        7.1549    3.3834   27.0953 H         2 RES2    0.0000
     85 H38        6.8419    2.0703   26.2173 H         2 RES2    0.0000
     86 C36        3.0120    3.6069   26.6948 C.3       2 RES2    0.0000
     87 H39        2.4548    3.4573   25.8908 H         2 RES2    0.0000
     88 H40        2.4608    3.4334   27.5000 H         2 RES2    0.0000
     89 C37        3.5543    5.0344   26.7137 C.3       2 RES2    0.0000
     90 H41        3.2649    5.5037   27.5359 H         2 RES2    0.0000
     91 H42        3.2275    5.5401   25.9267 H         2 RES2    0.0000
     92 C38        5.0869    4.9122   26.6752 C.3       2 RES2    0.0000
     93 H43        5.4668    4.9535   27.5882 H         2 RES2    0.0000
     94 H44        5.4845    5.6368   26.1291 H         2 RES2    0.0000
     95 O9         3.6685    3.2734   36.1760 O.2       2 RES2    0.0000
     96 O10        4.8743    1.7247   35.2774 O.2       2 RES2    0.0000
     97 O11        1.7742    6.7126   33.3663 O.2       2 RES2    0.0000
     98 O12        1.6353    6.3868   31.2303 O.2       2 RES2    0.0000
@<TRIPOS>BOND
     1    1    3 1
     2    2    6 ar
     3    3    4 1
     4    5   27 2
     5    6    7 1
     6    8    3 1
     7    9    8 1
     8   10    8 1
     9   11   12 1
    10   12    6 ar
    11   13    8 1
    12   14   13 1
    13   15   13 1
    14   16   12 ar
    15   17   16 1
    16   18    3 1
    17   19   20 1
    18   20   16 ar
    19   21   18 1
    20   22    2 ar
    21   23   22 1
    22   24   21 1
    23   25   24 1
    24   26   24 1
    25   27    1 1
    26   28   24 1
    27   29   28 1
    28   30   28 1
    29   31   28 1
    30   32   31 1
    31   33   31 1
    32   34   21 1
    33   35   34 1
    34   36   34 1
    35   37   18 1
    36   38   37 1
    37   39   37 1
    38   40   37 1
    39   41   40 1
    40   42   40 1
    41   43   21 1
    42   44   43 1
    43   45   43 1
    44   46   11 2
    45   47   11 2
    46   48   19 2
    47   49   19 2
    48   50   52 1
    49   51   55 ar
    50   52   53 1
    51   54   76 2
    52   55   56 1
    53   57   52 1
    54   58   57 1
    55   59   57 1
    56   60   55 ar
    57   61   60 1
    58   62   57 1
    59   63   62 1
    60   64   62 1
    61   65   60 ar
    62   66   65 1
    63   67   52 1
    64   68   69 1
    65   69   65 ar
    66   70   67 1
    67   71   51 ar
    68   72   71 1
    69   73   70 1
    70   74   73 1
    71   75   73 1
    72   76   50 1
    73   77   73 1
    74   78   77 1
    75   79   77 1
    76   80   77 1
    77   81   80 1
    78   82   80 1
    79   83   70 1
    80   84   83 1
    81   85   83 1
    82   86   67 1
    83   87   86 1
    84   88   86 1
    85   89   86 1
    86   90   89 1
    87   91   89 1
    88   92   70 1
    89   93   92 1
    90   94   92 1
    91   95   61 2
    92   96   61 2
    93   97   68 2
    94   98   68 2
    95    2   27 1
    96   13   18 1
    97   20   22 ar
    98   31   34 1
    99   40   43 1
   100   51   76 1
   101   62   67 1
   102   69   71 ar
   103   80   83 1
   104   89   92 1
@<TRIPOS>SUBSTRUCTURE
     1 RES1 1
     2 RES2 50

@<TRIPOS>CRYSIN
   9.8430   11.3690   32.6410  90.0000  90.0000  90.0000  19 1

