# MOL2 file generated by ConQuest
# Please check atom types

@<TRIPOS>MOLECULE
LITRAH
    35    36     1
SMALL
NO_CHARGES
****
Generated from CSD

@<TRIPOS>ATOM
      1 N1         5.8100    1.4781    2.0607 N.3       1 RES1    0.0000
      2 C1         8.4201    2.5645    1.2461 C.2       1 RES1    0.0000
      3 H1         9.1632    2.0881    0.8282 H         1 RES1    0.0000
      4 O1         6.5078    3.0363   -1.7691 O.2       1 RES1    0.0000
      5 N2         7.4469    2.8281   -1.0263 N.pl3     1 RES1    0.0000
      6 O2         8.5956    2.7037   -1.4194 O.2       1 RES1    0.0000
      7 C2         8.4888    3.0253    2.4786 C.2       1 RES1    0.0000
      8 H2         9.2410    2.9341    2.9704 H         1 RES1    0.0000
      9 O3         5.3285    6.0874    2.0868 O.2       1 RES1    0.0000
     10 N3         5.4144    5.1281    2.8251 N.pl3     1 RES1    0.0000
     11 C3         7.3872    3.7514    3.1801 C.3       1 RES1    0.0000
     12 H3         7.6976    4.6480    3.3853 H         1 RES1    0.0000
     13 H4         7.2148    3.2621    3.9902 H         1 RES1    0.0000
     14 O4         4.9980    5.1079    3.9762 O.2       1 RES1    0.0000
     15 C4         6.1146    3.8712    2.3287 C.3       1 RES1    0.0000
     16 C5         6.4467    4.0242    0.8555 C.3       1 RES1    0.0000
     17 H5         7.0191    4.7448    0.7181 H         1 RES1    0.0000
     18 H6         5.6288    4.1643    0.3168 H         1 RES1    0.0000
     19 C6         7.1496    2.7193    0.4663 C.3       1 RES1    0.0000
     20 C7         6.1801    1.5149    0.6433 C.3       1 RES1    0.0000
     21 H7         5.3777    1.6965    0.0483 H         1 RES1    0.0000
     22 C8         5.1278    2.7028    2.5270 C.3       1 RES1    0.0000
     23 H8         5.0081    2.5655    3.4667 H         1 RES1    0.0000
     24 C9         3.7424    2.9405    1.9174 C.3       1 RES1    0.0000
     25 H9         3.1650    2.2568    2.1678 H         1 RES1    0.0000
     26 H10        3.7568    2.9820    0.9067 H         1 RES1    0.0000
     27 H11        3.3345    3.7441    2.1965 H         1 RES1    0.0000
     28 C10        6.8381    0.2129    0.2112 C.3       1 RES1    0.0000
     29 H12        6.2386   -0.5621    0.2942 H         1 RES1    0.0000
     30 H13        7.5680   -0.0230    0.8252 H         1 RES1    0.0000
     31 H14        7.1779    0.2894   -0.6743 H         1 RES1    0.0000
     32 C11        5.0439    0.2884    2.4258 C.3       1 RES1    0.0000
     33 H15        4.2507    0.1613    1.8827 H         1 RES1    0.0000
     34 H16        4.7831    0.3843    3.3415 H         1 RES1    0.0000
     35 H17        5.6560   -0.5216    2.3760 H         1 RES1    0.0000
@<TRIPOS>BOND
     1    1   20 1
     2    2    3 1
     3    4    5 2
     4    5    6 2
     5    7    2 2
     6    8    7 1
     7    9   10 2
     8   10   14 2
     9   11    7 1
    10   12   11 1
    11   13   11 1
    12   15   10 1
    13   16   15 1
    14   17   16 1
    15   18   16 1
    16   19    2 1
    17   20   19 1
    18   21   20 1
    19   22    1 1
    20   23   22 1
    21   24   22 1
    22   25   24 1
    23   26   24 1
    24   27   24 1
    25   28   20 1
    26   29   28 1
    27   30   28 1
    28   31   28 1
    29   32    1 1
    30   33   32 1
    31   34   32 1
    32   35   32 1
    33    5   19 1
    34   11   15 1
    35   15   22 1
    36   16   19 1
@<TRIPOS>SUBSTRUCTURE
     1 RES1 1

@<TRIPOS>CRYSIN
   8.7360    9.2150   15.6470  90.0000 105.3900  90.0000  14 1

