# MOL2 file generated by ConQuest
# Please check atom types

@<TRIPOS>MOLECULE
LITTAK
    86    90     2
SMALL
USER_CHARGES
****
Generated from CSD

@<TRIPOS>ATOM
      1 O1         2.2346    2.6357    1.7211 O.2       1 RES1   -1.0000
      2 O2        -1.3139    2.8982    3.6703 O.3       1 RES1    0.0000
      3 H1        -1.8985    2.4506    2.8525 H         1 RES1    0.0000
      4 O3         1.2038    3.3838    5.3069 O.2       1 RES1    0.0000
      5 N1         1.6186    3.7964    1.8234 N.pl3     1 RES1    1.0000
      6 N2         0.8164    1.1603    5.1180 N.am      1 RES1    0.0000
      7 C1         2.0552    4.8437    1.0712 C.ar      1 RES1    0.0000
      8 C2         1.4081    6.0421    1.2066 C.ar      1 RES1    0.0000
      9 H2         1.6869    6.7721    0.6840 H         1 RES1    0.0000
     10 C3         0.3830    6.2083    2.0656 C.ar      1 RES1    0.0000
     11 H3        -0.0232    7.0500    2.1668 H         1 RES1    0.0000
     12 C4        -0.0608    5.1248    2.7954 C.ar      1 RES1    0.0000
     13 H4        -0.7841    5.2217    3.3890 H         1 RES1    0.0000
     14 C5         0.5542    3.9055    2.6543 C.ar      1 RES1    0.0000
     15 C6         0.0714    2.6668    3.3205 C.3       1 RES1    0.0000
     16 H5         0.2459    1.9283    2.7445 H         1 RES1    0.0000
     17 C7         0.7725    2.4438    4.6699 C.2       1 RES1    0.0000
     18 C8         1.4318    0.8406    6.3838 C.ar      1 RES1    0.0000
     19 C9         0.7250    0.0850    7.2875 C.ar      1 RES1    0.0000
     20 H6        -0.1603   -0.1667    7.0969 H         1 RES1    0.0000
     21 C10        1.3118   -0.3062    8.4775 C.ar      1 RES1    0.0000
     22 H7         0.8364   -0.8484    9.0820 H         1 RES1    0.0000
     23 C11        2.5853    0.0972    8.7743 C.ar      1 RES1    0.0000
     24 H8         2.9844   -0.1630    9.5843 H         1 RES1    0.0000
     25 C12        3.2777    0.8815    7.8908 C.ar      1 RES1    0.0000
     26 H9         4.1424    1.1781    8.1100 H         1 RES1    0.0000
     27 C13        2.7157    1.2425    6.6731 C.ar      1 RES1    0.0000
     28 H10        3.2062    1.7542    6.0547 H         1 RES1    0.0000
     29 C14        0.2935    0.0506    4.3617 C.ar      1 RES1    0.0000
     30 C15       -1.0714   -0.1393    4.2371 C.ar      1 RES1    0.0000
     31 H11       -1.6761    0.4557    4.6404 H         1 RES1    0.0000
     32 C16       -1.5283   -1.2268    3.5041 C.ar      1 RES1    0.0000
     33 H12       -2.4527   -1.3615    3.3976 H         1 RES1    0.0000
     34 C17       -0.6418   -2.1057    2.9348 C.ar      1 RES1    0.0000
     35 H13       -0.9614   -2.8359    2.4376 H         1 RES1    0.0000
     36 C18        0.7048   -1.9244    3.0863 C.ar      1 RES1    0.0000
     37 H14        1.3057   -2.5377    2.7033 H         1 RES1    0.0000
     38 C19        1.1889   -0.8384    3.8018 C.ar      1 RES1    0.0000
     39 H15        2.1148   -0.7094    3.9033 H         1 RES1    0.0000
     40 C20        3.2035    4.5988    0.1735 C.3       1 RES1    0.0000
     41 H16        3.9735    4.3289    0.6994 H         1 RES1    0.0000
     42 H17        3.4139    5.4125   -0.3120 H         1 RES1    0.0000
     43 H18        2.9784    3.8954   -0.4560 H         1 RES1    0.0000
     44 O4         7.5390    2.2330    2.0250 O.2       2 RES2   -1.0000
     45 O5         3.8766    1.5919    3.5575 O.3       2 RES2    0.0000
     46 H19        3.3673    1.9931    3.0170 H         2 RES2    0.0000
     47 O6         6.4687    1.1623    5.0662 O.2       2 RES2    0.0000
     48 N3         6.9830    1.0712    1.7747 N.pl3     2 RES2    1.0000
     49 N4         6.0247    3.3775    4.9517 N.am      2 RES2    0.0000
     50 C21        7.5743    0.2038    0.9063 C.ar      2 RES2    0.0000
     51 C22        6.9595   -1.0056    0.6735 C.ar      2 RES2    0.0000
     52 H20        7.3488   -1.6134    0.0720 H         2 RES2    0.0000
     53 C23        5.7925   -1.3383    1.3023 C.ar      2 RES2    0.0000
     54 H21        5.3968   -2.1783    1.1571 H         2 RES2    0.0000
     55 C24        5.2017   -0.4297    2.1495 C.ar      2 RES2    0.0000
     56 H22        4.3942   -0.6428    2.5799 H         2 RES2    0.0000
     57 C25        5.7955    0.7867    2.3655 C.ar      2 RES2    0.0000
     58 C26        5.1982    1.9023    3.1749 C.3       2 RES2    0.0000
     59 H23        5.1945    2.7192    2.6176 H         2 RES2    0.0000
     60 C27        5.9814    2.1031    4.4760 C.2       2 RES2    0.0000
     61 C28        5.5090    4.5314    4.2676 C.ar      2 RES2    0.0000
     62 C29        6.3788    5.3556    3.6095 C.ar      2 RES2    0.0000
     63 H24        7.2871    5.1291    3.5330 H         2 RES2    0.0000
     64 C30        5.8944    6.5382    3.0548 C.ar      2 RES2    0.0000
     65 H25        6.4783    7.1222    2.6056 H         2 RES2    0.0000
     66 C31        4.5626    6.8470    3.1679 C.ar      2 RES2    0.0000
     67 H26        4.2382    7.6520    2.8079 H         2 RES2    0.0000
     68 C32        3.7089    5.9997    3.7953 C.ar      2 RES2    0.0000
     69 H27        2.7925    6.2072    3.8399 H         2 RES2    0.0000
     70 C33        4.1707    4.8427    4.3643 C.ar      2 RES2    0.0000
     71 H28        3.5802    4.2678    4.8153 H         2 RES2    0.0000
     72 C34        6.6591    3.6735    6.2086 C.ar      2 RES2    0.0000
     73 C35        8.0059    3.5609    6.3565 C.ar      2 RES2    0.0000
     74 H29        8.5431    3.2156    5.6655 H         2 RES2    0.0000
     75 C36        8.5682    3.9745    7.5700 C.ar      2 RES2    0.0000
     76 H30        9.4974    3.9084    7.6969 H         2 RES2    0.0000
     77 C37        7.7825    4.4749    8.5711 C.ar      2 RES2    0.0000
     78 H31        8.1725    4.7642    9.3751 H         2 RES2    0.0000
     79 C38        6.4665    4.5512    8.4004 C.ar      2 RES2    0.0000
     80 H32        5.9258    4.8790    9.0957 H         2 RES2    0.0000
     81 C39        5.8905    4.1557    7.2238 C.ar      2 RES2    0.0000
     82 H33        4.9587    4.2178    7.1158 H         2 RES2    0.0000
     83 C40        8.8434    0.6307    0.2763 C.3       2 RES2    0.0000
     84 H34        8.7288    1.5096   -0.1183 H         2 RES2    0.0000
     85 H35        9.0899   -0.0037   -0.4148 H         2 RES2    0.0000
     86 H36        9.5423    0.6650    0.9480 H         2 RES2    0.0000
@<TRIPOS>BOND
     1    1    5 1
     2    2    3 1
     3    4   17 2
     4    5    7 ar
     5    6   17 1
     6    7    8 ar
     7    8    9 1
     8   10    8 ar
     9   11   10 1
    10   12   10 ar
    11   13   12 1
    12   14    5 ar
    13   15    2 1
    14   16   15 1
    15   17   15 1
    16   18    6 1
    17   19   18 ar
    18   20   19 1
    19   21   19 ar
    20   22   21 1
    21   23   21 ar
    22   24   23 1
    23   25   23 ar
    24   26   25 1
    25   27   18 ar
    26   28   27 1
    27   29    6 1
    28   30   29 ar
    29   31   30 1
    30   32   30 ar
    31   33   32 1
    32   34   32 ar
    33   35   34 1
    34   36   34 ar
    35   37   36 1
    36   38   29 ar
    37   39   38 1
    38   40    7 1
    39   41   40 1
    40   42   40 1
    41   43   40 1
    42   44   48 1
    43   45   46 1
    44   47   60 2
    45   48   50 ar
    46   49   60 1
    47   50   51 ar
    48   51   52 1
    49   53   51 ar
    50   54   53 1
    51   55   53 ar
    52   56   55 1
    53   57   48 ar
    54   58   45 1
    55   59   58 1
    56   60   58 1
    57   61   49 1
    58   62   61 ar
    59   63   62 1
    60   64   62 ar
    61   65   64 1
    62   66   64 ar
    63   67   66 1
    64   68   66 ar
    65   69   68 1
    66   70   61 ar
    67   71   70 1
    68   72   49 1
    69   73   72 ar
    70   74   73 1
    71   75   73 ar
    72   76   75 1
    73   77   75 ar
    74   78   77 1
    75   79   77 ar
    76   80   79 1
    77   81   72 ar
    78   82   81 1
    79   83   50 1
    80   84   83 1
    81   85   83 1
    82   86   83 1
    83   12   14 ar
    84   14   15 1
    85   25   27 ar
    86   36   38 ar
    87   55   57 ar
    88   57   58 1
    89   68   70 ar
    90   79   81 ar
@<TRIPOS>SUBSTRUCTURE
     1 RES1 1
     2 RES2 44

@<TRIPOS>CRYSIN
  10.7259   18.5233   17.1998  90.0000  94.6870  90.0000  14 1

