# MOL2 file generated by ConQuest
# Please check atom types

@<TRIPOS>MOLECULE
LIVJEF01
    17    18     1
SMALL
NO_CHARGES
****
Generated from CSD

@<TRIPOS>ATOM
      1 O1         1.3274   14.3277    1.4253 O.3       1 RES1    0.0000
      2 N1         1.8774   15.4741    2.0928 N.2       1 RES1    0.0000
      3 C1         1.6777   15.2200    3.3723 C.2       1 RES1    0.0000
      4 C2         2.0447   16.0288    4.5066 C.2       1 RES1    0.0000
      5 H1         2.5177   16.8465    4.4103 H         1 RES1    0.0000
      6 C3         1.6762   15.5544    5.7125 C.2       1 RES1    0.0000
      7 H2         1.8838   16.0729    6.4813 H         1 RES1    0.0000
      8 N2         1.0086   14.3476    5.8955 N.am      1 RES1    0.0000
      9 H3         0.7670   14.1454    6.7170 H         1 RES1    0.0000
     10 C4         0.6422   13.4942    4.8891 C.2       1 RES1    0.0000
     11 O2         0.0435   12.4308    5.1071 O.2       1 RES1    0.0000
     12 C5         1.0242   13.9723    3.5747 C.2       1 RES1    0.0000
     13 C6         0.8377   13.4607    2.3251 C.2       1 RES1    0.0000
     14 C7         0.2482   12.2000    1.8286 C.3       1 RES1    0.0000
     15 H4        -0.2444   12.3741    0.9996 H         1 RES1    0.0000
     16 H5        -0.3655   11.8388    2.5018 H         1 RES1    0.0000
     17 H6         0.9618   11.5510    1.6552 H         1 RES1    0.0000
@<TRIPOS>BOND
     1    1    2 1
     2    2    3 2
     3    3    4 1
     4    4    5 1
     5    6    4 2
     6    7    6 1
     7    8    6 1
     8    9    8 1
     9   10    8 1
    10   11   10 2
    11   12    3 1
    12   13    1 1
    13   14   13 1
    14   15   14 1
    15   16   14 1
    16   17   14 1
    17   10   12 1
    18   12   13 2
@<TRIPOS>SUBSTRUCTURE
     1 RES1 1

@<TRIPOS>CRYSIN
   7.5200   13.0240   13.5450  90.0000  90.0000  90.0000  61 1

