# MOL2 file generated by ConQuest
# Please check atom types

@<TRIPOS>MOLECULE
LIVNUZ
    45    50     1
SMALL
NO_CHARGES
****
Generated from CSD

@<TRIPOS>ATOM
      1 O1        -4.0910    0.7061    8.8875 O.3       1 RES1    0.0000
      2 O2        -2.1803    0.5939   10.0725 O.2       1 RES1    0.0000
      3 O3        -5.7757    1.3587    7.5342 O.2       1 RES1    0.0000
      4 O4        -2.9133    8.7258    8.2214 O.2       1 RES1    0.0000
      5 O5        -3.5861    6.7627    8.8309 O.2       1 RES1    0.0000
      6 N1        -2.6977    7.5580    8.5430 N.pl3     1 RES1    0.0000
      7 C1        -1.2886    7.1193    8.6528 C.ar      1 RES1    0.0000
      8 C2        -0.3916    8.1233    8.9915 C.ar      1 RES1    0.0000
      9 C3         0.9168    7.7758    9.2811 C.ar      1 RES1    0.0000
     10 C4         1.2906    6.4478    9.2811 C.ar      1 RES1    0.0000
     11 C5         0.3958    5.4418    8.9118 C.ar      1 RES1    0.0000
     12 C6        -0.9251    5.7792    8.5306 C.ar      1 RES1    0.0000
     13 C7        -1.8039    4.6613    8.0751 C.ar      1 RES1    0.0000
     14 C8        -1.6389    3.4396    8.7602 C.ar      1 RES1    0.0000
     15 C9        -0.4015    3.2167    9.6003 C.3       1 RES1    0.0000
     16 C10        0.7593    3.9882    8.9756 C.3       1 RES1    0.0000
     17 C11       -2.6353    2.4883    8.5885 C.ar      1 RES1    0.0000
     18 C12       -2.8318    1.2014    9.2832 C.2       1 RES1    0.0000
     19 C13       -4.6860    1.5932    7.9513 C.2       1 RES1    0.0000
     20 C14       -3.7264    2.7021    7.7540 C.ar      1 RES1    0.0000
     21 C15       -3.7973    3.8051    6.9203 C.ar      1 RES1    0.0000
     22 C16       -2.7856    4.7794    7.0428 C.ar      1 RES1    0.0000
     23 C17       -2.7842    5.8916    6.0565 C.ar      1 RES1    0.0000
     24 C18       -4.0021    6.2563    5.4551 C.ar      1 RES1    0.0000
     25 C19       -5.2489    5.4976    5.8287 C.3       1 RES1    0.0000
     26 C20       -4.9155    4.0219    5.9228 C.3       1 RES1    0.0000
     27 C21       -1.6115    6.5412    5.6479 C.ar      1 RES1    0.0000
     28 C22       -1.6619    7.5733    4.7251 C.ar      1 RES1    0.0000
     29 C23       -2.8753    7.9483    4.1680 C.ar      1 RES1    0.0000
     30 C24       -4.0256    7.2808    4.5232 C.ar      1 RES1    0.0000
     31 H1        -0.7374    6.2677    5.9936 H         1 RES1    0.0000
     32 H2        -5.9316    5.6561    5.1828 H         1 RES1    0.0000
     33 H3        -0.5446    3.5759   10.6130 H         1 RES1    0.0000
     34 H4        -0.7232    9.0194    9.0274 H         1 RES1    0.0000
     35 H5        -4.8444    7.5532    4.1543 H         1 RES1    0.0000
     36 H6        -0.2159    2.2643    9.6257 H         1 RES1    0.0000
     37 H7        -4.6379    3.6851    4.9894 H         1 RES1    0.0000
     38 H8        -0.8354    7.9970    4.4513 H         1 RES1    0.0000
     39 H9         0.8826    3.6659    8.0232 H         1 RES1    0.0000
     40 H10       -5.5528    5.8113    6.7018 H         1 RES1    0.0000
     41 H11        2.1415    6.2024    9.5042 H         1 RES1    0.0000
     42 H12       -5.7009    3.4907    6.1733 H         1 RES1    0.0000
     43 H13       -2.8818    8.6564    3.5306 H         1 RES1    0.0000
     44 H14        1.5687    3.8840    9.5031 H         1 RES1    0.0000
     45 H15        1.5492    8.5354    9.4925 H         1 RES1    0.0000
@<TRIPOS>BOND
     1    1   18 1
     2    2   18 2
     3    3   19 2
     4    4    6 2
     5    5    6 2
     6    6    7 1
     7    7    8 ar
     8    8    9 ar
     9    9   10 ar
    10   10   11 ar
    11   11   12 ar
    12   12    7 ar
    13   13   12 1
    14   14   13 ar
    15   15   14 1
    16   16   11 1
    17   17   14 ar
    18   18   17 1
    19   19    1 1
    20   20   17 ar
    21   21   20 ar
    22   22   13 ar
    23   23   22 1
    24   24   23 ar
    25   25   24 1
    26   26   21 1
    27   27   23 ar
    28   28   27 ar
    29   29   28 ar
    30   30   24 ar
    31   31   27 1
    32   32   25 1
    33   33   15 1
    34   34    8 1
    35   35   30 1
    36   36   15 1
    37   37   26 1
    38   38   28 1
    39   39   16 1
    40   40   25 1
    41   41   10 1
    42   42   26 1
    43   43   29 1
    44   44   16 1
    45   45    9 1
    46   15   16 1
    47   19   20 1
    48   21   22 ar
    49   25   26 1
    50   29   30 ar
@<TRIPOS>SUBSTRUCTURE
     1 RES1 1

@<TRIPOS>CRYSIN
   8.1376   11.0823   11.2149 103.6420  98.7470 108.0010   2 1

