# MOL2 file generated by ConQuest
# Please check atom types

@<TRIPOS>MOLECULE
LIVRAJ
    53    55     1
SMALL
NO_CHARGES
****
Generated from CSD

@<TRIPOS>ATOM
      1 O1         3.2340    8.3761   26.9185 O.3       1 RES1    0.0000
      2 O2         5.0829   10.6963   26.7884 O.3       1 RES1    0.0000
      3 O3         2.2882   11.4561   25.2921 O.3       1 RES1    0.0000
      4 O4         0.5945    8.9903   25.2952 O.3       1 RES1    0.0000
      5 C1         0.2367    7.0046   29.2916 C.ar      1 RES1    0.0000
      6 O5         1.5984    8.9828   31.0667 O.2       1 RES1    0.0000
      7 N1        -0.4160    8.3079   29.4496 N.pl3     1 RES1    0.0000
      8 C2         3.6266    8.2263   28.2754 C.3       1 RES1    0.0000
      9 C3         1.6130    6.9139   29.0685 C.ar      1 RES1    0.0000
     10 C4         2.7373   10.0854   25.2952 C.3       1 RES1    0.0000
     11 N2         2.4837    8.0149   29.1646 N.am      1 RES1    0.0000
     12 O6        -0.0727    9.2416   28.7432 O.2       1 RES1    0.0000
     13 C5         2.8439    9.7567   26.7853 C.3       1 RES1    0.0000
     14 C6         3.8891   10.5240   27.5598 C.3       1 RES1    0.0000
     15 O7         5.0215   12.9132   27.0765 O.2       1 RES1    0.0000
     16 O8        -1.3424    8.3753   30.2582 O.2       1 RES1    0.0000
     17 C7         1.8020    9.1867   24.5269 C.3       1 RES1    0.0000
     18 C8         5.5400   11.9654   26.6087 C.2       1 RES1    0.0000
     19 C9         2.3932    8.9836   30.1528 C.2       1 RES1    0.0000
     20 C10        4.1734    9.5978   28.7432 C.3       1 RES1    0.0000
     21 C11        2.8819   12.2949   24.4184 C.2       1 RES1    0.0000
     22 C12       -0.2649    8.0707   24.8150 C.2       1 RES1    0.0000
     23 O9        -0.1058    7.5181   23.7864 O.2       1 RES1    0.0000
     24 C13       -0.5848    5.9036   29.3257 C.ar      1 RES1    0.0000
     25 C14       -0.0767    4.6528   29.0499 C.ar      1 RES1    0.0000
     26 N3         3.3600    9.8865   29.8957 N.am      1 RES1    0.0000
     27 O10        3.7041   11.9454   23.6346 O.2       1 RES1    0.0000
     28 C15        6.7823   11.9579   25.7661 C.3       1 RES1    0.0000
     29 C16        2.3690   13.6830   24.5888 C.3       1 RES1    0.0000
     30 C17        1.2713    4.5446   28.7928 C.ar      1 RES1    0.0000
     31 C18        2.1024    5.6398   28.8114 C.ar      1 RES1    0.0000
     32 C19       -1.4207    7.8610   25.7444 C.3       1 RES1    0.0000
     33 H1         4.2824    7.5331   28.3777 H         1 RES1    0.0000
     34 H2         3.6112   10.0397   24.8986 H         1 RES1    0.0000
     35 H3         1.9869    9.8832   27.2004 H         1 RES1    0.0000
     36 H4         3.5466   11.3695   27.8572 H         1 RES1    0.0000
     37 H5         1.5879    9.5853   23.6811 H         1 RES1    0.0000
     38 H6         2.2244    8.3403   24.3627 H         1 RES1    0.0000
     39 H7         5.1079    9.5611   28.9601 H         1 RES1    0.0000
     40 H8        -1.5144    6.0060   29.5394 H         1 RES1    0.0000
     41 H9        -0.6454    3.8797   29.0407 H         1 RES1    0.0000
     42 H10        3.4876   10.6164   30.4069 H         1 RES1    0.0000
     43 H11        7.0924   12.8583   25.6452 H         1 RES1    0.0000
     44 H12        7.4623   11.4403   26.2029 H         1 RES1    0.0000
     45 H13        6.5868   11.5701   24.9079 H         1 RES1    0.0000
     46 H14        2.8011   14.2639   23.9599 H         1 RES1    0.0000
     47 H15        1.4207   13.6947   24.4370 H         1 RES1    0.0000
     48 H16        2.5539   13.9843   25.4810 H         1 RES1    0.0000
     49 H17        1.6404    3.6817   28.5914 H         1 RES1    0.0000
     50 H18        3.0410    5.5208   28.6441 H         1 RES1    0.0000
     51 H19       -2.0136    7.2027   25.3757 H         1 RES1    0.0000
     52 H20       -1.0960    7.5572   26.5963 H         1 RES1    0.0000
     53 H21       -1.8932    8.6890   25.8590 H         1 RES1    0.0000
@<TRIPOS>BOND
     1    1    8 1
     2    2   14 1
     3    3   10 1
     4    4   17 1
     5    5    7 1
     6    6   19 2
     7    7   12 2
     8    8   11 1
     9    9    5 ar
    10   10   13 1
    11   11    9 1
    12   13    1 1
    13   14   13 1
    14   15   18 2
    15   16    7 2
    16   17   10 1
    17   18    2 1
    18   19   11 1
    19   20    8 1
    20   21    3 1
    21   22    4 1
    22   23   22 2
    23   24    5 ar
    24   25   24 ar
    25   26   19 1
    26   27   21 2
    27   28   18 1
    28   29   21 1
    29   30   25 ar
    30   31    9 ar
    31   32   22 1
    32   33    8 1
    33   34   10 1
    34   35   13 1
    35   36   14 1
    36   37   17 1
    37   38   17 1
    38   39   20 1
    39   40   24 1
    40   41   25 1
    41   42   26 1
    42   43   28 1
    43   44   28 1
    44   45   28 1
    45   46   29 1
    46   47   29 1
    47   48   29 1
    48   49   30 1
    49   50   31 1
    50   51   32 1
    51   52   32 1
    52   53   32 1
    53   14   20 1
    54   20   26 1
    55   30   31 ar
@<TRIPOS>SUBSTRUCTURE
     1 RES1 1

@<TRIPOS>CRYSIN
   8.0770    8.3220   30.9800  90.0000  90.0000  90.0000  19 1

