# MOL2 file generated by ConQuest
# Please check atom types

@<TRIPOS>MOLECULE
LIVROY
    23    24     1
SMALL
NO_CHARGES
****
Generated from CSD

@<TRIPOS>ATOM
      1 N1        -2.1196    1.9317    5.4292 N.2       1 RES1    0.0000
      2 O1        -3.4445    2.3403    5.5620 O.3       1 RES1    0.0000
      3 H1        -3.6734    2.7498    4.8887 H         1 RES1    0.0000
      4 O2         0.1969    1.6917    4.3258 O.3       1 RES1    0.0000
      5 H2        -0.5867    1.9252    4.3836 H         1 RES1    0.0000
      6 C1        -1.6980    1.2891    6.4351 C.2       1 RES1    0.0000
      7 H3        -2.2720    1.1350    7.1502 H         1 RES1    0.0000
      8 C2        -0.3345    0.7874    6.4940 C.ar      1 RES1    0.0000
      9 C3         0.5504    1.0079    5.4490 C.ar      1 RES1    0.0000
     10 C4         1.8676    0.5377    5.4994 C.ar      1 RES1    0.0000
     11 H4         2.4452    0.7065    4.7912 H         1 RES1    0.0000
     12 C5         2.3025   -0.1558    6.5654 C.ar      1 RES1    0.0000
     13 H5         3.1739   -0.4811    6.5687 H         1 RES1    0.0000
     14 C6         1.4657   -0.4062    7.6894 C.ar      1 RES1    0.0000
     15 C7         0.1277    0.0680    7.6410 C.ar      1 RES1    0.0000
     16 C8        -0.6960   -0.2043    8.7693 C.ar      1 RES1    0.0000
     17 H6        -1.5822    0.0765    8.7657 H         1 RES1    0.0000
     18 C9        -0.2101   -0.8671    9.8502 C.ar      1 RES1    0.0000
     19 H7        -0.7694   -1.0253   10.5761 H         1 RES1    0.0000
     20 C10        1.1017   -1.3130    9.8932 C.ar      1 RES1    0.0000
     21 H8         1.4221   -1.7532   10.6466 H         1 RES1    0.0000
     22 C11        1.9207   -1.1010    8.8218 C.ar      1 RES1    0.0000
     23 H9         2.7936   -1.4218    8.8422 H         1 RES1    0.0000
@<TRIPOS>BOND
     1    1    2 1
     2    2    3 1
     3    4    5 1
     4    6    1 2
     5    7    6 1
     6    8    6 1
     7    9    4 1
     8   10    9 ar
     9   11   10 1
    10   12   10 ar
    11   13   12 1
    12   14   12 ar
    13   15    8 ar
    14   16   15 ar
    15   17   16 1
    16   18   16 ar
    17   19   18 1
    18   20   18 ar
    19   21   20 1
    20   22   14 ar
    21   23   22 1
    22    8    9 ar
    23   14   15 ar
    24   20   22 ar
@<TRIPOS>SUBSTRUCTURE
     1 RES1 1

@<TRIPOS>CRYSIN
  14.8382    4.0462   16.5270  90.0000 114.9330  90.0000  14 1

