# MOL2 file generated by ConQuest
# Please check atom types

@<TRIPOS>MOLECULE
LIVSEP
    20    21     1
SMALL
NO_CHARGES
****
Generated from CSD

@<TRIPOS>ATOM
      1 N1         0.9006    7.3565    1.6123 N.am      1 RES1    0.0000
      2 C1         0.4810    8.5604    2.0410 C.2       1 RES1    0.0000
      3 O1         1.9268    7.3383    0.6883 O.3       1 RES1    0.0000
      4 H1         1.5195    7.6479   -0.1257 H         1 RES1    0.0000
      5 C2         0.4546    6.1180    2.0997 C.ar      1 RES1    0.0000
      6 O2         0.8363    9.6299    1.5588 O.2       1 RES1    0.0000
      7 C3         0.9070    4.9189    1.5580 C.ar      1 RES1    0.0000
      8 H2         1.5071    4.9152    0.8466 H         1 RES1    0.0000
      9 C4         0.4452    3.7335    2.0976 C.ar      1 RES1    0.0000
     10 H3         0.7427    2.9248    1.7487 H         1 RES1    0.0000
     11 N1B       -0.9006    7.3565    3.6265 N.am      1 RES1    0.0000
     12 C1B       -0.4810    8.5604    3.1977 C.2       1 RES1    0.0000
     13 O1B       -1.9268    7.3383    4.5505 O.3       1 RES1    0.0000
     14 H1B       -1.5195    7.6479    5.3645 H         1 RES1    0.0000
     15 C2B       -0.4546    6.1180    3.1391 C.ar      1 RES1    0.0000
     16 O2B       -0.8363    9.6299    3.6799 O.2       1 RES1    0.0000
     17 C3B       -0.9070    4.9189    3.6807 C.ar      1 RES1    0.0000
     18 H2B       -1.5071    4.9152    4.3922 H         1 RES1    0.0000
     19 C4B       -0.4452    3.7335    3.1412 C.ar      1 RES1    0.0000
     20 H3B       -0.7427    2.9248    3.4901 H         1 RES1    0.0000
@<TRIPOS>BOND
     1    1    2 1
     2    2    6 2
     3    3    1 1
     4    4    3 1
     5    5    1 1
     6    7    5 ar
     7    8    7 1
     8    9    7 ar
     9   10    9 1
    10   11   12 1
    11   12    2 1
    12   13   11 1
    13   14   13 1
    14   15    5 ar
    15   16   12 2
    16   17   15 ar
    17   18   17 1
    18   19    9 ar
    19   20   19 1
    20   11   15 1
    21   17   19 ar
@<TRIPOS>SUBSTRUCTURE
     1 RES1 1

@<TRIPOS>CRYSIN
   4.2562   17.6300   10.4775  90.0000  90.0000  90.0000  20 1

