# MOL2 file generated by ConQuest
# Please check atom types

@<TRIPOS>MOLECULE
LIVSIS
    31    33     1
SMALL
NO_CHARGES
****
Generated from CSD

@<TRIPOS>ATOM
      1 N1         0.3856    6.6435    1.7903 N.am      1 RES1    0.0000
      2 C1        -0.7752    7.3013    1.9704 C.2       1 RES1    0.0000
      3 O1        -1.8569    6.7823    2.0633 O.2       1 RES1    0.0000
      4 O2        -0.6587    8.6455    2.0275 O.3       1 RES1    0.0000
      5 C2         0.6503    9.2003    2.2720 C.3       1 RES1    0.0000
      6 C3         1.6363    8.6583    1.2736 C.3       1 RES1    0.0000
      7 C4         1.6886    7.1412    1.3879 C.3       1 RES1    0.0000
      8 C5         2.7129    6.6164    2.3942 C.3       1 RES1    0.0000
      9 C6         2.5244    5.1264    2.6529 C.3       1 RES1    0.0000
     10 C7         1.0908    4.6645    2.7129 C.3       1 RES1    0.0000
     11 O3         0.2938    5.2436    1.6723 O.3       1 RES1    0.0000
     12 O4         3.1962    4.5658    1.5215 O.3       1 RES1    0.0000
     13 O5         4.0189    6.6807    1.8389 O.3       1 RES1    0.0000
     14 C8         4.3186    5.3966    1.2392 C.3       1 RES1    0.0000
     15 C9         4.4485    5.5167   -0.2623 C.3       1 RES1    0.0000
     16 C10        5.5719    4.8690    1.9003 C.3       1 RES1    0.0000
     17 H1         0.9379    8.9744    3.1703 H         1 RES1    0.0000
     18 H2         0.6127   10.1669    2.2012 H         1 RES1    0.0000
     19 H3         2.5158    9.0316    1.4436 H         1 RES1    0.0000
     20 H4         1.3677    8.9100    0.3759 H         1 RES1    0.0000
     21 H5         1.9033    6.7708    0.5067 H         1 RES1    0.0000
     22 H6         2.6671    7.1226    3.2325 H         1 RES1    0.0000
     23 H7         2.9898    4.8704    3.4762 H         1 RES1    0.0000
     24 H8         1.0634    3.6993    2.6350 H         1 RES1    0.0000
     25 H9         0.7146    4.9062    3.5734 H         1 RES1    0.0000
     26 H10        5.2289    6.0330   -0.4760 H         1 RES1    0.0000
     27 H11        3.6690    5.9515   -0.6168 H         1 RES1    0.0000
     28 H12        4.5291    4.6402   -0.6468 H         1 RES1    0.0000
     29 H13        6.2938    5.4853    1.7560 H         1 RES1    0.0000
     30 H14        5.7977    4.0167    1.5215 H         1 RES1    0.0000
     31 H15        5.4184    4.7703    2.8430 H         1 RES1    0.0000
@<TRIPOS>BOND
     1    1    2 1
     2    2    3 2
     3    4    2 1
     4    5    4 1
     5    6    5 1
     6    7    1 1
     7    8    7 1
     8    9    8 1
     9   10    9 1
    10   11    1 1
    11   12    9 1
    12   13    8 1
    13   14   12 1
    14   15   14 1
    15   16   14 1
    16   17    5 1
    17   18    5 1
    18   19    6 1
    19   20    6 1
    20   21    7 1
    21   22    8 1
    22   23    9 1
    23   24   10 1
    24   25   10 1
    25   26   15 1
    26   27   15 1
    27   28   15 1
    28   29   16 1
    29   30   16 1
    30   31   16 1
    31    6    7 1
    32   10   11 1
    33   13   14 1
@<TRIPOS>SUBSTRUCTURE
     1 RES1 1

@<TRIPOS>CRYSIN
  10.6185   14.2995    7.3640  90.0000 103.9520  90.0000  14 1

