# MOL2 file generated by ConQuest
# Please check atom types

@<TRIPOS>MOLECULE
LIVWET02
    31    32     1
SMALL
NO_CHARGES
****
Generated from CSD

@<TRIPOS>ATOM
      1 C1        -0.5006    3.0321    1.0808 C.ar      1 RES1    0.0000
      2 C2        -1.0284    2.8782   -0.1803 C.ar      1 RES1    0.0000
      3 H1        -0.7594    2.1614   -0.7069 H         1 RES1    0.0000
      4 C3        -1.9502    3.7764   -0.6697 C.ar      1 RES1    0.0000
      5 H2        -2.2965    3.6588   -1.5245 H         1 RES1    0.0000
      6 C4        -2.3562    4.8220    0.0721 C.ar      1 RES1    0.0000
      7 H3        -2.9868    5.4178   -0.2633 H         1 RES1    0.0000
      8 C5        -1.8340    5.0067    1.3333 C.ar      1 RES1    0.0000
      9 H4        -2.1108    5.7279    1.8503 H         1 RES1    0.0000
     10 C6        -0.9016    4.1217    1.8298 C.ar      1 RES1    0.0000
     11 H5        -0.5387    4.2602    2.6750 H         1 RES1    0.0000
     12 C7         0.4860    2.0482    1.6110 C.3       1 RES1    0.0000
     13 H6         0.6918    1.3984    0.9209 H         1 RES1    0.0000
     14 H7         1.3077    2.5110    1.8394 H         1 RES1    0.0000
     15 C8         0.7890    0.6574    3.5815 C.2       1 RES1    0.0000
     16 C9         0.1028    0.0572    4.7994 C.3       1 RES1    0.0000
     17 H8        -0.0642    0.7564    5.4510 H         1 RES1    0.0000
     18 H9        -0.7528   -0.3155    4.5349 H         1 RES1    0.0000
     19 C10        1.1031   -2.2747    5.0711 C.2       1 RES1    0.0000
     20 C11        2.3632   -1.9547    6.7158 C.2       1 RES1    0.0000
     21 H10        2.9836   -2.0900    7.3950 H         1 RES1    0.0000
     22 C12        1.7366   -0.7806    6.4621 C.2       1 RES1    0.0000
     23 H11        1.8518    0.0165    6.9274 H         1 RES1    0.0000
     24 N1        -0.0131    1.3545    2.7844 N.am      1 RES1    0.0000
     25 H12       -0.8521    1.3973    2.9696 H         1 RES1    0.0000
     26 N2         0.9121   -0.9807    5.4069 N.pl3     1 RES1    0.0000
     27 N3         1.9551   -2.9057    5.8357 N.2       1 RES1    0.0000
     28 N4         0.3988   -2.9189    4.0059 N.pl3     1 RES1    0.0000
     29 O1         1.9836    0.5629    3.4247 O.2       1 RES1    0.0000
     30 O2        -0.3289   -2.2549    3.3050 O.2       1 RES1    0.0000
     31 O3         0.5558   -4.1184    3.8712 O.2       1 RES1    0.0000
@<TRIPOS>BOND
     1    1    2 ar
     2    2    3 1
     3    4    2 ar
     4    5    4 1
     5    6    4 ar
     6    7    6 1
     7    8    6 ar
     8    9    8 1
     9   10    1 ar
    10   11   10 1
    11   12    1 1
    12   13   12 1
    13   14   12 1
    14   15   16 1
    15   16   17 1
    16   18   16 1
    17   19   26 1
    18   20   21 1
    19   22   20 2
    20   23   22 1
    21   24   12 1
    22   25   24 1
    23   26   16 1
    24   27   19 2
    25   28   19 1
    26   29   15 2
    27   30   28 2
    28   31   28 2
    29    8   10 ar
    30   15   24 1
    31   20   27 1
    32   22   26 1
@<TRIPOS>SUBSTRUCTURE
     1 RES1 1

@<TRIPOS>CRYSIN
   4.6870   10.9940   12.0250  90.0000  91.1670  90.0000   4 1

