# MOL2 file generated by ConQuest
# Please check atom types

@<TRIPOS>MOLECULE
LIVWET01
    31    32     1
SMALL
NO_CHARGES
****
Generated from CSD

@<TRIPOS>ATOM
      1 C1         2.7652    3.1736    4.9141 C.ar      1 RES1    0.0000
      2 C2         3.3120    2.9934    6.1819 C.ar      1 RES1    0.0000
      3 H1         3.0355    2.2549    6.7117 H         1 RES1    0.0000
      4 C3         4.2669    3.8890    6.6819 C.ar      1 RES1    0.0000
      5 H2         4.6370    3.7560    7.5474 H         1 RES1    0.0000
      6 C4         4.6686    4.9670    5.9105 C.ar      1 RES1    0.0000
      7 H3         5.3251    5.5681    6.2439 H         1 RES1    0.0000
      8 C5         4.1198    5.1747    4.6594 C.ar      1 RES1    0.0000
      9 H4         4.3943    5.9209    4.1403 H         1 RES1    0.0000
     10 C6         3.1588    4.2868    4.1523 C.ar      1 RES1    0.0000
     11 H5         2.7755    4.4385    3.2963 H         1 RES1    0.0000
     12 C7         1.7391    2.2033    4.3689 C.3       1 RES1    0.0000
     13 H6         1.5152    1.5363    5.0641 H         1 RES1    0.0000
     14 H7         0.9111    2.6956    4.1380 H         1 RES1    0.0000
     15 C8         1.4379    0.8022    2.3833 C.2       1 RES1    0.0000
     16 C9         2.1076    0.2198    1.1345 C.3       1 RES1    0.0000
     17 H8         2.2520    0.9407    0.4714 H         1 RES1    0.0000
     18 H9         2.9916   -0.1527    1.3785 H         1 RES1    0.0000
     19 C10        1.0983   -2.1385    0.9131 C.2       1 RES1    0.0000
     20 C11       -0.2019   -1.8429   -0.7357 C.2       1 RES1    0.0000
     21 H10       -0.8398   -1.9967   -1.4226 H         1 RES1    0.0000
     22 C12        0.4309   -0.6451   -0.5190 C.2       1 RES1    0.0000
     23 H11        0.3019    0.1604   -1.0071 H         1 RES1    0.0000
     24 N1         2.2452    1.5132    3.1728 N.am      1 RES1    0.0000
     25 H12        3.1005    1.5692    2.9737 H         1 RES1    0.0000
     26 N2         1.2838   -0.8341    0.5356 N.pl3     1 RES1    0.0000
     27 N3         0.2063   -2.7835    0.1643 N.2       1 RES1    0.0000
     28 N4         1.8232   -2.7703    1.9797 N.pl3     1 RES1    0.0000
     29 O1         0.2241    0.6764    2.5609 O.2       1 RES1    0.0000
     30 O2         2.5763   -2.0813    2.6606 O.2       1 RES1    0.0000
     31 O3         1.6608   -3.9824    2.1511 O.2       1 RES1    0.0000
@<TRIPOS>BOND
     1    1    2 ar
     2    2    3 1
     3    4    2 ar
     4    5    4 1
     5    6    4 ar
     6    7    6 1
     7    8    6 ar
     8    9    8 1
     9   10    1 ar
    10   11   10 1
    11   12    1 1
    12   13   12 1
    13   14   12 1
    14   15   16 1
    15   16   17 1
    16   18   16 1
    17   19   26 1
    18   20   21 1
    19   22   20 2
    20   23   22 1
    21   24   12 1
    22   25   24 1
    23   26   16 1
    24   27   19 2
    25   28   19 1
    26   29   15 2
    27   30   28 2
    28   31   28 2
    29    8   10 ar
    30   15   24 1
    31   20   27 1
    32   22   26 1
@<TRIPOS>SUBSTRUCTURE
     1 RES1 1

@<TRIPOS>CRYSIN
   4.6830   10.9890   11.9050  90.0000  90.5800  90.0000   4 1

