# MOL2 file generated by ConQuest
# Please check atom types

@<TRIPOS>MOLECULE
LIVYAR
    92    92     2
SMALL
NO_CHARGES
****
Generated from CSD

@<TRIPOS>ATOM
      1 O1        -7.8142   19.6182   -7.1411 O.2       1 RES1    0.0000
      2 O2        -8.7483   17.7084   -7.5071 O.2       1 RES1    0.0000
      3 O3        14.5436    2.7545    7.0782 O.2       2 RES2    0.0000
      4 O4        15.3712    4.6788    7.5955 O.2       2 RES2    0.0000
      5 N1        -7.8331   18.3836   -7.0453 N.pl3     1 RES1    0.0000
      6 N2        -3.5839   15.8274   -4.5068 N.3       1 RES1    0.0000
      7 N3        14.4981    3.9925    7.0686 N.pl3     2 RES2    0.0000
      8 N4        10.2196    6.5056    4.5392 N.3       2 RES2    0.0000
      9 C1        -6.7478   17.7247   -6.3733 C.ar      1 RES1    0.0000
     10 C2        -6.7447   16.3364   -6.2884 C.ar      1 RES1    0.0000
     11 C3        -5.7062   15.6935   -5.6546 C.ar      1 RES1    0.0000
     12 C4        -4.6380   16.4290   -5.1022 C.ar      1 RES1    0.0000
     13 C5        -4.6837   17.8385   -5.1942 C.ar      1 RES1    0.0000
     14 C6        -5.7133   18.4774   -5.8207 C.ar      1 RES1    0.0000
     15 C7        -3.4514   14.3911   -4.3260 C.3       1 RES1    0.0000
     16 C8        -2.1081   14.0816   -3.6797 C.3       1 RES1    0.0000
     17 C9        -1.9034   12.6120   -3.3494 C.3       1 RES1    0.0000
     18 C10       -0.5810   12.3922   -2.6211 C.3       1 RES1    0.0000
     19 C11       -0.2518   10.9535   -2.2793 C.3       1 RES1    0.0000
     20 C12        1.0740   10.8321   -1.5386 C.3       1 RES1    0.0000
     21 C13        1.4891    9.4048   -1.2117 C.3       1 RES1    0.0000
     22 C14        2.8011    9.3046   -0.4502 C.3       1 RES1    0.0000
     23 C15        3.2294    7.8805   -0.1490 C.3       1 RES1    0.0000
     24 C16        4.5928    7.7897    0.5090 C.3       1 RES1    0.0000
     25 C17       13.3924    4.6427    6.4209 C.ar      2 RES2    0.0000
     26 C18       13.3180    6.0281    6.4317 C.ar      2 RES2    0.0000
     27 C19       12.2708    6.6608    5.8095 C.ar      2 RES2    0.0000
     28 C20       11.2632    5.9128    5.1589 C.ar      2 RES2    0.0000
     29 C21       11.3697    4.4995    5.1696 C.ar      2 RES2    0.0000
     30 C22       12.4141    3.8775    5.7880 C.ar      2 RES2    0.0000
     31 C23       10.0112    7.9402    4.4634 C.3       2 RES2    0.0000
     32 C24        8.7259    8.2238    3.6970 C.3       2 RES2    0.0000
     33 C25        8.4942    9.6977    3.4107 C.3       2 RES2    0.0000
     34 C26        7.2225    9.9106    2.5971 C.3       2 RES2    0.0000
     35 C27        6.8908   11.3649    2.2925 C.3       2 RES2    0.0000
     36 C28        5.5659   11.5097    1.5559 C.3       2 RES2    0.0000
     37 C29        5.1756   12.9390    1.2282 C.3       2 RES2    0.0000
     38 C30        3.8460   13.0470    0.4908 C.3       2 RES2    0.0000
     39 C31        3.4560   14.4662    0.1217 C.3       2 RES2    0.0000
     40 C32        2.1026   14.5515   -0.5611 C.3       2 RES2    0.0000
     41 H1        -2.9857   16.3230   -4.1051 H         1 RES1    0.0000
     42 H2        -7.4372   15.8309   -6.6550 H         1 RES1    0.0000
     43 H3        -5.7211   14.7652   -5.6196 H         1 RES1    0.0000
     44 H4         9.6216    5.9952    4.1713 H         2 RES2    0.0000
     45 H5        -3.9794   18.3321   -4.8557 H         1 RES1    0.0000
     46 H6        -5.7318   19.4094   -5.8762 H         1 RES1    0.0000
     47 H7        -4.1830   14.0519   -3.7492 H         1 RES1    0.0000
     48 H8        -3.5171   13.9470   -5.2141 H         1 RES1    0.0000
     49 H9        -1.4112   14.3634   -4.2954 H         1 RES1    0.0000
     50 H10       -2.0442   14.6051   -2.8719 H         1 RES1    0.0000
     51 H11       -2.6224   12.2903   -2.7643 H         1 RES1    0.0000
     52 H12       -1.9241   12.0719   -4.1961 H         1 RES1    0.0000
     53 H13        0.1289   12.7765   -3.1864 H         1 RES1    0.0000
     54 H14       -0.6129   12.9600   -1.8208 H         1 RES1    0.0000
     55 H15       -0.9630   10.5899   -1.6966 H         1 RES1    0.0000
     56 H16       -0.2079   10.3831   -3.1119 H         1 RES1    0.0000
     57 H17        1.7847   11.2479   -2.0774 H         1 RES1    0.0000
     58 H18        0.9824   11.3440   -0.6869 H         1 RES1    0.0000
     59 H19        0.7844    9.0088   -0.6869 H         1 RES1    0.0000
     60 H20        1.5696    8.9273   -2.0360 H         1 RES1    0.0000
     61 H21        2.6962    9.8183    0.3890 H         1 RES1    0.0000
     62 H22        3.4838    9.7222   -1.0014 H         1 RES1    0.0000
     63 H23        3.2156    7.3666   -0.9601 H         1 RES1    0.0000
     64 H24        2.5874    7.4743    0.4304 H         1 RES1    0.0000
     65 H25        5.3086    8.1731   -0.0579 H         1 RES1    0.0000
     66 H26        4.5691    8.3158    1.3739 H         1 RES1    0.0000
     67 H27        4.8533    6.8745    0.7035 H         1 RES1    0.0000
     68 H28       13.9977    6.5106    6.8611 H         2 RES2    0.0000
     69 H29       12.2295    7.5821    5.8348 H         2 RES2    0.0000
     70 H30       10.7038    3.9774    4.7837 H         2 RES2    0.0000
     71 H31       12.4807    2.9641    5.7843 H         2 RES2    0.0000
     72 H32        9.9603    8.3100    5.3796 H         2 RES2    0.0000
     73 H33       10.7654    8.3449    3.9842 H         2 RES2    0.0000
     74 H34        8.8029    7.7684    2.8636 H         2 RES2    0.0000
     75 H35        7.9880    7.8965    4.2292 H         2 RES2    0.0000
     76 H36        8.4569   10.2026    4.2375 H         2 RES2    0.0000
     77 H37        9.2670   10.0687    2.9050 H         2 RES2    0.0000
     78 H38        7.3212    9.3844    1.7546 H         2 RES2    0.0000
     79 H39        6.4828    9.4863    3.1036 H         2 RES2    0.0000
     80 H40        6.8526   11.8797    3.1450 H         2 RES2    0.0000
     81 H41        7.6154   11.7866    1.7380 H         2 RES2    0.0000
     82 H42        4.8715   11.1023    2.1270 H         2 RES2    0.0000
     83 H43        5.6011   10.9509    0.7200 H         2 RES2    0.0000
     84 H44        5.8740   13.3385    0.7035 H         2 RES2    0.0000
     85 H45        5.1384   13.4433    2.0856 H         2 RES2    0.0000
     86 H46        3.1437   12.6455    1.0842 H         2 RES2    0.0000
     87 H47        3.9264   12.4941   -0.3228 H         2 RES2    0.0000
     88 H48        3.4192   15.0069    0.9104 H         2 RES2    0.0000
     89 H49        4.1296   14.8293   -0.4718 H         2 RES2    0.0000
     90 H50        2.1034   13.9936   -1.3904 H         2 RES2    0.0000
     91 H51        1.3537   14.1945    0.0248 H         2 RES2    0.0000
     92 H52        1.8461   15.4932   -0.8359 H         2 RES2    0.0000
@<TRIPOS>BOND
     1    1    5 2
     2    2    5 2
     3    3    7 2
     4    4    7 2
     5    5    9 1
     6    6   12 1
     7    7   25 1
     8    8   28 1
     9    9   10 ar
    10   10   11 ar
    11   11   12 ar
    12   12   13 ar
    13   13   14 ar
    14   14    9 ar
    15   15    6 1
    16   16   15 1
    17   17   16 1
    18   18   17 1
    19   19   18 1
    20   20   19 1
    21   21   20 1
    22   22   21 1
    23   23   22 1
    24   24   23 1
    25   25   26 ar
    26   26   27 ar
    27   27   28 ar
    28   28   29 ar
    29   29   30 ar
    30   30   25 ar
    31   31    8 1
    32   32   31 1
    33   33   32 1
    34   34   33 1
    35   35   34 1
    36   36   35 1
    37   37   36 1
    38   38   37 1
    39   39   38 1
    40   40   39 1
    41   41    6 1
    42   42   10 1
    43   43   11 1
    44   44    8 1
    45   45   13 1
    46   46   14 1
    47   47   15 1
    48   48   15 1
    49   49   16 1
    50   50   16 1
    51   51   17 1
    52   52   17 1
    53   53   18 1
    54   54   18 1
    55   55   19 1
    56   56   19 1
    57   57   20 1
    58   58   20 1
    59   59   21 1
    60   60   21 1
    61   61   22 1
    62   62   22 1
    63   63   23 1
    64   64   23 1
    65   65   24 1
    66   66   24 1
    67   67   24 1
    68   68   26 1
    69   69   27 1
    70   70   29 1
    71   71   30 1
    72   72   31 1
    73   73   31 1
    74   74   32 1
    75   75   32 1
    76   76   33 1
    77   77   33 1
    78   78   34 1
    79   79   34 1
    80   80   35 1
    81   81   35 1
    82   82   36 1
    83   83   36 1
    84   84   37 1
    85   85   37 1
    86   86   38 1
    87   87   38 1
    88   88   39 1
    89   89   39 1
    90   90   40 1
    91   91   40 1
    92   92   40 1
@<TRIPOS>SUBSTRUCTURE
     1 RES1 1
     2 RES2 3

@<TRIPOS>CRYSIN
  13.2910   29.1170    8.2790  90.0000  91.4570  90.0000  14 1

