# MOL2 file generated by ConQuest
# Please check atom types

@<TRIPOS>MOLECULE
LIVZIA
    20    19     1
SMALL
NO_CHARGES
****
Generated from CSD

@<TRIPOS>ATOM
      1 O1         1.2250    1.6671    6.1652 O.3       1 RES1    0.0000
      2 O2         1.6106    0.5357    3.1238 O.2       1 RES1    0.0000
      3 O3         3.3506    3.2159    2.5121 O.2       1 RES1    0.0000
      4 O4         3.4315    0.4681    4.4097 O.3       1 RES1    0.0000
      5 N1         1.6473    2.7877    5.4639 N.2       1 RES1    0.0000
      6 C1         2.3747    1.0409    3.8994 C.2       1 RES1    0.0000
      7 C2         2.2295    2.4568    4.3725 C.2       1 RES1    0.0000
      8 C3         2.7450    3.5409    3.5021 C.2       1 RES1    0.0000
      9 C4         0.5855    2.0740    7.3891 C.3       1 RES1    0.0000
     10 H1         0.2911    1.2967    7.8703 H         1 RES1    0.0000
     11 H2        -0.1710    2.6297    7.1858 H         1 RES1    0.0000
     12 H3         1.2086    2.5667    7.9279 H         1 RES1    0.0000
     13 C5         3.6559   -0.9206    4.0365 C.3       1 RES1    0.0000
     14 H4         4.3590   -1.2874    4.5774 H         1 RES1    0.0000
     15 H5         3.9061   -0.9669    3.1114 H         1 RES1    0.0000
     16 H6         2.8493   -1.4228    4.1750 H         1 RES1    0.0000
     17 C6         2.5090    4.9641    3.8688 C.3       1 RES1    0.0000
     18 H7         2.9035    5.5356    3.2054 H         1 RES1    0.0000
     19 H8         2.9060    5.1441    4.7239 H         1 RES1    0.0000
     20 H9         1.5639    5.1307    3.9125 H         1 RES1    0.0000
@<TRIPOS>BOND
     1    1    5 1
     2    2    6 2
     3    3    8 2
     4    4    6 1
     5    5    7 2
     6    6    7 1
     7    7    8 1
     8    8   17 1
     9    9    1 1
    10   10    9 1
    11   11    9 1
    12   12    9 1
    13   13    4 1
    14   14   13 1
    15   15   13 1
    16   16   13 1
    17   17   18 1
    18   19   17 1
    19   20   17 1
@<TRIPOS>SUBSTRUCTURE
     1 RES1 1

@<TRIPOS>CRYSIN
   8.3410   13.4100    7.2900  90.0000  90.0000  90.0000  33 1

