# MOL2 file generated by ConQuest
# Please check atom types

@<TRIPOS>MOLECULE
LIWLOS
    23    23     2
SMALL
NO_CHARGES
****
Generated from CSD

@<TRIPOS>ATOM
      1 O1         6.9077    2.6918    4.9790 O.2       1 RES1    0.0000
      2 O2         7.6166    4.6639    5.3353 O.2       1 RES1    0.0000
      3 O3        12.6691    5.4048    1.3349 O.2       1 RES1    0.0000
      4 N1         8.9213   -0.1231    4.3218 N.ar      1 RES1    0.0000
      5 N2         7.7064    3.5833    4.7931 N.pl3     1 RES1    0.0000
      6 N3        12.1260    4.9610    3.4732 N.am      1 RES1    0.0000
      7 C1         8.9508   -1.1783    5.1330 C.ar      1 RES1    0.0000
      8 C2         7.8723   -1.9787    5.3767 C.ar      1 RES1    0.0000
      9 C3         6.7073   -1.6998    4.7458 C.ar      1 RES1    0.0000
     10 C4         6.6358   -0.5980    3.9092 C.ar      1 RES1    0.0000
     11 C5         7.7679    0.1581    3.7054 C.ar      1 RES1    0.0000
     12 C6         7.7215    1.3262    2.7441 C.3       1 RES1    0.0000
     13 C7         8.8298    2.3386    2.9435 C.ar      1 RES1    0.0000
     14 C8         8.8494    3.3565    3.8932 C.ar      1 RES1    0.0000
     15 C9         9.9108    4.2331    4.0482 C.ar      1 RES1    0.0000
     16 C10       11.0192    4.1170    3.2394 C.ar      1 RES1    0.0000
     17 C11       11.0342    3.1321    2.2568 C.ar      1 RES1    0.0000
     18 C12        9.9538    2.2727    2.1277 C.ar      1 RES1    0.0000
     19 C13       12.8914    5.5407    2.5264 C.2       1 RES1    0.0000
     20 C14       14.0277    6.3836    3.0456 C.3       1 RES1    0.0000
     21 C15       15.3400    6.0853    2.3953 C.3       1 RES1    0.0000
     22 C16       15.2237    5.5011    3.4333 Du        2 SUP2    0.0000
     23 C17       15.8343    4.6776    2.6470 C.3       1 RES1    0.0000
@<TRIPOS>BOND
     1    1    5 2
     2    2    5 2
     3    3   19 2
     4    4    7 ar
     5    5   14 1
     6    6   16 1
     7    7    8 ar
     8    8    9 ar
     9    9   10 ar
    10   10   11 ar
    11   11    4 ar
    12   12   11 1
    13   13   12 1
    14   14   13 ar
    15   15   14 ar
    16   16   15 ar
    17   17   16 ar
    18   18   13 ar
    19   19    6 1
    20   20   19 1
    21   21   20 1
    22   23   21 1
    23   17   18 ar
@<TRIPOS>SUBSTRUCTURE
     1 RES1 1
     2 SUP2 22

@<TRIPOS>CRYSIN
  10.9645   13.9730    4.9937  92.1990  93.2930  82.6840   2 1

