# MOL2 file generated by ConQuest
# Please check atom types

@<TRIPOS>MOLECULE
LIWTUH
    51    53     1
SMALL
NO_CHARGES
****
Generated from CSD

@<TRIPOS>ATOM
      1 O1         6.6614    4.9495    8.0160 O.2       1 RES1    0.0000
      2 O2         6.0239    5.3147   10.0460 O.2       1 RES1    0.0000
      3 O3         1.6365    7.1864   10.8990 O.2       1 RES1    0.0000
      4 O4         0.4497    7.8852    9.2164 O.2       1 RES1    0.0000
      5 O5         3.5457    5.8560    4.2409 O.2       1 RES1    0.0000
      6 O6         1.4295    6.2078    4.8862 O.3       1 RES1    0.0000
      7 O7         1.4616    3.2975    1.7962 O.2       1 RES1    0.0000
      8 O8        -0.3562    3.0778    0.5044 O.3       1 RES1    0.0000
      9 N1         5.8439    5.3374    8.8204 N.pl3     1 RES1    0.0000
     10 N2         1.4336    7.3277    9.6884 N.pl3     1 RES1    0.0000
     11 C1         4.5660    5.8623    8.3337 C.ar      1 RES1    0.0000
     12 C2         3.6406    6.3400    9.2539 C.ar      1 RES1    0.0000
     13 H1         3.8655    6.3513   10.1871 H         1 RES1    0.0000
     14 C3         2.4347    6.7830    8.7584 C.ar      1 RES1    0.0000
     15 C4         2.1167    6.7300    7.4236 C.ar      1 RES1    0.0000
     16 H2         1.2610    7.0416    7.1214 H         1 RES1    0.0000
     17 C5         3.0628    6.2333    6.5329 C.ar      1 RES1    0.0000
     18 C6         4.3055    5.8122    6.9966 C.ar      1 RES1    0.0000
     19 H3         4.9824    5.4765    6.4042 H         1 RES1    0.0000
     20 C7         2.7395    6.0877    5.0984 C.2       1 RES1    0.0000
     21 C8         0.9063    5.9937    3.5425 C.3       1 RES1    0.0000
     22 H4         1.5493    5.6172    2.9366 H         1 RES1    0.0000
     23 C9        -0.2212    4.9947    3.6974 C.3       1 RES1    0.0000
     24 H5         0.0614    4.3037    4.3012 H         1 RES1    0.0000
     25 H6        -0.9791    5.4525    4.0664 H         1 RES1    0.0000
     26 C10       -0.6402    4.3665    2.3821 C.2       1 RES1    0.0000
     27 C11       -1.8020    4.3425    1.7810 C.2       1 RES1    0.0000
     28 H7        -2.5431    4.8131    2.1686 H         1 RES1    0.0000
     29 C12       -1.7263    3.5095    0.5437 C.3       1 RES1    0.0000
     30 H8        -1.9652    4.0521   -0.2116 H         1 RES1    0.0000
     31 C13       -2.6179    2.3232    0.5226 C.3       1 RES1    0.0000
     32 H9        -3.5311    2.6213    0.5395 H         1 RES1    0.0000
     33 H10       -2.4462    1.7805    1.2969 H         1 RES1    0.0000
     34 H11       -2.4636    1.8074   -0.2708 H         1 RES1    0.0000
     35 C14        0.2963    3.5561    1.5878 C.2       1 RES1    0.0000
     36 C15        0.4837    7.3440    2.9726 C.3       1 RES1    0.0000
     37 H12        1.2567    7.9085    2.8964 H         1 RES1    0.0000
     38 H13        0.0862    7.2295    2.1051 H         1 RES1    0.0000
     39 C16       -0.4970    8.0286    3.8231 C.1       1 RES1    0.0000
     40 C17       -1.3035    8.5352    4.5530 C.1       1 RES1    0.0000
     41 C18       -2.3217    9.0751    5.4268 C.ar      1 RES1    0.0000
     42 C19       -2.0858    9.2135    6.7850 C.ar      1 RES1    0.0000
     43 H14       -1.2034    9.0440    7.1236 H         1 RES1    0.0000
     44 C20       -3.0899    9.6354    7.6144 C.ar      1 RES1    0.0000
     45 H15       -2.9144    9.7307    8.5517 H         1 RES1    0.0000
     46 C21       -4.3503    9.9250    7.1151 C.ar      1 RES1    0.0000
     47 H16       -5.0570   10.1815    7.7138 H         1 RES1    0.0000
     48 C22       -4.5853    9.8169    5.7864 C.ar      1 RES1    0.0000
     49 H17       -5.4523   10.0275    5.4310 H         1 RES1    0.0000
     50 C23       -3.5782    9.3994    4.9253 C.ar      1 RES1    0.0000
     51 H18       -3.7176    9.3428    3.9775 H         1 RES1    0.0000
@<TRIPOS>BOND
     1    1    9 2
     2    2    9 2
     3    3   10 2
     4    4   10 2
     5    5   20 2
     6    6   20 1
     7    7   35 2
     8    8   29 1
     9    9   11 1
    10   10   14 1
    11   11   12 ar
    12   12   13 1
    13   14   12 ar
    14   15   14 ar
    15   16   15 1
    16   17   15 ar
    17   18   11 ar
    18   19   18 1
    19   20   17 1
    20   21    6 1
    21   22   21 1
    22   23   21 1
    23   24   23 1
    24   25   23 1
    25   26   23 1
    26   27   26 2
    27   28   27 1
    28   29   27 1
    29   30   29 1
    30   31   29 1
    31   32   31 1
    32   33   31 1
    33   34   31 1
    34   35    8 1
    35   36   21 1
    36   37   36 1
    37   38   36 1
    38   39   36 1
    39   40   39 3
    40   41   40 1
    41   42   41 ar
    42   43   42 1
    43   44   42 ar
    44   45   44 1
    45   46   44 ar
    46   47   46 1
    47   48   46 ar
    48   49   48 1
    49   50   41 ar
    50   51   50 1
    51   17   18 ar
    52   26   35 1
    53   48   50 ar
@<TRIPOS>SUBSTRUCTURE
     1 RES1 1

@<TRIPOS>CRYSIN
   7.0524    7.0656   21.4196  90.0000  98.9810  90.0000   4 1

