# MOL2 file generated by ConQuest
# Please check atom types

@<TRIPOS>MOLECULE
LIXDAY02
    52    54     2
SMALL
NO_CHARGES
****
Generated from CSD

@<TRIPOS>ATOM
      1 C1         7.7137   -0.2252    8.2840 C.ar      1 RES1    0.0000
      2 C2         8.3233   -1.4502    8.0155 C.ar      1 RES1    0.0000
      3 C3         8.6798   -2.3030    9.0538 C.ar      1 RES1    0.0000
      4 C4         8.4054   -1.9116   10.3667 C.ar      1 RES1    0.0000
      5 C5         7.8144   -0.6856   10.6407 C.ar      1 RES1    0.0000
      6 C6         7.4562    0.1972    9.6013 C.ar      1 RES1    0.0000
      7 C7         6.0307    0.7100    6.6794 C.2       1 RES1    0.0000
      8 C8         7.2907    1.8790    5.4353 C.2       1 RES1    0.0000
      9 C9         8.1320    1.3528    6.3814 C.2       1 RES1    0.0000
     10 C10        4.8855   -0.0241    7.2593 C.3       1 RES1    0.0000
     11 N1         7.3116    0.6047    7.1815 N.pl3     1 RES1    0.0000
     12 N2         5.9913    1.4896    5.6165 N.2       1 RES1    0.0000
     13 N3         6.8162    1.3814    9.8720 N.3       1 RES1    0.0000
     14 N4         7.6770    2.7072    4.3422 N.pl3     1 RES1    0.0000
     15 O1         8.8655    3.0221    4.2516 O.2       1 RES1    0.0000
     16 O2         6.8112    3.0548    3.5392 O.2       1 RES1    0.0000
     17 H1         6.8234    2.1277    9.1930 H         1 RES1    0.0000
     18 H2         9.1993    1.4339    6.5464 H         1 RES1    0.0000
     19 H3         8.4895   -1.7044    6.9761 H         1 RES1    0.0000
     20 H4         7.6062   -0.3855   11.6602 H         1 RES1    0.0000
     21 H5         9.1441   -3.2602    8.8509 H         1 RES1    0.0000
     22 H6         8.6444   -2.5811   11.1836 H         1 RES1    0.0000
     23 H7         6.7776    1.6608   10.8408 H         1 RES1    0.0000
     24 H8         4.9700   -1.0523    7.0198 H         1 RES1    0.0000
     25 H9         4.8364    0.1035    8.3095 H         1 RES1    0.0000
     26 H10        3.9823    0.3426    6.8456 H         1 RES1    0.0000
     27 C11        2.8227    4.4554    6.4262 C.ar      2 RES2    0.0000
     28 C12        1.9559    5.3171    7.0960 C.ar      2 RES2    0.0000
     29 C13        0.6266    5.4104    6.7037 C.ar      2 RES2    0.0000
     30 C14        0.1806    4.6125    5.6468 C.ar      2 RES2    0.0000
     31 C15        1.0378    3.7328    5.0015 C.ar      2 RES2    0.0000
     32 C16        2.3961    3.6415    5.3645 C.ar      2 RES2    0.0000
     33 C17        4.5892    3.6638    8.0024 C.2       2 RES2    0.0000
     34 C18        6.3186    4.5307    7.1246 C.2       2 RES2    0.0000
     35 C19        5.2843    4.9194    6.3061 C.2       2 RES2    0.0000
     36 C20        3.6547    2.9575    8.9119 C.3       2 RES2    0.0000
     37 N5         4.1777    4.3530    6.8838 N.pl3     2 RES2    0.0000
     38 N6         5.8964    3.7542    8.1650 N.2       2 RES2    0.0000
     39 N7         3.2656    2.8218    4.6792 N.3       2 RES2    0.0000
     40 N8         7.6978    4.8818    6.9953 N.pl3     2 RES2    0.0000
     41 O3         8.5013    4.4114    7.7897 O.2       2 RES2    0.0000
     42 O4         8.0067    5.6548    6.0749 O.2       2 RES2    0.0000
     43 H11        0.6532    3.0876    4.2214 H         2 RES2    0.0000
     44 H12       -0.8563    4.6530    5.3368 H         2 RES2    0.0000
     45 H13        2.3406    5.8869    7.9329 H         2 RES2    0.0000
     46 H14        2.8616    2.0634    4.1503 H         2 RES2    0.0000
     47 H15        5.2136    5.5217    5.4088 H         2 RES2    0.0000
     48 H16       -0.0455    6.0831    7.2223 H         2 RES2    0.0000
     49 H17        4.1607    2.5902    5.0831 H         2 RES2    0.0000
     50 H18        3.0337    2.2812    8.3842 H         2 RES2    0.0000
     51 H19        4.2357    2.4339    9.6261 H         2 RES2    0.0000
     52 H20        3.0133    3.6547    9.3854 H         2 RES2    0.0000
@<TRIPOS>BOND
     1    1    2 ar
     2    2    3 ar
     3    3    4 ar
     4    4    5 ar
     5    5    6 ar
     6    6    1 ar
     7    7   10 1
     8    8    9 2
     9    9   11 1
    10   10   24 1
    11   11    1 1
    12   12    7 2
    13   13    6 1
    14   14    8 1
    15   15   14 2
    16   16   14 2
    17   17   13 1
    18   18    9 1
    19   19    2 1
    20   20    5 1
    21   21    3 1
    22   22    4 1
    23   23   13 1
    24   25   10 1
    25   26   10 1
    26   27   28 ar
    27   28   29 ar
    28   29   30 ar
    29   30   31 ar
    30   31   32 ar
    31   32   27 ar
    32   33   36 1
    33   34   35 2
    34   35   37 1
    35   36   50 1
    36   37   27 1
    37   38   33 2
    38   39   32 1
    39   40   34 1
    40   41   40 2
    41   42   40 2
    42   43   31 1
    43   44   30 1
    44   45   28 1
    45   46   39 1
    46   47   35 1
    47   48   29 1
    48   49   39 1
    49   51   36 1
    50   52   36 1
    51    7   11 1
    52    8   12 1
    53   33   37 1
    54   34   38 1
@<TRIPOS>SUBSTRUCTURE
     1 RES1 1
     2 RES2 27

@<TRIPOS>CRYSIN
  11.0104   10.0398   18.6040  90.0000  97.3200  90.0000  14 1

