# MOL2 file generated by ConQuest
# Please check atom types

@<TRIPOS>MOLECULE
LIXDAY04
    52    54     2
SMALL
NO_CHARGES
****
Generated from CSD

@<TRIPOS>ATOM
      1 C1         2.1105    5.2808    0.9567 C.ar      1 RES1    0.0000
      2 C2         1.5005    6.5122    1.2292 C.ar      1 RES1    0.0000
      3 C3         1.1367    7.3729    0.1921 C.ar      1 RES1    0.0000
      4 C4         1.4051    6.9823   -1.1247 C.ar      1 RES1    0.0000
      5 C5         1.9960    5.7495   -1.4024 C.ar      1 RES1    0.0000
      6 C6         2.3618    4.8585   -0.3636 C.ar      1 RES1    0.0000
      7 C7         3.8103    4.3434    2.5554 C.2       1 RES1    0.0000
      8 C8         2.5606    3.1711    3.8144 C.2       1 RES1    0.0000
      9 C9         1.7082    3.6973    2.8700 C.2       1 RES1    0.0000
     10 C10        4.9535    5.0811    1.9646 C.3       1 RES1    0.0000
     11 N1         2.5217    4.4466    2.0589 N.pl3     1 RES1    0.0000
     12 N2         3.8584    3.5629    3.6223 N.2       1 RES1    0.0000
     13 N3         3.0015    3.6683   -0.6391 N.3       1 RES1    0.0000
     14 N4         2.1895    2.3410    4.9191 N.pl3     1 RES1    0.0000
     15 O1         3.0636    2.0033    5.7225 O.2       1 RES1    0.0000
     16 O2         1.0017    2.0160    5.0216 O.2       1 RES1    0.0000
     17 H1         1.3327    6.7672    2.2684 H         1 RES1    0.0000
     18 H2         0.6972    8.3354    0.4228 H         1 RES1    0.0000
     19 H3         1.1562    7.6632   -1.9292 H         1 RES1    0.0000
     20 H4         2.2240    5.4439   -2.4161 H         1 RES1    0.0000
     21 H5         0.6387    3.6084    2.7249 H         1 RES1    0.0000
     22 H6         2.9892    2.9220    0.0398 H         1 RES1    0.0000
     23 H7         3.0247    3.4077   -1.6135 H         1 RES1    0.0000
     24 H8         4.8794    6.1166    2.1738 H         1 RES1    0.0000
     25 H9         4.9648    4.9616    0.9124 H         1 RES1    0.0000
     26 H10        5.8547    4.7116    2.3804 H         1 RES1    0.0000
     27 C11        7.0449    0.5819    2.8043 C.ar      2 RES2    0.0000
     28 C12        7.9159   -0.2863    2.1394 C.ar      2 RES2    0.0000
     29 C13        9.2484   -0.3753    2.5334 C.ar      2 RES2    0.0000
     30 C14        9.6963    0.4338    3.5874 C.ar      2 RES2    0.0000
     31 C15        8.8357    1.3200    4.2285 C.ar      2 RES2    0.0000
     32 C16        5.2708    1.3709    1.2211 C.2       2 RES2    0.0000
     33 C17        3.5400    0.4997    2.1015 C.2       2 RES2    0.0000
     34 C18        4.5787    0.1114    2.9234 C.2       2 RES2    0.0000
     35 C19        7.4725    1.4067    3.8633 C.ar      2 RES2    0.0000
     36 C20        6.2056    2.0810    0.3077 C.3       2 RES2    0.0000
     37 N5         5.6857    0.6808    2.3439 N.pl3     2 RES2    0.0000
     38 N6         3.9595    1.2781    1.0592 N.2       2 RES2    0.0000
     39 N7         6.6037    2.2385    4.5422 N.3       2 RES2    0.0000
     40 N8         2.1569    0.1475    2.2332 N.pl3     2 RES2    0.0000
     41 O3         1.3520    0.6151    1.4339 O.2       2 RES2    0.0000
     42 O4         1.8487   -0.6236    3.1570 O.2       2 RES2    0.0000
     43 H11        7.5341   -0.8626    1.3056 H         2 RES2    0.0000
     44 H12        9.9427   -1.0330    2.0253 H         2 RES2    0.0000
     45 H13       10.7307    0.3783    3.9034 H         2 RES2    0.0000
     46 H14        9.1864    1.9843    5.0087 H         2 RES2    0.0000
     47 H15        4.6438   -0.4895    3.8220 H         2 RES2    0.0000
     48 H16        5.7021    2.4451    4.1390 H         2 RES2    0.0000
     49 H17        7.0361    2.9799    5.0729 H         2 RES2    0.0000
     50 H18        6.8114    2.7867    0.8142 H         2 RES2    0.0000
     51 H19        6.8570    1.3803   -0.1462 H         2 RES2    0.0000
     52 H20        5.6133    2.5814   -0.4136 H         2 RES2    0.0000
@<TRIPOS>BOND
     1    1    2 ar
     2    2    3 ar
     3    3    4 ar
     4    4    5 ar
     5    5    6 ar
     6    6    1 ar
     7    7   10 1
     8    8    9 2
     9    9   11 1
    10   10   24 1
    11   11    1 1
    12   12    7 2
    13   13    6 1
    14   14    8 1
    15   15   14 2
    16   16   14 2
    17   17    2 1
    18   18    3 1
    19   19    4 1
    20   20    5 1
    21   21    9 1
    22   22   13 1
    23   23   13 1
    24   25   10 1
    25   26   10 1
    26   27   28 ar
    27   28   29 ar
    28   29   30 ar
    29   30   31 ar
    30   31   35 ar
    31   32   36 1
    32   33   34 2
    33   34   37 1
    34   35   27 ar
    35   36   50 1
    36   37   27 1
    37   38   32 2
    38   39   35 1
    39   40   33 1
    40   41   40 2
    41   42   40 2
    42   43   28 1
    43   44   29 1
    44   45   30 1
    45   46   31 1
    46   47   34 1
    47   48   39 1
    48   49   39 1
    49   51   36 1
    50   52   36 1
    51    7   11 1
    52    8   12 1
    53   32   37 1
    54   33   38 1
@<TRIPOS>SUBSTRUCTURE
     1 RES1 1
     2 RES2 27

@<TRIPOS>CRYSIN
  11.0470   10.1290   18.6520  90.0000  97.2230  90.0000  14 1

