# MOL2 file generated by ConQuest
# Please check atom types

@<TRIPOS>MOLECULE
LIXDEC
    50    52     2
SMALL
NO_CHARGES
****
Generated from CSD

@<TRIPOS>ATOM
      1 N1         2.4706    8.6822    1.9411 N.pl3     1 RES1    0.0000
      2 C1         3.3027    8.0679    2.9424 C.ar      1 RES1    0.0000
      3 C2         2.8308    6.9797    3.6756 C.ar      1 RES1    0.0000
      4 O1         1.5764    6.5290    3.4175 O.3       1 RES1    0.0000
      5 H1         1.3263    5.9000    4.0190 H         1 RES1    0.0000
      6 C3         3.6789    6.4050    4.6242 C.ar      1 RES1    0.0000
      7 H2         3.3823    5.6354    5.0447 H         1 RES1    0.0000
      8 C4         4.9301    6.9336    4.8540 C.ar      1 RES1    0.0000
      9 H3         5.4865    6.5209    5.4994 H         1 RES1    0.0000
     10 C5         5.3946    8.0173    4.1295 C.ar      1 RES1    0.0000
     11 H4         6.2821    8.3946    4.2485 H         1 RES1    0.0000
     12 C6         4.5730    8.5787    3.1689 C.ar      1 RES1    0.0000
     13 H5         4.8813    9.3251    2.6624 H         1 RES1    0.0000
     14 C7         1.3343    9.4268    2.1572 C.2       1 RES1    0.0000
     15 C8         0.6745    9.5345    3.4878 C.3       1 RES1    0.0000
     16 H6         1.2981    9.8381    4.1698 H         1 RES1    0.0000
     17 H7        -0.1069   10.1783    3.4695 H         1 RES1    0.0000
     18 H8         0.2625    8.6898    3.7604 H         1 RES1    0.0000
     19 N2         0.9169   10.0013    1.0450 N.2       1 RES1    0.0000
     20 C9         1.8198    9.5879    0.0993 C.2       1 RES1    0.0000
     21 N3         1.7328   10.0292   -1.2627 N.pl3     1 RES1    0.0000
     22 O2         0.9188   10.9029   -1.5532 O.2       1 RES1    0.0000
     23 O3         2.5126    9.5129   -2.0757 O.2       1 RES1    0.0000
     24 C10        2.7841    8.7785    0.6082 C.2       1 RES1    0.0000
     25 H9         3.5719    8.2938    0.2230 H         1 RES1    0.0000
     26 N4         0.5537    4.4045    7.6500 N.pl3     2 RES2    0.0000
     27 C11        0.6467    4.5035    9.0869 C.ar      2 RES2    0.0000
     28 C12       -0.2666    5.3037    9.7681 C.ar      2 RES2    0.0000
     29 O4        -1.1953    5.9644    9.0246 O.3       2 RES2    0.0000
     30 H10       -1.6456    6.6235    9.4495 H         2 RES2    0.0000
     31 C13       -0.1929    5.3780   11.1546 C.ar      2 RES2    0.0000
     32 H11       -0.8456    5.9558   11.6335 H         2 RES2    0.0000
     33 C14        0.7792    4.6462   11.8253 C.ar      2 RES2    0.0000
     34 H12        0.8328    4.6833   12.7875 H         2 RES2    0.0000
     35 C15        1.6799    3.8618   11.1357 C.ar      2 RES2    0.0000
     36 H13        2.3179    3.4144   11.6044 H         2 RES2    0.0000
     37 C16        1.6202    3.7837    9.7576 C.ar      2 RES2    0.0000
     38 H14        2.2309    3.2416    9.2771 H         2 RES2    0.0000
     39 C17        0.9282    5.3721    6.7478 C.2       2 RES2    0.0000
     40 C18        1.4372    6.7025    7.1609 C.3       2 RES2    0.0000
     41 H15        0.8369    7.1041    7.7794 H         2 RES2    0.0000
     42 H16        1.5620    7.3021    6.3894 H         2 RES2    0.0000
     43 H17        2.2881    6.6037    7.6070 H         2 RES2    0.0000
     44 N5         0.7607    4.9482    5.5080 N.2       2 RES2    0.0000
     45 C19        0.2493    3.6816    5.6467 C.2       2 RES2    0.0000
     46 N6        -0.1346    2.9160    4.5109 N.pl3     2 RES2    0.0000
     47 O5         0.1724    3.3103    3.3888 O.2       2 RES2    0.0000
     48 O6        -0.7809    1.8789    4.7215 O.2       2 RES2    0.0000
     49 C20        0.1031    3.3218    6.9465 C.2       2 RES2    0.0000
     50 H18       -0.2137    2.5198    7.3818 H         2 RES2    0.0000
@<TRIPOS>BOND
     1    1    2 1
     2    2    3 ar
     3    3    4 1
     4    4    5 1
     5    6    3 ar
     6    7    6 1
     7    8    6 ar
     8    9    8 1
     9   10    8 ar
    10   11   10 1
    11   12    2 ar
    12   13   12 1
    13   14    1 1
    14   15   14 1
    15   16   15 1
    16   17   15 1
    17   18   15 1
    18   19   14 2
    19   20   19 1
    20   21   20 1
    21   22   21 2
    22   23   21 2
    23   24    1 1
    24   25   24 1
    25   26   27 1
    26   27   28 ar
    27   28   29 1
    28   29   30 1
    29   31   28 ar
    30   32   31 1
    31   33   31 ar
    32   34   33 1
    33   35   33 ar
    34   36   35 1
    35   37   27 ar
    36   38   37 1
    37   39   26 1
    38   40   39 1
    39   41   40 1
    40   42   40 1
    41   43   40 1
    42   44   39 2
    43   45   44 1
    44   46   45 1
    45   47   46 2
    46   48   46 2
    47   49   26 1
    48   50   49 1
    49   10   12 ar
    50   20   24 2
    51   35   37 ar
    52   45   49 2
@<TRIPOS>SUBSTRUCTURE
     1 RES1 1
     2 RES2 26

@<TRIPOS>CRYSIN
  10.5904   17.9987   10.9605  90.0000 100.5630  90.0000 231 1

