# MOL2 file generated by ConQuest
# Please check atom types

@<TRIPOS>MOLECULE
LIXDAY
    52    54     2
SMALL
NO_CHARGES
****
Generated from CSD

@<TRIPOS>ATOM
      1 N1        -0.9611    0.6928   11.5844 N.pl3     1 RES1    0.0000
      2 C1         0.3962    0.6030   12.0463 C.ar      1 RES1    0.0000
      3 C2         0.8135    1.4347   13.0901 C.ar      1 RES1    0.0000
      4 N2        -0.0545    2.2562   13.7634 N.3       1 RES1    0.0000
      5 H1         0.3243    2.9490   14.2851 H         1 RES1    0.0000
      6 H2        -0.8881    2.4643   13.4083 H         1 RES1    0.0000
      7 C3         2.1728    1.3493   13.4525 C.ar      1 RES1    0.0000
      8 H3         2.5184    1.9694   14.1057 H         1 RES1    0.0000
      9 C4         3.0164    0.4676   12.8261 C.ar      1 RES1    0.0000
     10 H4         3.9243    0.4131   13.0753 H         1 RES1    0.0000
     11 C5         2.5837   -0.3464   11.7849 C.ar      1 RES1    0.0000
     12 H5         3.2104   -0.9897   11.2734 H         1 RES1    0.0000
     13 C6         1.2724   -0.2646   11.3946 C.ar      1 RES1    0.0000
     14 H6         0.9522   -0.7777   10.6852 H         1 RES1    0.0000
     15 C7        -1.3713    1.3707   10.4558 C.2       1 RES1    0.0000
     16 C8        -0.4430    2.0744    9.5428 C.3       1 RES1    0.0000
     17 H7         0.0984    2.6864    9.9970 H         1 RES1    0.0000
     18 H8         0.1585    1.4442    9.1608 H         1 RES1    0.0000
     19 H9        -0.9812    2.5047    8.8500 H         1 RES1    0.0000
     20 N3        -2.6765    1.2796   10.2939 N.2       1 RES1    0.0000
     21 C9        -3.0906    0.5072   11.3461 C.2       1 RES1    0.0000
     22 N4        -4.4678    0.1609   11.4773 N.pl3     1 RES1    0.0000
     23 O1        -5.2723    0.6165   10.6743 O.2       1 RES1    0.0000
     24 O2        -4.7808   -0.5935   12.4124 O.2       1 RES1    0.0000
     25 C10       -2.0724    0.1300   12.1657 C.2       1 RES1    0.0000
     26 H10       -2.0267   -0.3969   12.9994 H         1 RES1    0.0000
     27 N5         6.8688    4.4235   11.3293 N.pl3     2 RES2    0.0000
     28 C11        6.4466    5.2541   10.2251 C.ar      2 RES2    0.0000
     29 C12        6.6911    4.8399    8.9115 C.ar      2 RES2    0.0000
     30 N6         7.3308    3.6589    8.6242 N.3       2 RES2    0.0000
     31 H11        7.3190    2.9692    9.2348 H         2 RES2    0.0000
     32 H12        7.3804    3.4035    7.7697 H         2 RES2    0.0000
     33 C13        6.3127    5.7213    7.8853 C.ar      2 RES2    0.0000
     34 H13        6.4800    5.4769    6.9520 H         2 RES2    0.0000
     35 C14        5.7306    6.9373    8.1600 C.ar      2 RES2    0.0000
     36 H14        5.4739    7.5443    7.4256 H         2 RES2    0.0000
     37 C15        5.4653    7.3221    9.4714 C.ar      2 RES2    0.0000
     38 H15        5.0195    8.1805    9.6585 H         2 RES2    0.0000
     39 C16        5.8355    6.4687   10.5065 C.ar      2 RES2    0.0000
     40 H16        5.6691    6.7060   11.4288 H         2 RES2    0.0000
     41 C17        8.1584    4.3275   11.8094 C.2       2 RES2    0.0000
     42 C18        9.2826    5.0578   11.2078 C.3       2 RES2    0.0000
     43 H17        9.3147    4.8679   10.1894 H         2 RES2    0.0000
     44 H18        9.2012    5.9384   11.3659 H         2 RES2    0.0000
     45 H19       10.0762    4.7568   11.5916 H         2 RES2    0.0000
     46 N7         8.2137    3.5607   12.8792 N.2       2 RES2    0.0000
     47 C19        6.9202    3.1681   13.0806 C.2       2 RES2    0.0000
     48 N8         6.5570    2.3460   14.1904 N.pl3     2 RES2    0.0000
     49 O3         7.4414    2.0177   14.9864 O.2       2 RES2    0.0000
     50 O4         5.3804    2.0194   14.3053 O.2       2 RES2    0.0000
     51 C20        6.0691    3.6775   12.1509 C.2       2 RES2    0.0000
     52 H20        5.1206    3.6358   12.0301 H         2 RES2    0.0000
@<TRIPOS>BOND
     1    1    2 1
     2    2    3 ar
     3    3    4 1
     4    4    5 1
     5    6    4 1
     6    7    3 ar
     7    8    7 1
     8    9    7 ar
     9   10    9 1
    10   11    9 ar
    11   12   11 1
    12   13    2 ar
    13   14   13 1
    14   15    1 1
    15   16   15 1
    16   17   16 1
    17   18   16 1
    18   19   16 1
    19   20   15 2
    20   21   20 1
    21   22   21 1
    22   23   22 2
    23   24   22 2
    24   25    1 1
    25   26   25 1
    26   27   28 1
    27   28   29 ar
    28   29   30 1
    29   30   31 1
    30   32   30 1
    31   33   29 ar
    32   34   33 1
    33   35   33 ar
    34   36   35 1
    35   37   35 ar
    36   38   37 1
    37   39   28 ar
    38   40   39 1
    39   41   27 1
    40   42   41 1
    41   43   42 1
    42   44   42 1
    43   45   42 1
    44   46   41 2
    45   47   46 1
    46   48   47 1
    47   49   48 2
    48   50   48 2
    49   51   27 1
    50   52   51 1
    51   11   13 ar
    52   21   25 2
    53   37   39 ar
    54   47   51 2
@<TRIPOS>SUBSTRUCTURE
     1 RES1 1
     2 RES2 27

@<TRIPOS>CRYSIN
  11.0134   10.0994   18.6422  90.0000  97.1000  90.0000  14 1

