# MOL2 file generated by ConQuest
# Please check atom types

@<TRIPOS>MOLECULE
LIXDAY07
    52    54     2
SMALL
NO_CHARGES
****
Generated from CSD

@<TRIPOS>ATOM
      1 C1         7.7136   -0.2255    8.2844 C.ar      1 RES1    0.0000
      2 C2         8.3232   -1.4497    8.0159 C.ar      1 RES1    0.0000
      3 C3         8.6803   -2.3027    9.0540 C.ar      1 RES1    0.0000
      4 C4         8.4055   -1.9112   10.3667 C.ar      1 RES1    0.0000
      5 C5         7.8146   -0.6859   10.6402 C.ar      1 RES1    0.0000
      6 C6         7.4560    0.1969    9.6010 C.ar      1 RES1    0.0000
      7 C7         6.0308    0.7104    6.6792 C.2       1 RES1    0.0000
      8 C8         7.2897    1.8782    5.4364 C.2       1 RES1    0.0000
      9 C9         8.1318    1.3527    6.3816 C.2       1 RES1    0.0000
     10 C10        4.8854   -0.0245    7.2595 C.3       1 RES1    0.0000
     11 N1         7.3116    0.6045    7.1813 N.pl3     1 RES1    0.0000
     12 N2         5.9917    1.4893    5.6178 N.2       1 RES1    0.0000
     13 N3         6.8174    1.3816    9.8724 N.3       1 RES1    0.0000
     14 N4         7.6769    2.7074    4.3420 N.pl3     1 RES1    0.0000
     15 O1         8.8617    3.0217    4.2514 O.2       1 RES1    0.0000
     16 O2         6.8105    3.0547    3.5403 O.2       1 RES1    0.0000
     17 H1         6.8098    2.1244    9.1893 H         1 RES1    0.0000
     18 H2         9.1836    1.4317    6.5414 H         1 RES1    0.0000
     19 H3         8.4893   -1.7148    6.9916 H         1 RES1    0.0000
     20 H4         7.6197   -0.3916   11.6527 H         1 RES1    0.0000
     21 H5         9.1508   -3.2509    8.8535 H         1 RES1    0.0000
     22 H6         8.6386   -2.5752   11.1785 H         1 RES1    0.0000
     23 H7         6.7747    1.6505   10.8168 H         1 RES1    0.0000
     24 H8         4.9614   -1.0763    7.0193 H         1 RES1    0.0000
     25 H9         4.8303    0.1074    8.3312 H         1 RES1    0.0000
     26 H10        3.9663    0.3293    6.8458 H         1 RES1    0.0000
     27 C11        2.8225    4.4552    6.4260 C.ar      2 RES2    0.0000
     28 C12        1.9554    5.3168    7.0957 C.ar      2 RES2    0.0000
     29 C13        0.6268    5.4101    6.7036 C.ar      2 RES2    0.0000
     30 C14        0.1804    4.6124    5.6466 C.ar      2 RES2    0.0000
     31 C15        1.0380    3.7331    5.0019 C.ar      2 RES2    0.0000
     32 C16        2.3967    3.6412    5.3645 C.ar      2 RES2    0.0000
     33 C17        4.5895    3.6636    8.0024 C.2       2 RES2    0.0000
     34 C18        6.3171    4.5303    7.1248 C.2       2 RES2    0.0000
     35 C19        5.2839    4.9191    6.3061 C.2       2 RES2    0.0000
     36 C20        3.6541    2.9570    8.9125 C.3       2 RES2    0.0000
     37 N5         4.1780    4.3530    6.8835 N.pl3     2 RES2    0.0000
     38 N6         5.8947    3.7545    8.1643 N.2       2 RES2    0.0000
     39 N7         3.2652    2.8202    4.6803 N.3       2 RES2    0.0000
     40 N8         7.6977    4.8817    6.9955 N.pl3     2 RES2    0.0000
     41 O3         8.4988    4.4119    7.7889 O.2       2 RES2    0.0000
     42 O4         8.0049    5.6528    6.0764 O.2       2 RES2    0.0000
     43 H11        0.6467    3.0862    4.2311 H         2 RES2    0.0000
     44 H12       -0.8482    4.6555    5.3346 H         2 RES2    0.0000
     45 H13        2.3303    5.8974    7.9419 H         2 RES2    0.0000
     46 H14        2.8581    2.0762    4.1499 H         2 RES2    0.0000
     47 H15        5.2169    5.5279    5.4158 H         2 RES2    0.0000
     48 H16       -0.0456    6.0701    7.2204 H         2 RES2    0.0000
     49 H17        4.1719    2.5953    5.0652 H         2 RES2    0.0000
     50 H18        3.0117    2.2710    8.3885 H         2 RES2    0.0000
     51 H19        4.2436    2.4226    9.6414 H         2 RES2    0.0000
     52 H20        2.9952    3.6585    9.3996 H         2 RES2    0.0000
@<TRIPOS>BOND
     1    1    2 ar
     2    2    3 ar
     3    3    4 ar
     4    4    5 ar
     5    5    6 ar
     6    6    1 ar
     7    7   10 1
     8    8    9 2
     9    9   11 1
    10   10   24 1
    11   11    1 1
    12   12    7 2
    13   13    6 1
    14   14    8 1
    15   15   14 2
    16   16   14 2
    17   17   13 1
    18   18    9 1
    19   19    2 1
    20   20    5 1
    21   21    3 1
    22   22    4 1
    23   23   13 1
    24   25   10 1
    25   26   10 1
    26   27   28 ar
    27   28   29 ar
    28   29   30 ar
    29   30   31 ar
    30   31   32 ar
    31   32   27 ar
    32   33   36 1
    33   34   35 2
    34   35   37 1
    35   36   50 1
    36   37   27 1
    37   38   33 2
    38   39   32 1
    39   40   34 1
    40   41   40 2
    41   42   40 2
    42   43   31 1
    43   44   30 1
    44   45   28 1
    45   46   39 1
    46   47   35 1
    47   48   29 1
    48   49   39 1
    49   51   36 1
    50   52   36 1
    51    7   11 1
    52    8   12 1
    53   33   37 1
    54   34   38 1
@<TRIPOS>SUBSTRUCTURE
     1 RES1 1
     2 RES2 27

@<TRIPOS>CRYSIN
  11.0104   10.0398   18.6040  90.0000  97.3200  90.0000  14 1

