# MOL2 file generated by ConQuest
# Please check atom types

@<TRIPOS>MOLECULE
LIXDAY06
    52    54     2
SMALL
NO_CHARGES
****
Generated from CSD

@<TRIPOS>ATOM
      1 C1         2.0979    4.8405    0.9699 C.ar      1 RES1    0.0000
      2 C2         1.4897    3.6189    1.2457 C.ar      1 RES1    0.0000
      3 H1         1.3197    3.3375    2.2796 H         1 RES1    0.0000
      4 C3         1.1226    2.7629    0.2135 C.ar      1 RES1    0.0000
      5 H2         0.6367    1.8146    0.4234 H         1 RES1    0.0000
      6 C4         1.3869    3.1496   -1.1011 C.ar      1 RES1    0.0000
      7 H3         1.1444    2.4736   -1.9154 H         1 RES1    0.0000
      8 C5         1.9776    4.3716   -1.3820 C.ar      1 RES1    0.0000
      9 H4         2.1772    4.6706   -2.3960 H         1 RES1    0.0000
     10 C6         2.3454    5.2580   -0.3485 C.ar      1 RES1    0.0000
     11 N1         2.9868    6.4369   -0.6295 N.3       1 RES1    0.0000
     12 H5         2.9732    7.1644    0.0296 H         1 RES1    0.0000
     13 H6         3.0125    6.7153   -1.5826 H         1 RES1    0.0000
     14 N2         2.5147    5.6696    2.0697 N.pl3     1 RES1    0.0000
     15 C7         1.7068    6.4135    2.8865 C.2       1 RES1    0.0000
     16 H7         0.6500    6.4973    2.7418 H         1 RES1    0.0000
     17 C8         2.5617    6.9305    3.8244 C.2       1 RES1    0.0000
     18 N3         2.1934    7.7528    4.9295 N.pl3     1 RES1    0.0000
     19 O1         1.0154    8.0775    5.0389 O.2       1 RES1    0.0000
     20 O2         3.0674    8.0771    5.7276 O.2       1 RES1    0.0000
     21 N4         3.8547    6.5388    3.6235 N.2       1 RES1    0.0000
     22 C9         3.8002    5.7681    2.5565 C.2       1 RES1    0.0000
     23 H8         5.8735    5.3922    2.3702 H         1 RES1    0.0000
     24 H9         4.8542    3.9753    2.1631 H         1 RES1    0.0000
     25 H10        4.9344    5.1571    0.9059 H         1 RES1    0.0000
     26 C10        4.9375    5.0337    1.9584 C.3       1 RES1    0.0000
     27 C11        7.0489    9.4981    2.7956 C.ar      2 RES2    0.0000
     28 C12        7.9185   10.3646    2.1389 C.ar      2 RES2    0.0000
     29 H11        7.5619   10.9641    1.3219 H         2 RES2    0.0000
     30 C13        9.2467   10.4464    2.5336 C.ar      2 RES2    0.0000
     31 H12        9.9292   11.1023    2.0318 H         2 RES2    0.0000
     32 C14        9.6901    9.6350    3.5791 C.ar      2 RES2    0.0000
     33 H13       10.7108    9.6733    3.8936 H         2 RES2    0.0000
     34 C15        8.8291    8.7525    4.2125 C.ar      2 RES2    0.0000
     35 H14        9.1909    8.0807    4.9788 H         2 RES2    0.0000
     36 C16        7.4706    8.6708    3.8466 C.ar      2 RES2    0.0000
     37 N5         6.6005    7.8475    4.5222 N.3       2 RES2    0.0000
     38 H15        5.7114    7.6347    4.1413 H         2 RES2    0.0000
     39 H16        7.0088    7.1099    5.0343 H         2 RES2    0.0000
     40 N6         5.6929    9.4043    2.3354 N.pl3     2 RES2    0.0000
     41 C17        4.5873    9.9697    2.9152 C.2       2 RES2    0.0000
     42 H17        4.6616   10.5644    3.8011 H         2 RES2    0.0000
     43 C18        3.5551    9.5866    2.0945 C.2       2 RES2    0.0000
     44 N7         2.1749    9.9371    2.2276 N.pl3     2 RES2    0.0000
     45 O3         1.8666   10.6934    3.1522 O.2       2 RES2    0.0000
     46 O4         1.3760    9.4786    1.4273 O.2       2 RES2    0.0000
     47 N8         3.9745    8.8164    1.0518 N.2       2 RES2    0.0000
     48 C19        5.2794    8.7223    1.2119 C.2       2 RES2    0.0000
     49 H18        5.6380    7.5186   -0.4474 H         2 RES2    0.0000
     50 H19        6.8912    8.6893   -0.1368 H         2 RES2    0.0000
     51 H20        6.8138    7.3047    0.8116 H         2 RES2    0.0000
     52 C20        6.2110    8.0179    0.2986 C.3       2 RES2    0.0000
@<TRIPOS>BOND
     1    1    2 ar
     2    2    3 1
     3    4    2 ar
     4    5    4 1
     5    6    4 ar
     6    7    6 1
     7    8    6 ar
     8    9    8 1
     9   10    1 ar
    10   11   10 1
    11   12   11 1
    12   13   11 1
    13   14    1 1
    14   15   14 1
    15   16   15 1
    16   17   15 2
    17   18   17 1
    18   19   18 2
    19   20   18 2
    20   21   17 1
    21   22   14 1
    22   23   26 1
    23   24   26 1
    24   25   26 1
    25   26   22 1
    26   27   28 ar
    27   28   29 1
    28   30   28 ar
    29   31   30 1
    30   32   30 ar
    31   33   32 1
    32   34   32 ar
    33   35   34 1
    34   36   27 ar
    35   37   36 1
    36   38   37 1
    37   39   37 1
    38   40   27 1
    39   41   40 1
    40   42   41 1
    41   43   41 2
    42   44   43 1
    43   45   44 2
    44   46   44 2
    45   47   43 1
    46   48   40 1
    47   49   52 1
    48   50   52 1
    49   51   52 1
    50   52   48 1
    51    8   10 ar
    52   21   22 2
    53   34   36 ar
    54   47   48 2
@<TRIPOS>SUBSTRUCTURE
     1 RES1 1
     2 RES2 27

@<TRIPOS>CRYSIN
  11.0299   10.0921   18.6365  90.0000  97.2380  90.0000  14 1

