# MOL2 file generated by ConQuest
# Please check atom types

@<TRIPOS>MOLECULE
LIXDAY03
    52    54     2
SMALL
NO_CHARGES
****
Generated from CSD

@<TRIPOS>ATOM
      1 C1         2.1056    5.2249    0.9372 C.ar      1 RES1    0.0000
      2 C2         1.5001    6.4450    1.2058 C.ar      1 RES1    0.0000
      3 C3         1.1388    7.2951    0.1742 C.ar      1 RES1    0.0000
      4 C4         1.4103    6.9067   -1.1311 C.ar      1 RES1    0.0000
      5 C5         1.9978    5.6844   -1.4035 C.ar      1 RES1    0.0000
      6 C6         2.3581    4.8062   -0.3716 C.ar      1 RES1    0.0000
      7 C7         3.7875    4.2928    2.5318 C.2       1 RES1    0.0000
      8 C8         2.5387    3.1301    3.7702 C.2       1 RES1    0.0000
      9 C9         1.6952    3.6558    2.8306 C.2       1 RES1    0.0000
     10 C10        4.9298    5.0253    1.9526 C.3       1 RES1    0.0000
     11 N1         2.5110    4.3992    2.0331 N.pl3     1 RES1    0.0000
     12 N2         3.8329    3.5183    3.5877 N.2       1 RES1    0.0000
     13 N3         2.9960    3.6258   -0.6403 N.3       1 RES1    0.0000
     14 N4         2.1577    2.3073    4.8568 N.pl3     1 RES1    0.0000
     15 O1         3.0244    1.9637    5.6561 O.2       1 RES1    0.0000
     16 O2         0.9749    1.9920    4.9503 O.2       1 RES1    0.0000
     17 H1         1.3332    6.7024    2.2444 H         1 RES1    0.0000
     18 H2         0.6602    8.2433    0.3850 H         1 RES1    0.0000
     19 H3         1.1684    7.5731   -1.9497 H         1 RES1    0.0000
     20 H4         2.2239    5.3784   -2.4174 H         1 RES1    0.0000
     21 H5         0.6303    3.5970    2.6430 H         1 RES1    0.0000
     22 H6         2.9596    2.8802    0.0387 H         1 RES1    0.0000
     23 H7         3.0301    3.3494   -1.6100 H         1 RES1    0.0000
     24 H8         4.8464    6.0592    2.1667 H         1 RES1    0.0000
     25 H9         4.9411    4.9261    0.8984 H         1 RES1    0.0000
     26 H10        5.8357    4.6664    2.3673 H         1 RES1    0.0000
     27 C11        6.9905    0.5653    2.7837 C.ar      2 RES2    0.0000
     28 C12        7.8532   -0.2924    2.1181 C.ar      2 RES2    0.0000
     29 C13        9.1787   -0.3847    2.5089 C.ar      2 RES2    0.0000
     30 C14        9.6270    0.4093    3.5588 C.ar      2 RES2    0.0000
     31 C15        8.7725    1.2857    4.1989 C.ar      2 RES2    0.0000
     32 C16        5.2250    1.3524    1.2160 C.2       2 RES2    0.0000
     33 C17        3.5042    0.4885    2.0871 C.2       2 RES2    0.0000
     34 C18        4.5369    0.1026    2.9018 C.2       2 RES2    0.0000
     35 C19        7.4185    1.3762    3.8372 C.ar      2 RES2    0.0000
     36 C20        6.1547    2.0548    0.3111 C.3       2 RES2    0.0000
     37 N5         5.6373    0.6664    2.3279 N.pl3     2 RES2    0.0000
     38 N6         3.9230    1.2616    1.0539 N.2       2 RES2    0.0000
     39 N7         6.5530    2.1939    4.5189 N.3       2 RES2    0.0000
     40 N8         2.1298    0.1391    2.2167 N.pl3     2 RES2    0.0000
     41 O3         1.3266    0.6070    1.4246 O.2       2 RES2    0.0000
     42 O4         1.8233   -0.6287    3.1309 O.2       2 RES2    0.0000
     43 H11        7.4831   -0.8673    1.2782 H         2 RES2    0.0000
     44 H12        9.8535   -1.0563    1.9926 H         2 RES2    0.0000
     45 H13       10.6609    0.3508    3.8755 H         2 RES2    0.0000
     46 H14        9.1444    1.9429    4.9753 H         2 RES2    0.0000
     47 H15        4.6194   -0.5043    3.7950 H         2 RES2    0.0000
     48 H16        5.6666    2.4060    4.0863 H         2 RES2    0.0000
     49 H17        6.9894    2.9518    5.0220 H         2 RES2    0.0000
     50 H18        6.7736    2.7462    0.8215 H         2 RES2    0.0000
     51 H19        6.7855    1.3547   -0.1720 H         2 RES2    0.0000
     52 H20        5.5668    2.5687   -0.4042 H         2 RES2    0.0000
@<TRIPOS>BOND
     1    1    2 ar
     2    2    3 ar
     3    3    4 ar
     4    4    5 ar
     5    5    6 ar
     6    6    1 ar
     7    7   10 1
     8    8    9 2
     9    9   11 1
    10   10   24 1
    11   11    1 1
    12   12    7 2
    13   13    6 1
    14   14    8 1
    15   15   14 2
    16   16   14 2
    17   17    2 1
    18   18    3 1
    19   19    4 1
    20   20    5 1
    21   21    9 1
    22   22   13 1
    23   23   13 1
    24   25   10 1
    25   26   10 1
    26   27   28 ar
    27   28   29 ar
    28   29   30 ar
    29   30   31 ar
    30   31   35 ar
    31   32   36 1
    32   33   34 2
    33   34   37 1
    34   35   27 ar
    35   36   50 1
    36   37   27 1
    37   38   32 2
    38   39   35 1
    39   40   33 1
    40   41   40 2
    41   42   40 2
    42   43   28 1
    43   44   29 1
    44   45   30 1
    45   46   31 1
    46   47   34 1
    47   48   39 1
    48   49   39 1
    49   51   36 1
    50   52   36 1
    51    7   11 1
    52    8   12 1
    53   32   37 1
    54   33   38 1
@<TRIPOS>SUBSTRUCTURE
     1 RES1 1
     2 RES2 27

@<TRIPOS>CRYSIN
  10.9780   10.0060   18.4880  90.0000  97.2230  90.0000  14 1

