# MOL2 file generated by ConQuest
# Please check atom types

@<TRIPOS>MOLECULE
LIXDAY01
    52    54     2
SMALL
NO_CHARGES
****
Generated from CSD

@<TRIPOS>ATOM
      1 C1         2.0981    4.8409    0.9704 C.ar      1 RES1    0.0000
      2 C2         1.4902    3.6178    1.2466 C.ar      1 RES1    0.0000
      3 H1         1.3122    3.3662    2.2849 H         1 RES1    0.0000
      4 C3         1.1229    2.7614    0.2141 C.ar      1 RES1    0.0000
      5 H2         0.6581    1.8051    0.4193 H         1 RES1    0.0000
      6 C4         1.3867    3.1491   -1.1015 C.ar      1 RES1    0.0000
      7 H3         1.1535    2.4836   -1.9233 H         1 RES1    0.0000
      8 C5         1.9783    4.3718   -1.3825 C.ar      1 RES1    0.0000
      9 H4         2.1704    4.6755   -2.4042 H         1 RES1    0.0000
     10 C6         2.3456    5.2578   -0.3485 C.ar      1 RES1    0.0000
     11 N1         2.9760    6.4425   -0.6314 N.3       1 RES1    0.0000
     12 H5         2.9883    7.1888    0.0475 H         1 RES1    0.0000
     13 H6         3.0117    6.7178   -1.6014 H         1 RES1    0.0000
     14 N2         2.5146    5.6696    2.0694 N.pl3     1 RES1    0.0000
     15 C7         1.7062    6.4136    2.8867 C.2       1 RES1    0.0000
     16 H7         0.6379    6.4955    2.7292 H         1 RES1    0.0000
     17 C8         2.5615    6.9310    3.8252 C.2       1 RES1    0.0000
     18 N3         2.1998    7.7517    4.9320 N.pl3     1 RES1    0.0000
     19 O1         1.0168    8.0819    5.0389 O.2       1 RES1    0.0000
     20 O2         3.0697    8.0841    5.7291 O.2       1 RES1    0.0000
     21 N4         3.8550    6.5397    3.6249 N.2       1 RES1    0.0000
     22 C9         3.8004    5.7679    2.5565 C.2       1 RES1    0.0000
     23 H8         5.8414    5.3978    2.3737 H         1 RES1    0.0000
     24 H9         4.8373    4.0034    2.1792 H         1 RES1    0.0000
     25 H10        4.9439    5.1780    0.9094 H         1 RES1    0.0000
     26 C10        4.9374    5.0343    1.9588 C.3       1 RES1    0.0000
     27 C11        7.0478    9.4982    2.7952 C.ar      2 RES2    0.0000
     28 C12        7.9179   10.3649    2.1383 C.ar      2 RES2    0.0000
     29 H11        7.5272   10.9330    1.3030 H         2 RES2    0.0000
     30 C13        9.2471   10.4471    2.5329 C.ar      2 RES2    0.0000
     31 H12        9.9258   11.1144    2.0163 H         2 RES2    0.0000
     32 C14        9.6907    9.6349    3.5793 C.ar      2 RES2    0.0000
     33 H13       10.7257    9.6780    3.8954 H         2 RES2    0.0000
     34 C15        8.8287    8.7527    4.2125 C.ar      2 RES2    0.0000
     35 H14        9.1892    8.0883    4.9882 H         2 RES2    0.0000
     36 C16        7.4708    8.6713    3.8470 C.ar      2 RES2    0.0000
     37 N5         6.6055    7.8338    4.5089 N.3       2 RES2    0.0000
     38 H15        5.6879    7.6351    4.1391 H         2 RES2    0.0000
     39 H16        7.0141    7.0906    5.0555 H         2 RES2    0.0000
     40 N6         5.6924    9.4045    2.3358 N.pl3     2 RES2    0.0000
     41 C17        4.5872    9.9698    2.9157 C.2       2 RES2    0.0000
     42 H17        4.6733   10.5533    3.8241 H         2 RES2    0.0000
     43 C18        3.5535    9.5869    2.0947 C.2       2 RES2    0.0000
     44 N7         2.1743    9.9373    2.2276 N.pl3     2 RES2    0.0000
     45 O3         1.8612   10.6984    3.1515 O.2       2 RES2    0.0000
     46 O4         1.3703    9.4769    1.4288 O.2       2 RES2    0.0000
     47 N8         3.9718    8.8162    1.0516 N.2       2 RES2    0.0000
     48 C19        5.2791    8.7222    1.2123 C.2       2 RES2    0.0000
     49 H18        5.6312    7.5284   -0.4404 H         2 RES2    0.0000
     50 H19        6.8841    8.6976   -0.1568 H         2 RES2    0.0000
     51 H20        6.7876    7.3071    0.8301 H         2 RES2    0.0000
     52 C20        6.2109    8.0184    0.2980 C.3       2 RES2    0.0000
@<TRIPOS>BOND
     1    1    2 ar
     2    2    3 1
     3    4    2 ar
     4    5    4 1
     5    6    4 ar
     6    7    6 1
     7    8    6 ar
     8    9    8 1
     9   10    1 ar
    10   11   10 1
    11   12   11 1
    12   13   11 1
    13   14    1 1
    14   15   14 1
    15   16   15 1
    16   17   15 2
    17   18   17 1
    18   19   18 2
    19   20   18 2
    20   21   17 1
    21   22   14 1
    22   23   26 1
    23   24   26 1
    24   25   26 1
    25   26   22 1
    26   27   28 ar
    27   28   29 1
    28   30   28 ar
    29   31   30 1
    30   32   30 ar
    31   33   32 1
    32   34   32 ar
    33   35   34 1
    34   36   27 ar
    35   37   36 1
    36   38   37 1
    37   39   37 1
    38   40   27 1
    39   41   40 1
    40   42   41 1
    41   43   41 2
    42   44   43 1
    43   45   44 2
    44   46   44 2
    45   47   43 1
    46   48   40 1
    47   49   52 1
    48   50   52 1
    49   51   52 1
    50   52   48 1
    51    8   10 ar
    52   21   22 2
    53   34   36 ar
    54   47   48 2
@<TRIPOS>SUBSTRUCTURE
     1 RES1 1
     2 RES2 27

@<TRIPOS>CRYSIN
  11.0299   10.0921   18.6365  90.0000  97.2380  90.0000  14 1

