# MOL2 file generated by ConQuest
# Please check atom types

@<TRIPOS>MOLECULE
LIXDAY05
    52    54     2
SMALL
NO_CHARGES
****
Generated from CSD

@<TRIPOS>ATOM
      1 C1         2.1101    5.2811    0.9563 C.ar      1 RES1    0.0000
      2 C2         1.5003    6.5114    1.2287 C.ar      1 RES1    0.0000
      3 C3         1.1365    7.3722    0.1923 C.ar      1 RES1    0.0000
      4 C4         1.4049    6.9818   -1.1239 C.ar      1 RES1    0.0000
      5 C5         1.9959    5.7495   -1.4019 C.ar      1 RES1    0.0000
      6 C6         2.3614    4.8586   -0.3634 C.ar      1 RES1    0.0000
      7 C7         3.8097    4.3432    2.5552 C.2       1 RES1    0.0000
      8 C8         2.5613    3.1717    3.8140 C.2       1 RES1    0.0000
      9 C9         1.7076    3.6969    2.8703 C.2       1 RES1    0.0000
     10 C10        4.9535    5.0814    1.9646 C.3       1 RES1    0.0000
     11 N1         2.5224    4.4462    2.0595 N.pl3     1 RES1    0.0000
     12 N2         3.8583    3.5633    3.6218 N.2       1 RES1    0.0000
     13 N3         3.0020    3.6691   -0.6406 N.3       1 RES1    0.0000
     14 N4         2.1847    2.3405    4.9158 N.pl3     1 RES1    0.0000
     15 O1         3.0577    2.0052    5.7187 O.2       1 RES1    0.0000
     16 O2         1.0012    2.0199    5.0172 O.2       1 RES1    0.0000
     17 H1         1.3333    6.7895    2.2408 H         1 RES1    0.0000
     18 H2         0.6844    8.3159    0.4311 H         1 RES1    0.0000
     19 H3         1.1466    7.6687   -1.9170 H         1 RES1    0.0000
     20 H4         2.2354    5.4484   -2.4277 H         1 RES1    0.0000
     21 H5         0.6739    3.6120    2.7367 H         1 RES1    0.0000
     22 H6         2.9824    2.9455    0.0370 H         1 RES1    0.0000
     23 H7         3.0415    3.4206   -1.5969 H         1 RES1    0.0000
     24 H8         4.8841    6.1473    2.1687 H         1 RES1    0.0000
     25 H9         4.9785    4.9632    0.9011 H         1 RES1    0.0000
     26 H10        5.8868    4.7201    2.3630 H         1 RES1    0.0000
     27 C11        7.0454    0.5821    2.8043 C.ar      2 RES2    0.0000
     28 C12        7.9166   -0.2860    2.1398 C.ar      2 RES2    0.0000
     29 C13        9.2478   -0.3748    2.5334 C.ar      2 RES2    0.0000
     30 C14        9.6963    0.4341    3.5874 C.ar      2 RES2    0.0000
     31 C15        8.8357    1.3203    4.2283 C.ar      2 RES2    0.0000
     32 C16        5.2708    1.3710    1.2209 C.2       2 RES2    0.0000
     33 C17        3.5414    0.5001    2.1013 C.2       2 RES2    0.0000
     34 C18        4.5789    0.1119    2.9233 C.2       2 RES2    0.0000
     35 C19        7.4731    1.4071    3.8631 C.ar      2 RES2    0.0000
     36 C20        6.2064    2.0812    0.3079 C.3       2 RES2    0.0000
     37 N5         5.6864    0.6809    2.3441 N.pl3     2 RES2    0.0000
     38 N6         3.9624    1.2781    1.0594 N.2       2 RES2    0.0000
     39 N7         6.6014    2.2333    4.5455 N.3       2 RES2    0.0000
     40 N8         2.1581    0.1481    2.2332 N.pl3     2 RES2    0.0000
     41 O3         1.3564    0.6147    1.4335 O.2       2 RES2    0.0000
     42 O4         1.8526   -0.6207    3.1564 O.2       2 RES2    0.0000
     43 H11        7.5491   -0.8681    1.3193 H         2 RES2    0.0000
     44 H12        9.9422   -1.0240    2.0317 H         2 RES2    0.0000
     45 H13       10.7009    0.3798    3.8988 H         2 RES2    0.0000
     46 H14        9.1925    1.9822    4.9924 H         2 RES2    0.0000
     47 H15        4.6474   -0.4933    3.8007 H         2 RES2    0.0000
     48 H16        5.7388    2.4725    4.1412 H         2 RES2    0.0000
     49 H17        7.0365    2.9718    5.0590 H         2 RES2    0.0000
     50 H18        6.8334    2.7895    0.8216 H         2 RES2    0.0000
     51 H19        6.8672    1.3958   -0.1425 H         2 RES2    0.0000
     52 H20        5.6007    2.6032   -0.4348 H         2 RES2    0.0000
@<TRIPOS>BOND
     1    1    2 ar
     2    2    3 ar
     3    3    4 ar
     4    4    5 ar
     5    5    6 ar
     6    6    1 ar
     7    7   10 1
     8    8    9 2
     9    9   11 1
    10   10   24 1
    11   11    1 1
    12   12    7 2
    13   13    6 1
    14   14    8 1
    15   15   14 2
    16   16   14 2
    17   17    2 1
    18   18    3 1
    19   19    4 1
    20   20    5 1
    21   21    9 1
    22   22   13 1
    23   23   13 1
    24   25   10 1
    25   26   10 1
    26   27   28 ar
    27   28   29 ar
    28   29   30 ar
    29   30   31 ar
    30   31   35 ar
    31   32   36 1
    32   33   34 2
    33   34   37 1
    34   35   27 ar
    35   36   50 1
    36   37   27 1
    37   38   32 2
    38   39   35 1
    39   40   33 1
    40   41   40 2
    41   42   40 2
    42   43   28 1
    43   44   29 1
    44   45   30 1
    45   46   31 1
    46   47   34 1
    47   48   39 1
    48   49   39 1
    49   51   36 1
    50   52   36 1
    51    7   11 1
    52    8   12 1
    53   32   37 1
    54   33   38 1
@<TRIPOS>SUBSTRUCTURE
     1 RES1 1
     2 RES2 27

@<TRIPOS>CRYSIN
  11.0470   10.1290   18.6520  90.0000  97.2230  90.0000  14 1

