# MOL2 file generated by ConQuest
# Please check atom types

@<TRIPOS>MOLECULE
LIXDAY08
    52    54     2
SMALL
NO_CHARGES
****
Generated from CSD

@<TRIPOS>ATOM
      1 C1         2.1052    5.2256    0.9365 C.ar      1 RES1    0.0000
      2 C2         1.5001    6.4444    1.2050 C.ar      1 RES1    0.0000
      3 C3         1.1390    7.2946    0.1742 C.ar      1 RES1    0.0000
      4 C4         1.4105    6.9062   -1.1307 C.ar      1 RES1    0.0000
      5 C5         1.9978    5.6850   -1.4033 C.ar      1 RES1    0.0000
      6 C6         2.3582    4.8058   -0.3716 C.ar      1 RES1    0.0000
      7 C7         3.7877    4.2929    2.5316 C.2       1 RES1    0.0000
      8 C8         2.5393    3.1308    3.7691 C.2       1 RES1    0.0000
      9 C9         1.6958    3.6556    2.8308 C.2       1 RES1    0.0000
     10 C10        4.9299    5.0255    1.9526 C.3       1 RES1    0.0000
     11 N1         2.5113    4.3993    2.0329 N.pl3     1 RES1    0.0000
     12 N2         3.8319    3.5187    3.5868 N.2       1 RES1    0.0000
     13 N3         2.9943    3.6258   -0.6410 N.3       1 RES1    0.0000
     14 N4         2.1581    2.3069    4.8573 N.pl3     1 RES1    0.0000
     15 O1         3.0244    1.9647    5.6550 O.2       1 RES1    0.0000
     16 O2         0.9781    1.9925    4.9498 O.2       1 RES1    0.0000
     17 H1         1.3327    6.7140    2.2175 H         1 RES1    0.0000
     18 H2         0.6657    8.2189    0.3778 H         1 RES1    0.0000
     19 H3         1.1676    7.5675   -1.9368 H         1 RES1    0.0000
     20 H4         2.2163    5.3892   -2.4155 H         1 RES1    0.0000
     21 H5         0.6493    3.5821    2.6723 H         1 RES1    0.0000
     22 H6         2.9816    2.9017    0.0348 H         1 RES1    0.0000
     23 H7         3.0540    3.3720   -1.5755 H         1 RES1    0.0000
     24 H8         4.8513    6.0636    2.1734 H         1 RES1    0.0000
     25 H9         4.9591    4.9129    0.8896 H         1 RES1    0.0000
     26 H10        5.8688    4.6728    2.3734 H         1 RES1    0.0000
     27 C11        6.9909    0.5656    2.7838 C.ar      2 RES2    0.0000
     28 C12        7.8532   -0.2922    2.1186 C.ar      2 RES2    0.0000
     29 C13        9.1786   -0.3846    2.5095 C.ar      2 RES2    0.0000
     30 C14        9.6267    0.4096    3.5588 C.ar      2 RES2    0.0000
     31 C15        8.7726    1.2856    4.1989 C.ar      2 RES2    0.0000
     32 C16        5.2248    1.3524    1.2160 C.2       2 RES2    0.0000
     33 C17        3.5048    0.4887    2.0867 C.2       2 RES2    0.0000
     34 C18        4.5368    0.1029    2.9012 C.2       2 RES2    0.0000
     35 C19        7.4182    1.3763    3.8372 C.ar      2 RES2    0.0000
     36 C20        6.1553    2.0545    0.3113 C.3       2 RES2    0.0000
     37 N5         5.6371    0.6664    2.3282 N.pl3     2 RES2    0.0000
     38 N6         3.9240    1.2612    1.0546 N.2       2 RES2    0.0000
     39 N7         6.5537    2.1948    4.5175 N.3       2 RES2    0.0000
     40 N8         2.1298    0.1392    2.2167 N.pl3     2 RES2    0.0000
     41 O3         1.3291    0.6065    1.4260 O.2       2 RES2    0.0000
     42 O4         1.8257   -0.6266    3.1294 O.2       2 RES2    0.0000
     43 H11        7.4935   -0.8705    1.2912 H         2 RES2    0.0000
     44 H12        9.8471   -1.0466    1.9937 H         2 RES2    0.0000
     45 H13       10.6522    0.3522    3.8700 H         2 RES2    0.0000
     46 H14        9.1426    1.9382    4.9540 H         2 RES2    0.0000
     47 H15        4.6037   -0.5003    3.7801 H         2 RES2    0.0000
     48 H16        5.6588    2.4014    4.1176 H         2 RES2    0.0000
     49 H17        6.9802    2.9318    5.0384 H         2 RES2    0.0000
     50 H18        6.7795    2.7416    0.8180 H         2 RES2    0.0000
     51 H19        6.7848    1.3508   -0.1761 H         2 RES2    0.0000
     52 H20        5.5759    2.5815   -0.4255 H         2 RES2    0.0000
@<TRIPOS>BOND
     1    1    2 ar
     2    2    3 ar
     3    3    4 ar
     4    4    5 ar
     5    5    6 ar
     6    6    1 ar
     7    7   10 1
     8    8    9 2
     9    9   11 1
    10   10   24 1
    11   11    1 1
    12   12    7 2
    13   13    6 1
    14   14    8 1
    15   15   14 2
    16   16   14 2
    17   17    2 1
    18   18    3 1
    19   19    4 1
    20   20    5 1
    21   21    9 1
    22   22   13 1
    23   23   13 1
    24   25   10 1
    25   26   10 1
    26   27   28 ar
    27   28   29 ar
    28   29   30 ar
    29   30   31 ar
    30   31   35 ar
    31   32   36 1
    32   33   34 2
    33   34   37 1
    34   35   27 ar
    35   36   50 1
    36   37   27 1
    37   38   32 2
    38   39   35 1
    39   40   33 1
    40   41   40 2
    41   42   40 2
    42   43   28 1
    43   44   29 1
    44   45   30 1
    45   46   31 1
    46   47   34 1
    47   48   39 1
    48   49   39 1
    49   51   36 1
    50   52   36 1
    51    7   11 1
    52    8   12 1
    53   32   37 1
    54   33   38 1
@<TRIPOS>SUBSTRUCTURE
     1 RES1 1
     2 RES2 27

@<TRIPOS>CRYSIN
  10.9780   10.0060   18.4880  90.0000  97.2230  90.0000  14 1

