# MOL2 file generated by ConQuest
# Please check atom types

@<TRIPOS>MOLECULE
LIXNEM
    42    43     1
SMALL
NO_CHARGES
****
Generated from CSD

@<TRIPOS>ATOM
      1 O1        -0.9323   -0.2240    7.0799 O.2       1 RES1    0.0000
      2 O2         3.2997   -0.9838    4.8017 O.2       1 RES1    0.0000
      3 O3         3.4149    2.3732    2.8793 O.3       1 RES1    0.0000
      4 N1         0.1960    1.7548    5.3211 N.ar      1 RES1    0.0000
      5 N2         1.4770    3.1622    3.8004 N.ar      1 RES1    0.0000
      6 N3         1.0690   -0.3341    5.9522 N.am      1 RES1    0.0000
      7 N4         3.3192    0.1120    4.1750 N.2       1 RES1    0.0000
      8 N5        -0.5168    3.8223    4.6279 N.3       1 RES1    0.0000
      9 C1         0.3986    2.8765    4.5850 C.ar      1 RES1    0.0000
     10 C2         2.3701    2.2101    3.6851 C.ar      1 RES1    0.0000
     11 C3         2.2931    0.9799    4.3918 C.ar      1 RES1    0.0000
     12 C4         1.1425    0.8281    5.2388 C.ar      1 RES1    0.0000
     13 C5         0.0766   -0.8402    6.8006 C.2       1 RES1    0.0000
     14 C6         0.4034   -2.1678    7.3232 C.2       1 RES1    0.0000
     15 C7        -0.3963   -2.8137    8.1644 C.2       1 RES1    0.0000
     16 C8        -0.1417   -4.1149    8.7161 C.2       1 RES1    0.0000
     17 C9        -0.9630   -4.7375    9.5607 C.2       1 RES1    0.0000
     18 C10       -0.7327   -6.0834   10.1593 C.3       1 RES1    0.0000
     19 C11        3.5576    3.6121    2.1484 C.3       1 RES1    0.0000
     20 C12        3.9508    3.3168    0.7306 C.ar      1 RES1    0.0000
     21 C13        3.6200    2.1352    0.0904 C.ar      1 RES1    0.0000
     22 C14        3.9698    1.9307   -1.2428 C.ar      1 RES1    0.0000
     23 C15        4.6574    2.9012   -1.9285 C.ar      1 RES1    0.0000
     24 C16        5.0083    4.0644   -1.2886 C.ar      1 RES1    0.0000
     25 C17        4.6459    4.2749    0.0257 C.ar      1 RES1    0.0000
     26 H1         4.8771    5.0819    0.5025 H         1 RES1    0.0000
     27 H2        -1.1335   -2.3869    8.4218 H         1 RES1    0.0000
     28 H3        -1.8273   -4.2534    9.8244 H         1 RES1    0.0000
     29 H4         0.7176   -4.5411    8.4598 H         1 RES1    0.0000
     30 H5         3.1882    1.4691    0.5472 H         1 RES1    0.0000
     31 H6         1.1496   -2.5380    7.0316 H         1 RES1    0.0000
     32 H7         4.2747    4.1853    2.6130 H         1 RES1    0.0000
     33 H8         2.7852    4.1450    2.1663 H         1 RES1    0.0000
     34 H9         3.6873    1.1211   -1.6862 H         1 RES1    0.0000
     35 H10       -1.4695   -6.6950   10.0052 H         1 RES1    0.0000
     36 H11        0.0975   -6.4679    9.6814 H         1 RES1    0.0000
     37 H12        5.4626    4.7715   -1.7532 H         1 RES1    0.0000
     38 H13       -0.6725   -6.0226   11.1219 H         1 RES1    0.0000
     39 H14        1.7329   -0.8572    5.8144 H         1 RES1    0.0000
     40 H15        4.9277    2.6918   -2.8698 H         1 RES1    0.0000
     41 H16       -0.4177    4.5559    4.1763 H         1 RES1    0.0000
     42 H17       -1.3218    3.7487    5.0920 H         1 RES1    0.0000
@<TRIPOS>BOND
     1    1   13 2
     2    2    7 2
     3    3   10 1
     4    4    9 ar
     5    5    9 ar
     6    6   12 1
     7    7   11 1
     8    8    9 1
     9   10    5 ar
    10   11   10 ar
    11   12    4 ar
    12   13    6 1
    13   14   13 1
    14   15   14 2
    15   16   15 1
    16   17   16 2
    17   18   17 1
    18   19    3 1
    19   20   19 1
    20   21   20 ar
    21   22   21 ar
    22   23   22 ar
    23   24   23 ar
    24   25   20 ar
    25   26   25 1
    26   27   15 1
    27   28   17 1
    28   29   16 1
    29   30   21 1
    30   31   14 1
    31   32   19 1
    32   33   19 1
    33   34   22 1
    34   35   18 1
    35   36   18 1
    36   37   24 1
    37   38   18 1
    38   39    6 1
    39   40   23 1
    40   41    8 1
    41   42    8 1
    42   11   12 ar
    43   24   25 ar
@<TRIPOS>SUBSTRUCTURE
     1 RES1 1

@<TRIPOS>CRYSIN
   7.5948   10.0150   11.9388 108.6795  94.3980 102.6297   2 1

