# MOL2 file generated by ConQuest
# Please check atom types

@<TRIPOS>MOLECULE
LIXRIT
    29    29     2
SMALL
NO_CHARGES
****
Generated from CSD

@<TRIPOS>ATOM
      1 N1         8.2535    0.6815    2.1845 N.pl3     1 RES1    0.0000
      2 H1         7.7139    0.5111    1.5028 H         1 RES1    0.0000
      3 N2         3.4921   -0.7014    0.6151 N.pl3     1 RES1    0.0000
      4 O1         3.7813   -0.0057   -0.3354 O.2       1 RES1    0.0000
      5 O2         6.2650    0.0185    0.7620 O.2       1 RES1    0.0000
      6 O3         2.6046   -1.5362    0.5854 O.2       1 RES1    0.0000
      7 C1         6.1682    0.0703    3.1423 C.2       1 RES1    0.0000
      8 C2         5.5695   -0.1257    1.8662 C.2       1 RES1    0.0000
      9 C3         4.2065   -0.5140    1.8642 C.2       1 RES1    0.0000
     10 C4         3.5174   -0.7248    3.0340 C.2       1 RES1    0.0000
     11 H2         2.6516   -1.0365    2.9664 H         1 RES1    0.0000
     12 C5         4.1087   -0.5225    4.2535 C.2       1 RES1    0.0000
     13 H3         3.6340   -0.6602    4.9905 H         1 RES1    0.0000
     14 C6         5.4266   -0.1214    4.3088 C.2       1 RES1    0.0000
     15 H4         5.8396    0.0568    5.1069 H         1 RES1    0.0000
     16 C7         7.5434    0.4778    3.2337 C.2       1 RES1    0.0000
     17 H5         7.8689    0.6247    4.1226 H         1 RES1    0.0000
     18 C8         9.6122    1.1209    2.1922 C.ar      1 RES1    0.0000
     19 C9        10.2886    1.5100    3.3282 C.ar      1 RES1    0.0000
     20 H6         9.8599    1.5121    4.1795 H         1 RES1    0.0000
     21 C10       11.5920    1.9757    3.2209 C.ar      1 RES1    0.0000
     22 H7        11.9845    2.2220    4.0075 H         1 RES1    0.0000
     23 C11       12.2074    2.0360    2.0105 C.ar      1 RES1    0.0000
     24 H8        13.0384    2.4279    1.9469 H         1 RES1    0.0000
     25 C12       11.5462    1.6583    0.8855 C.ar      1 RES1    0.0000
     26 H9        11.9487    1.6967    0.0948 H         1 RES1    0.0000
     27 C13       10.2345    1.1905    0.9619 C.ar      1 RES1    0.0000
     28 H10        9.7383    0.9300    0.2031 H         1 RES1    0.0000
     29 H11        7.0319    0.2442    0.9491 Du        2 SUP2    0.0000
@<TRIPOS>BOND
     1    1    2 1
     2    3    4 2
     3    5    8 2
     4    6    3 2
     5    7    8 1
     6    8    9 1
     7    9    3 1
     8   10    9 2
     9   11   10 1
    10   12   10 1
    11   13   12 1
    12   14    7 1
    13   15   14 1
    14   16    1 1
    15   17   16 1
    16   18    1 1
    17   19   18 ar
    18   20   19 1
    19   21   19 ar
    20   22   21 1
    21   23   21 ar
    22   24   23 1
    23   25   23 ar
    24   26   25 1
    25   27   18 ar
    26   28   27 1
    27    7   16 2
    28   12   14 2
    29   25   27 ar
@<TRIPOS>SUBSTRUCTURE
     1 RES1 1
     2 SUP2 29

@<TRIPOS>CRYSIN
  23.8450    7.0990   13.5390  90.0000  90.0000  90.0000  56 1

