# MOL2 file generated by ConQuest
# Please check atom types

@<TRIPOS>MOLECULE
LIXRIT01
    29    29     2
SMALL
NO_CHARGES
****
Generated from CSD

@<TRIPOS>ATOM
      1 N1         8.2079    0.7050    2.2321 N.pl3     1 RES1    0.0000
      2 H1         7.7346    0.6037    1.4553 H         1 RES1    0.0000
      3 N2         3.4632   -0.7133    0.6853 N.pl3     1 RES1    0.0000
      4 O1         3.7419   -0.0007   -0.2712 O.2       1 RES1    0.0000
      5 O2         6.2372    0.0083    0.8268 O.2       1 RES1    0.0000
      6 O3         2.5745   -1.5682    0.6508 O.2       1 RES1    0.0000
      7 C1         6.1378    0.0770    3.2133 C.2       1 RES1    0.0000
      8 C2         5.5493   -0.1284    1.9243 C.2       1 RES1    0.0000
      9 C3         4.1816   -0.5288    1.9363 C.2       1 RES1    0.0000
     10 C4         3.4804   -0.7446    3.1106 C.2       1 RES1    0.0000
     11 H2         2.5388   -1.0478    3.0304 H         1 RES1    0.0000
     12 C5         4.0796   -0.5274    4.3412 C.2       1 RES1    0.0000
     13 H3         3.5803   -0.6384    5.1581 H         1 RES1    0.0000
     14 C6         5.4059   -0.1138    4.3877 C.2       1 RES1    0.0000
     15 H4         5.8570    0.0694    5.2174 H         1 RES1    0.0000
     16 C7         7.5173    0.5031    3.2994 C.2       1 RES1    0.0000
     17 H5         7.8810    0.6453    4.1785 H         1 RES1    0.0000
     18 C8         9.5609    1.1540    2.2093 C.ar      1 RES1    0.0000
     19 C9        10.2521    1.5772    3.3422 C.ar      1 RES1    0.0000
     20 H6         9.8932    1.5613    4.2661 H         1 RES1    0.0000
     21 C10       11.5582    2.0373    3.2127 C.ar      1 RES1    0.0000
     22 H7        12.0092    2.3662    4.0276 H         1 RES1    0.0000
     23 C11       12.1696    2.0755    1.9672 C.ar      1 RES1    0.0000
     24 H8        13.0484    2.3940    1.8460 H         1 RES1    0.0000
     25 C12       11.4823    1.6494    0.8393 C.ar      1 RES1    0.0000
     26 H9        11.8841    1.6723    0.0135 H         1 RES1    0.0000
     27 C13       10.1740    1.1900    0.9599 C.ar      1 RES1    0.0000
     28 H10        9.6948    0.8743    0.2277 H         1 RES1    0.0000
     29 H11        6.9198    0.3608    1.0914 Du        2 SUP2    0.0000
@<TRIPOS>BOND
     1    1    2 1
     2    3    4 2
     3    5    8 2
     4    6    3 2
     5    7    8 1
     6    8    9 1
     7    9    3 1
     8   10    9 2
     9   11   10 1
    10   12   10 1
    11   13   12 1
    12   14    7 1
    13   15   14 1
    14   16    1 1
    15   17   16 1
    16   18    1 1
    17   19   18 ar
    18   20   19 1
    19   21   19 ar
    20   22   21 1
    21   23   21 ar
    22   24   23 1
    23   25   23 ar
    24   26   25 1
    25   27   18 ar
    26   28   27 1
    27    7   16 2
    28   12   14 2
    29   25   27 ar
@<TRIPOS>SUBSTRUCTURE
     1 RES1 1
     2 SUP2 29

@<TRIPOS>CRYSIN
  23.6170    6.9390   13.4746  90.0000  90.0000  90.0000  56 1

