# MOL2 file generated by ConQuest
# Please check atom types

@<TRIPOS>MOLECULE
LIXSAN
    73    64     2
SMALL
NO_CHARGES
****
Generated from CSD

@<TRIPOS>ATOM
      1 O1         4.4527    2.4457   10.3567 O.2       1 RES1    0.0000
      2 O2         5.2350    4.4395   10.3836 O.2       1 RES1    0.0000
      3 O3        -0.5981    2.0575    9.6845 O.3       1 RES1    0.0000
      4 O4         1.1317    0.6852    9.9421 O.2       1 RES1    0.0000
      5 N1         2.5112    2.0789    7.9890 N.3       1 RES1    0.0000
      6 N2         4.4447    3.6098    9.9961 N.pl3     1 RES1    0.0000
      7 C1         3.4459    3.1717    7.7141 C.3       1 RES1    0.0000
      8 C2         3.3919    4.0474    9.0176 C.3       1 RES1    0.0000
      9 H1         3.4961    4.9972    8.8001 H         1 RES1    0.0000
     10 C3         2.0047    3.7830    9.6427 C.3       1 RES1    0.0000
     11 H2         2.1539    3.3617   10.5150 H         1 RES1    0.0000
     12 C4         1.3980    2.6948    8.6983 C.3       1 RES1    0.0000
     13 H3         0.7944    3.1202    8.0540 H         1 RES1    0.0000
     14 C5         4.8403    2.6754    7.3536 C.ar      1 RES1    0.0000
     15 C6         5.0753    1.3640    6.9910 C.ar      1 RES1    0.0000
     16 H4         4.3712    0.7568    6.9723 H         1 RES1    0.0000
     17 C7         6.3513    0.9443    6.6542 C.ar      1 RES1    0.0000
     18 H5         6.4924    0.0610    6.4013 H         1 RES1    0.0000
     19 C8         7.4055    1.8112    6.6884 C.ar      1 RES1    0.0000
     20 H6         8.2620    1.5181    6.4782 H         1 RES1    0.0000
     21 C9         7.1868    3.1172    7.0352 C.ar      1 RES1    0.0000
     22 H7         7.8971    3.7171    7.0542 H         1 RES1    0.0000
     23 C10        5.9209    3.5451    7.3544 C.ar      1 RES1    0.0000
     24 H8         5.7858    4.4382    7.5761 H         1 RES1    0.0000
     25 C11        2.8959    3.9935    6.5269 C.ar      1 RES1    0.0000
     26 C12        3.2245    5.3213    6.3252 C.ar      1 RES1    0.0000
     27 H9         3.7832    5.7505    6.9314 H         1 RES1    0.0000
     28 C13        2.7387    6.0215    5.2415 C.ar      1 RES1    0.0000
     29 H10        2.9766    6.9121    5.1184 H         1 RES1    0.0000
     30 C14        1.9078    5.4055    4.3462 C.ar      1 RES1    0.0000
     31 H11        1.5610    5.8828    3.6277 H         1 RES1    0.0000
     32 C15        1.5888    4.0863    4.5118 C.ar      1 RES1    0.0000
     33 H12        1.0355    3.6619    3.8961 H         1 RES1    0.0000
     34 C16        2.0847    3.3780    5.5918 C.ar      1 RES1    0.0000
     35 H13        1.8706    2.4785    5.6895 H         1 RES1    0.0000
     36 C17        1.2045    5.0396    9.8822 C.ar      1 RES1    0.0000
     37 C18        0.7516    5.8354    8.8559 C.ar      1 RES1    0.0000
     38 H14        0.8926    5.5711    7.9754 H         1 RES1    0.0000
     39 C19        0.0901    7.0223    9.1131 C.ar      1 RES1    0.0000
     40 H15       -0.2017    7.5539    8.4090 H         1 RES1    0.0000
     41 C20       -0.1321    7.4101   10.3955 C.ar      1 RES1    0.0000
     42 H16       -0.5820    8.2048   10.5706 H         1 RES1    0.0000
     43 C21        0.3034    6.6349   11.4202 C.ar      1 RES1    0.0000
     44 H17        0.1571    6.9064   12.2969 H         1 RES1    0.0000
     45 C22        0.9595    5.4497   11.1726 C.ar      1 RES1    0.0000
     46 H18        1.2397    4.9213   11.8846 H         1 RES1    0.0000
     47 C23        0.6366    1.6722    9.5027 C.2       1 RES1    0.0000
     48 C24       -1.5514    1.3702   10.5901 C.3       1 RES1    0.0000
     49 C25       -1.1249    1.6251   11.9942 C.3       1 RES1    0.0000
     50 H19       -0.3058    1.1547   12.1709 H         1 RES1    0.0000
     51 H20       -1.8058    1.3169   12.5964 H         1 RES1    0.0000
     52 H21       -0.9867    2.5659   12.1218 H         1 RES1    0.0000
     53 C26       -1.5746   -0.1047   10.3317 C.3       1 RES1    0.0000
     54 H22       -1.7050   -0.2622    9.3941 H         1 RES1    0.0000
     55 H23       -2.2932   -0.5049   10.8259 H         1 RES1    0.0000
     56 H24       -0.7404   -0.4911   10.6082 H         1 RES1    0.0000
     57 C27       -2.8746    1.9609   10.1664 C.3       1 RES1    0.0000
     58 H25       -2.8938    2.8948   10.3873 H         1 RES1    0.0000
     59 H26       -3.5886    1.5089   10.6230 H         1 RES1    0.0000
     60 H27       -2.9841    1.8540    9.2174 H         1 RES1    0.0000
     61 H28        2.9038    1.4813    8.4958 H         1 RES1    0.0000
     62 C28       -0.8263    0.9914   11.8437 Du        2 SUP2    0.0000
     63 H29       -0.2211    0.2703   11.6588 Du        2 SUP2    0.0000
     64 H30       -1.4603    0.7142   12.5096 Du        2 SUP2    0.0000
     65 H31       -0.3317    1.7482   12.1693 Du        2 SUP2    0.0000
     66 C29       -2.1516    0.2082    9.8703 Du        2 SUP2    0.0000
     67 H32       -2.4385    0.4853    8.9981 Du        2 SUP2    0.0000
     68 H33       -2.9055   -0.1208   10.3661 Du        2 SUP2    0.0000
     69 H34       -1.4975   -0.4888    9.7868 Du        2 SUP2    0.0000
     70 C30       -2.4100    2.4980   11.0991 Du        2 SUP2    0.0000
     71 H35       -1.8496    3.1927   11.4509 Du        2 SUP2    0.0000
     72 H36       -2.9898    2.1714   11.7913 Du        2 SUP2    0.0000
     73 H37       -2.9395    2.8476   10.3775 Du        2 SUP2    0.0000
@<TRIPOS>BOND
     1    1    6 2
     2    2    6 2
     3    3   47 1
     4    4   47 2
     5    5    7 1
     6    6    8 1
     7    7    8 1
     8    8    9 1
     9   10    8 1
    10   11   10 1
    11   12    5 1
    12   13   12 1
    13   14    7 1
    14   15   14 ar
    15   16   15 1
    16   17   15 ar
    17   18   17 1
    18   19   17 ar
    19   20   19 1
    20   21   19 ar
    21   22   21 1
    22   23   14 ar
    23   24   23 1
    24   25    7 1
    25   26   25 ar
    26   27   26 1
    27   28   26 ar
    28   29   28 1
    29   30   28 ar
    30   31   30 1
    31   32   30 ar
    32   33   32 1
    33   34   25 ar
    34   35   34 1
    35   36   10 1
    36   37   36 ar
    37   38   37 1
    38   39   37 ar
    39   40   39 1
    40   41   39 ar
    41   42   41 1
    42   43   41 ar
    43   44   43 1
    44   45   36 ar
    45   46   45 1
    46   47   12 1
    47   48    3 1
    48   49   48 1
    49   50   49 1
    50   51   49 1
    51   52   49 1
    52   53   48 1
    53   54   53 1
    54   55   53 1
    55   56   53 1
    56   57   48 1
    57   58   57 1
    58   59   57 1
    59   60   57 1
    60   61    5 1
    61   10   12 1
    62   21   23 ar
    63   32   34 ar
    64   43   45 ar
@<TRIPOS>SUBSTRUCTURE
     1 RES1 1
     2 SUP2 62

@<TRIPOS>CRYSIN
  13.0330   11.5010   16.4850  90.0000  96.9700  90.0000 231 1

