# MOL2 file generated by ConQuest
# Please check atom types

@<TRIPOS>MOLECULE
LIXSUH
    35    37     1
SMALL
NO_CHARGES
****
Generated from CSD

@<TRIPOS>ATOM
      1 C1        10.9089   -0.7142    9.0522 C.ar      1 RES1    0.0000
      2 C2        11.9632   -0.2708    8.2919 C.ar      1 RES1    0.0000
      3 C3         8.5499   -1.4656    8.6379 C.2       1 RES1    0.0000
      4 C4         9.4939   -0.3046    8.6995 C.3       1 RES1    0.0000
      5 C5        13.2737   -0.5230    8.6816 C.ar      1 RES1    0.0000
      6 C6         8.9304    0.7201    9.6735 C.3       1 RES1    0.0000
      7 C7        13.5235   -1.2355    9.8101 C.ar      1 RES1    0.0000
      8 C8         9.5797    2.0867    9.5694 C.3       1 RES1    0.0000
      9 C9        12.4938   -1.7220   10.5603 C.ar      1 RES1    0.0000
     10 C10        8.9390    3.0658   10.5435 C.3       1 RES1    0.0000
     11 C11       11.1739   -1.4512   10.1908 C.ar      1 RES1    0.0000
     12 C12        7.4326    3.1614   10.3308 C.3       1 RES1    0.0000
     13 C13        6.7869    1.7923   10.4282 C.3       1 RES1    0.0000
     14 C14        7.4370    0.8344    9.4597 C.3       1 RES1    0.0000
     15 C15        8.9887   -2.6740    7.9516 C.1       1 RES1    0.0000
     16 N1         7.3517   -1.5689    9.1030 N.2       1 RES1    0.0000
     17 N2         9.3771   -3.5752    7.3737 N.1       1 RES1    0.0000
     18 O1         7.2210    1.1474    8.1129 O.3       1 RES1    0.0000
     19 O2         6.8022   -0.4620    9.7248 O.3       1 RES1    0.0000
     20 H1         6.4695    1.4301    8.0501 H         1 RES1    0.0000
     21 H2        11.7619    0.3131    7.4421 H         1 RES1    0.0000
     22 H3        13.9234   -0.1777    8.1509 H         1 RES1    0.0000
     23 H4         9.4990    0.0787    7.8519 H         1 RES1    0.0000
     24 H5         9.0385    0.3232   10.5838 H         1 RES1    0.0000
     25 H6        14.4513   -1.4301   10.0766 H         1 RES1    0.0000
     26 H7        10.5180    1.9463    9.7598 H         1 RES1    0.0000
     27 H8         9.4884    2.4032    8.6480 H         1 RES1    0.0000
     28 H9        12.5485   -2.2678   11.3754 H         1 RES1    0.0000
     29 H10        9.1136    2.7417   11.4873 H         1 RES1    0.0000
     30 H11        9.3213    3.9433   10.4696 H         1 RES1    0.0000
     31 H12       10.4330   -1.7686   10.7182 H         1 RES1    0.0000
     32 H13        7.0197    3.7825   11.0025 H         1 RES1    0.0000
     33 H14        7.2131    3.5540    9.4093 H         1 RES1    0.0000
     34 H15        6.9094    1.4047   11.3127 H         1 RES1    0.0000
     35 H16        5.8235    1.8024   10.2468 H         1 RES1    0.0000
@<TRIPOS>BOND
     1    1    2 ar
     2    2    5 ar
     3    3    4 1
     4    4    1 1
     5    5    7 ar
     6    6    4 1
     7    7    9 ar
     8    8    6 1
     9    9   11 ar
    10   10    8 1
    11   11    1 ar
    12   12   10 1
    13   13   12 1
    14   14    6 1
    15   15    3 1
    16   16    3 2
    17   17   15 3
    18   18   14 1
    19   19   14 1
    20   20   18 1
    21   21    2 1
    22   22    5 1
    23   23    4 1
    24   24    6 1
    25   25    7 1
    26   26    8 1
    27   27    8 1
    28   28    9 1
    29   29   10 1
    30   30   10 1
    31   31   11 1
    32   32   12 1
    33   33   12 1
    34   34   13 1
    35   35   13 1
    36   13   14 1
    37   16   19 1
@<TRIPOS>SUBSTRUCTURE
     1 RES1 1

@<TRIPOS>CRYSIN
  14.0920    8.4620   11.2760  90.0000  96.8190  90.0000  14 1

