# MOL2 file generated by ConQuest
# Please check atom types

@<TRIPOS>MOLECULE
LIXWAS
    33    34     1
SMALL
NO_CHARGES
****
Generated from CSD

@<TRIPOS>ATOM
      1 O1        -0.1538    4.9082    1.8706 O.3       1 RES1    0.0000
      2 O2         3.8278    3.4154   10.8702 O.2       1 RES1    0.0000
      3 O3         3.8821    3.9284   12.9637 O.2       1 RES1    0.0000
      4 N1         2.2620    4.6676    9.2103 N.3       1 RES1    0.0000
      5 N2         1.6446    4.9829    8.0155 N.2       1 RES1    0.0000
      6 N3         3.4646    4.1212   11.8246 N.pl3     1 RES1    0.0000
      7 C1         1.9738    5.4250   10.3144 C.ar      1 RES1    0.0000
      8 C2         1.3712    4.4607    5.7071 C.ar      1 RES1    0.0000
      9 C3         1.9492    4.2416    7.0213 C.2       1 RES1    0.0000
     10 C4         2.5354    5.1865   11.5823 C.ar      1 RES1    0.0000
     11 C5         1.6752    3.5873    4.6677 C.ar      1 RES1    0.0000
     12 C6         2.1998    5.9917   12.6814 C.ar      1 RES1    0.0000
     13 C7         1.1475    3.7581    3.4172 C.ar      1 RES1    0.0000
     14 C8         1.3240    7.0166   12.5393 C.ar      1 RES1    0.0000
     15 C9         0.2968    4.8083    3.1554 C.ar      1 RES1    0.0000
     16 C10        0.7583    7.2659   11.2881 C.ar      1 RES1    0.0000
     17 C11        0.5084    5.5099    5.4273 C.ar      1 RES1    0.0000
     18 C12        1.0779    6.4999   10.2068 C.ar      1 RES1    0.0000
     19 C13       -0.0297    5.6871    4.1728 C.ar      1 RES1    0.0000
     20 C14       -0.9540    6.0121    1.5216 C.3       1 RES1    0.0000
     21 H1         2.8151    4.0111    9.2605 H         1 RES1    0.0000
     22 H2         2.5561    3.5465    7.1411 H         1 RES1    0.0000
     23 H3         2.2479    2.8728    4.8269 H         1 RES1    0.0000
     24 H4         2.5815    5.8214   13.5127 H         1 RES1    0.0000
     25 H5         1.3657    3.1602    2.7384 H         1 RES1    0.0000
     26 H6         1.1030    7.5490   13.2698 H         1 RES1    0.0000
     27 H7         0.1533    7.9658   11.1909 H         1 RES1    0.0000
     28 H8         0.2883    6.1088    6.1036 H         1 RES1    0.0000
     29 H9         0.6945    6.6933    9.3820 H         1 RES1    0.0000
     30 H10       -0.6090    6.3957    4.0093 H         1 RES1    0.0000
     31 H11       -1.7709    5.9863    2.0230 H         1 RES1    0.0000
     32 H12       -1.1527    5.9788    0.5824 H         1 RES1    0.0000
     33 H13       -0.4818    6.8243    1.7202 H         1 RES1    0.0000
@<TRIPOS>BOND
     1    1   15 1
     2    2    6 2
     3    3    6 2
     4    4    5 1
     5    5    9 2
     6    6   10 1
     7    7    4 1
     8    8    9 1
     9    9   22 1
    10   10    7 ar
    11   11    8 ar
    12   12   10 ar
    13   13   11 ar
    14   14   12 ar
    15   15   13 ar
    16   16   14 ar
    17   17    8 ar
    18   18    7 ar
    19   19   15 ar
    20   20    1 1
    21   21    4 1
    22   23   11 1
    23   24   12 1
    24   25   13 1
    25   26   14 1
    26   27   16 1
    27   28   17 1
    28   29   18 1
    29   30   19 1
    30   31   20 1
    31   32   20 1
    32   33   20 1
    33   16   18 ar
    34   17   19 ar
@<TRIPOS>SUBSTRUCTURE
     1 RES1 1

@<TRIPOS>CRYSIN
  12.7671    5.3718   19.8870  90.0000 104.1380  90.0000  14 1

