# MOL2 file generated by ConQuest
# Please check atom types

@<TRIPOS>MOLECULE
LIYPUE
    34    35     1
SMALL
NO_CHARGES
****
Generated from CSD

@<TRIPOS>ATOM
      1 C1         9.8421    2.2914   11.8638 C.ar      1 RES1    0.0000
      2 C2        10.1614    2.3103   10.5118 C.ar      1 RES1    0.0000
      3 H1        10.3303    3.1092   10.0667 H         1 RES1    0.0000
      4 C3        10.2186    1.0873    9.8492 C.ar      1 RES1    0.0000
      5 C4         9.9585   -0.0920   10.5329 C.ar      1 RES1    0.0000
      6 C5         9.6060   -0.1214   11.8696 C.ar      1 RES1    0.0000
      7 H2         9.4082   -0.9184   12.3057 H         1 RES1    0.0000
      8 C6         9.5628    1.0892   12.5222 C.ar      1 RES1    0.0000
      9 H3         9.3414    1.1091   13.4254 H         1 RES1    0.0000
     10 O1         9.7613    3.4007   12.6492 O.3       1 RES1    0.0000
     11 C7         9.9897    4.6643   12.0446 C.3       1 RES1    0.0000
     12 H4         9.8658    5.3579   12.6958 H         1 RES1    0.0000
     13 H5         9.3708    4.7895   11.3215 H         1 RES1    0.0000
     14 H6        10.8881    4.6994   11.7070 H         1 RES1    0.0000
     15 C8        10.5368    0.7306    8.4710 C.2       1 RES1    0.0000
     16 C9        10.4698   -0.6072    8.3651 C.2       1 RES1    0.0000
     17 H7        10.6278   -1.0968    7.5905 H         1 RES1    0.0000
     18 N1        10.1223   -1.1462    9.6149 N.pl3     1 RES1    0.0000
     19 C10       10.8811    1.7344    7.4239 C.3       1 RES1    0.0000
     20 H8        11.6826    2.2050    7.6998 H         1 RES1    0.0000
     21 H9        10.1631    2.3853    7.3740 H         1 RES1    0.0000
     22 C11       11.1103    1.1613    6.0317 C.3       1 RES1    0.0000
     23 H10       11.4910    1.8521    5.4670 H         1 RES1    0.0000
     24 H11       11.7572    0.4412    6.0924 H         1 RES1    0.0000
     25 N2         9.9069    0.6566    5.4069 N.am      1 RES1    0.0000
     26 H12        9.7065   -0.1736    5.5036 H         1 RES1    0.0000
     27 C12        9.1010    1.4298    4.6904 C.2       1 RES1    0.0000
     28 C13        7.8809    0.7752    4.1313 C.3       1 RES1    0.0000
     29 H13        7.7912   -0.1044    4.5042 H         1 RES1    0.0000
     30 H14        7.9618    0.7116    3.1767 H         1 RES1    0.0000
     31 H15        7.1066    1.2980    4.3544 H         1 RES1    0.0000
     32 O2         9.3465    2.6168    4.4837 O.2       1 RES1    0.0000
     33 N3        10.0525   -2.4289    9.9938 N.2       1 RES1    0.0000
     34 O3        10.2788   -3.2297    9.1016 O.2       1 RES1    0.0000
@<TRIPOS>BOND
     1    1    2 ar
     2    2    3 1
     3    4    2 ar
     4    5    4 ar
     5    6    5 ar
     6    7    6 1
     7    8    1 ar
     8    9    8 1
     9   10    1 1
    10   11   10 1
    11   12   11 1
    12   13   11 1
    13   14   11 1
    14   15    4 1
    15   16   15 2
    16   17   16 1
    17   18    5 1
    18   19   15 1
    19   20   19 1
    20   21   19 1
    21   22   19 1
    22   23   22 1
    23   24   22 1
    24   25   22 1
    25   26   25 1
    26   27   25 1
    27   28   27 1
    28   29   28 1
    29   30   28 1
    30   31   28 1
    31   32   27 2
    32   33   18 1
    33   34   33 2
    34    6    8 ar
    35   16   18 1
@<TRIPOS>SUBSTRUCTURE
     1 RES1 1

@<TRIPOS>CRYSIN
  13.5800    9.4880   20.2660  90.0000  99.7300  90.0000  15 1

