# MOL2 file generated by ConQuest
# Please check atom types

@<TRIPOS>MOLECULE
LIYRIU
    26    27     1
SMALL
USER_CHARGES
****
Generated from CSD

@<TRIPOS>ATOM
      1 N1         1.4546    2.7596   10.8022 N.2       1 RES1    0.0000
      2 N2         1.0471    2.3896   11.9419 N.pl3     1 RES1    1.0000
      3 O1         1.6343    7.9025    8.7753 O.3       1 RES1    0.0000
      4 O2         0.5613    3.1504   12.8548 O.2       1 RES1   -1.0000
      5 C1         1.4094    4.1046   10.4095 C.ar      1 RES1    0.0000
      6 C2         2.1101    4.3287    9.2300 C.ar      1 RES1    0.0000
      7 C3         2.1963    5.5753    8.6712 C.ar      1 RES1    0.0000
      8 C4         1.5696    6.6451    9.2653 C.ar      1 RES1    0.0000
      9 C5         0.8251    6.4357   10.4217 C.ar      1 RES1    0.0000
     10 C6         0.7439    5.1879   10.9940 C.ar      1 RES1    0.0000
     11 C7         1.1226    0.9628   12.2101 C.ar      1 RES1    0.0000
     12 C8         0.7381    0.5146   13.4520 C.ar      1 RES1    0.0000
     13 C9         0.7899   -0.8322   13.7178 C.ar      1 RES1    0.0000
     14 C10        1.2053   -1.7196   12.7736 C.ar      1 RES1    0.0000
     15 C11        1.5804   -1.2624   11.5231 C.ar      1 RES1    0.0000
     16 C12        1.5344    0.0811   11.2378 C.ar      1 RES1    0.0000
     17 H1         2.1417    7.9165    8.0972 H         1 RES1    0.0000
     18 H2         2.6592    3.5472    8.7890 H         1 RES1    0.0000
     19 H3         2.6951    5.6981    7.9178 H         1 RES1    0.0000
     20 H4         0.3234    7.1958   10.7749 H         1 RES1    0.0000
     21 H5         0.1869    5.0111   11.7870 H         1 RES1    0.0000
     22 H6         0.4240    1.1824   14.0420 H         1 RES1    0.0000
     23 H7         0.4240   -1.1824   14.5416 H         1 RES1    0.0000
     24 H8         1.1715   -2.6576   12.9145 H         1 RES1    0.0000
     25 H9         1.8255   -1.9256   10.8646 H         1 RES1    0.0000
     26 H10        1.7680    0.4279   10.3521 H         1 RES1    0.0000
@<TRIPOS>BOND
     1    1    2 2
     2    2    4 1
     3    3    8 1
     4    5    1 1
     5    6    5 ar
     6    7    6 ar
     7    8    7 ar
     8    9    8 ar
     9   10    5 ar
    10   11    2 1
    11   12   11 ar
    12   13   12 ar
    13   14   13 ar
    14   15   14 ar
    15   16   11 ar
    16   17    3 1
    17   18    6 1
    18   19    7 1
    19   20    9 1
    20   21   10 1
    21   22   12 1
    22   23   13 1
    23   24   14 1
    24   25   15 1
    25   26   16 1
    26    9   10 ar
    27   15   16 ar
@<TRIPOS>SUBSTRUCTURE
     1 RES1 1

@<TRIPOS>CRYSIN
   7.1870   11.2610   12.8120  90.0000  90.0000  90.0000  19 1

