# MOL2 file generated by ConQuest
# Please check atom types

@<TRIPOS>MOLECULE
LIYVIA
    36    37     1
SMALL
NO_CHARGES
****
Generated from CSD

@<TRIPOS>ATOM
      1 O1         3.5633    2.9579    1.1750 O.3       1 RES1    0.0000
      2 O2         3.5146    5.1653    0.8156 O.2       1 RES1    0.0000
      3 O3         7.6927    7.6372    2.3447 O.2       1 RES1    0.0000
      4 O4         9.2581    6.8465    1.0799 O.2       1 RES1    0.0000
      5 O5        14.2852    4.8215    4.3776 O.3       1 RES1    0.0000
      6 O6        14.7806    3.9965    2.3551 O.2       1 RES1    0.0000
      7 N1         8.2274    6.7252    1.7288 N.pl3     1 RES1    0.0000
      8 C1         2.1359    2.9436    0.9176 C.3       1 RES1    0.0000
      9 H1         1.8207    2.0167    0.8784 H         1 RES1    0.0000
     10 H2         1.9524    3.3867    0.0633 H         1 RES1    0.0000
     11 H3         1.6686    3.4175    1.6368 H         1 RES1    0.0000
     12 C2         4.1208    4.1666    1.1026 C.2       1 RES1    0.0000
     13 C3         5.5768    4.1556    1.4248 C.ar      1 RES1    0.0000
     14 C4         6.2184    5.3832    1.4870 C.ar      1 RES1    0.0000
     15 H4         5.7379    6.1900    1.3451 H         1 RES1    0.0000
     16 C5         7.5741    5.4068    1.7585 C.ar      1 RES1    0.0000
     17 C6         8.3262    4.2619    2.0100 C.ar      1 RES1    0.0000
     18 C7         7.6412    3.0484    1.9672 C.ar      1 RES1    0.0000
     19 H5         8.1130    2.2442    2.1486 H         1 RES1    0.0000
     20 C8         6.2873    2.9854    1.6670 C.ar      1 RES1    0.0000
     21 H6         5.8470    2.1442    1.6268 H         1 RES1    0.0000
     22 C9         9.7790    4.2890    2.3424 C.ar      1 RES1    0.0000
     23 C10       10.2566    5.0340    3.4184 C.ar      1 RES1    0.0000
     24 H7         9.6514    5.5450    3.9437 H         1 RES1    0.0000
     25 C11       11.6065    5.0349    3.7294 C.ar      1 RES1    0.0000
     26 H8        11.9242    5.5292    4.4755 H         1 RES1    0.0000
     27 C12       12.4955    4.3103    2.9451 C.ar      1 RES1    0.0000
     28 C13       12.0248    3.5580    1.8747 C.ar      1 RES1    0.0000
     29 H9        12.6323    3.0592    1.3401 H         1 RES1    0.0000
     30 C14       10.6711    3.5359    1.5870 C.ar      1 RES1    0.0000
     31 H10       10.3495    3.0034    0.8684 H         1 RES1    0.0000
     32 C15       13.9674    4.3484    3.1688 C.2       1 RES1    0.0000
     33 C16       15.7013    4.8945    4.6620 C.3       1 RES1    0.0000
     34 H11       15.8358    5.0067    5.6256 H         1 RES1    0.0000
     35 H12       16.0916    5.6575    4.1871 H         1 RES1    0.0000
     36 H13       16.1361    4.0684    4.3655 H         1 RES1    0.0000
@<TRIPOS>BOND
     1    1    8 1
     2    2   12 2
     3    3    7 2
     4    4    7 2
     5    5   32 1
     6    6   32 2
     7    7   16 1
     8    8    9 1
     9   10    8 1
    10   11    8 1
    11   12    1 1
    12   13   12 1
    13   14   13 ar
    14   15   14 1
    15   16   14 ar
    16   17   16 ar
    17   18   17 ar
    18   19   18 1
    19   20   13 ar
    20   21   20 1
    21   22   17 1
    22   23   22 ar
    23   24   23 1
    24   25   23 ar
    25   26   25 1
    26   27   25 ar
    27   28   27 ar
    28   29   28 1
    29   30   22 ar
    30   31   30 1
    31   32   27 1
    32   33    5 1
    33   34   33 1
    34   35   33 1
    35   36   33 1
    36   18   20 ar
    37   28   30 ar
@<TRIPOS>SUBSTRUCTURE
     1 RES1 1

@<TRIPOS>CRYSIN
  20.3958    8.3334   18.9386  90.0000 118.3420  90.0000  15 1

