# MOL2 file generated by ConQuest
# Please check atom types

@<TRIPOS>MOLECULE
LIYVEW
    63    68     1
SMALL
NO_CHARGES
****
Generated from CSD

@<TRIPOS>ATOM
      1 O1         7.1819    4.7680    5.4474 O.2       1 RES1    0.0000
      2 O2         3.7012    7.8229    7.5496 O.3       1 RES1    0.0000
      3 O3         2.0166    6.3348    0.0878 O.2       1 RES1    0.0000
      4 O4         3.5195    5.0392    0.8732 O.2       1 RES1    0.0000
      5 O5         7.1648   10.6275   -0.7224 O.3       1 RES1    0.0000
      6 N1         6.9374    6.6749    4.1154 N.am      1 RES1    0.0000
      7 N2         2.9647    6.1209    0.8169 N.pl3     1 RES1    0.0000
      8 N3         7.8409    9.2618    1.7014 N.3       1 RES1    0.0000
      9 C1         6.6810    5.8338    5.1331 C.2       1 RES1    0.0000
     10 C2         5.5989    6.7329    5.7383 C.3       1 RES1    0.0000
     11 C3         5.9249    7.6795    4.4772 C.3       1 RES1    0.0000
     12 C4         6.0094    7.3476    7.0503 C.ar      1 RES1    0.0000
     13 C5         7.3324    7.4222    7.4644 C.ar      1 RES1    0.0000
     14 C6         7.6776    8.0499    8.6440 C.ar      1 RES1    0.0000
     15 C7         6.7036    8.6199    9.4168 C.ar      1 RES1    0.0000
     16 C8         5.3832    8.5460    9.0465 C.ar      1 RES1    0.0000
     17 C9         5.0441    7.8961    7.8658 C.ar      1 RES1    0.0000
     18 C10        3.3156    6.7908    6.7091 C.ar      1 RES1    0.0000
     19 C11        1.9947    6.3873    6.7893 C.ar      1 RES1    0.0000
     20 C12        1.5582    5.3474    6.0132 C.ar      1 RES1    0.0000
     21 C13        2.4404    4.6854    5.1873 C.ar      1 RES1    0.0000
     22 C14        3.7561    5.0955    5.1094 C.ar      1 RES1    0.0000
     23 C15        4.2102    6.1826    5.8478 C.ar      1 RES1    0.0000
     24 C16        4.8709    7.9269    3.4442 C.ar      1 RES1    0.0000
     25 C17        4.2893    9.1838    3.3370 C.ar      1 RES1    0.0000
     26 C18        3.3233    9.4473    2.3879 C.ar      1 RES1    0.0000
     27 C19        2.8957    8.4528    1.5413 C.ar      1 RES1    0.0000
     28 C20        3.4579    7.2040    1.6662 C.ar      1 RES1    0.0000
     29 C21        4.4496    6.9307    2.5799 C.ar      1 RES1    0.0000
     30 C22        7.8784    6.5890    3.0150 C.3       1 RES1    0.0000
     31 C23        9.0274    7.5669    3.0801 C.3       1 RES1    0.0000
     32 C24        8.6504    9.0246    2.8814 C.3       1 RES1    0.0000
     33 C25        7.2970   10.6174    1.6847 C.3       1 RES1    0.0000
     34 C26        6.4413   10.8272    0.4702 C.3       1 RES1    0.0000
     35 C27        7.6971    9.3224   -0.7228 C.3       1 RES1    0.0000
     36 C28        8.5780    9.0722    0.4667 C.3       1 RES1    0.0000
     37 H1         6.3440    8.5180    4.7618 H         1 RES1    0.0000
     38 H2         7.9982    7.0428    6.9366 H         1 RES1    0.0000
     39 H3         8.5668    8.0856    8.9122 H         1 RES1    0.0000
     40 H4         6.9383    9.0622   10.1999 H         1 RES1    0.0000
     41 H5         4.7237    8.9265    9.5792 H         1 RES1    0.0000
     42 H6         1.4075    6.8192    7.3674 H         1 RES1    0.0000
     43 H7         0.6662    5.0885    6.0426 H         1 RES1    0.0000
     44 H8         2.1491    3.9612    4.6807 H         1 RES1    0.0000
     45 H9         4.3468    4.6389    4.5557 H         1 RES1    0.0000
     46 H10        4.5560    9.8609    3.9164 H         1 RES1    0.0000
     47 H11        2.9602   10.3013    2.3207 H         1 RES1    0.0000
     48 H12        2.2425    8.6196    0.9009 H         1 RES1    0.0000
     49 H13        4.8334    6.0845    2.6171 H         1 RES1    0.0000
     50 H14        7.3963    6.7348    2.1864 H         1 RES1    0.0000
     51 H15        8.2401    5.6897    2.9877 H         1 RES1    0.0000
     52 H16        9.6777    7.3224    2.4017 H         1 RES1    0.0000
     53 H17        9.4596    7.4764    3.9442 H         1 RES1    0.0000
     54 H18        8.1618    9.3304    3.6617 H         1 RES1    0.0000
     55 H19        9.4615    9.5517    2.8163 H         1 RES1    0.0000
     56 H20        8.0252   11.2585    1.6838 H         1 RES1    0.0000
     57 H21        6.7680   10.7645    2.4851 H         1 RES1    0.0000
     58 H22        5.6925   10.2123    0.4956 H         1 RES1    0.0000
     59 H23        6.0861   11.7297    0.4817 H         1 RES1    0.0000
     60 H24        8.2109    9.1866   -1.5355 H         1 RES1    0.0000
     61 H25        6.9686    8.6812   -0.7203 H         1 RES1    0.0000
     62 H26        8.9214    8.1655    0.4308 H         1 RES1    0.0000
     63 H27        9.3329    9.6806    0.4447 H         1 RES1    0.0000
@<TRIPOS>BOND
     1    1    9 2
     2    2   17 1
     3    3    7 2
     4    4    7 2
     5    5   34 1
     6    6    9 1
     7    7   28 1
     8    8   32 1
     9    9   10 1
    10   10   11 1
    11   11    6 1
    12   12   10 1
    13   13   12 ar
    14   14   13 ar
    15   15   14 ar
    16   16   15 ar
    17   17   12 ar
    18   18    2 1
    19   19   18 ar
    20   20   19 ar
    21   21   20 ar
    22   22   21 ar
    23   23   10 1
    24   24   11 1
    25   25   24 ar
    26   26   25 ar
    27   27   26 ar
    28   28   27 ar
    29   29   24 ar
    30   30    6 1
    31   31   30 1
    32   32   31 1
    33   33    8 1
    34   34   33 1
    35   35    5 1
    36   36    8 1
    37   37   11 1
    38   38   13 1
    39   39   14 1
    40   40   15 1
    41   41   16 1
    42   42   19 1
    43   43   20 1
    44   44   21 1
    45   45   22 1
    46   46   25 1
    47   47   26 1
    48   48   27 1
    49   49   29 1
    50   50   30 1
    51   51   30 1
    52   52   31 1
    53   53   31 1
    54   54   32 1
    55   55   32 1
    56   56   33 1
    57   57   33 1
    58   58   34 1
    59   59   34 1
    60   60   35 1
    61   61   35 1
    62   62   36 1
    63   63   36 1
    64   16   17 ar
    65   18   23 ar
    66   22   23 ar
    67   28   29 ar
    68   35   36 1
@<TRIPOS>SUBSTRUCTURE
     1 RES1 1

@<TRIPOS>CRYSIN
   9.2637   11.4091   23.3310  90.0000  96.9300  90.0000 231 1

